MODEL 1
REMARK VINA RESULT:     -11.3      0.000      0.000
REMARK  Name = 446277
REMARK  7 active torsions:
REMARK  status: ('A' for Active; 'I' for Inactive)
REMARK    1  A    between atoms: N_2  and  C_17
REMARK    2  A    between atoms: C_3  and  C_5
REMARK    3  A    between atoms: C_8  and  S_11
REMARK    4  A    between atoms: S_11  and  N_14
REMARK    5  A    between atoms: C_17  and  C_18
REMARK    6  A    between atoms: C_18  and  C_20
REMARK    7  A    between atoms: C_20  and  N_21
REMARK                            x       y       z     vdW  Elec       q    Type
REMARK                         _______ _______ _______ _____ _____    ______ ____
ROOT
ATOM      1  O   UNL     1      36.705 -18.293 -22.395  0.00  0.00    -0.270 OA
ATOM      2  N   UNL     1      34.586 -17.349 -22.317  0.00  0.00    -0.301 N 
ATOM      3  C   UNL     1      35.541 -18.308 -22.001  0.00  0.00    +0.246 C 
ATOM      4  H   UNL     1      33.678 -17.449 -21.952  0.00  0.00    +0.150 HD
ENDROOT
BRANCH   3   5
ATOM      5  C   UNL     1      35.082 -19.431 -21.143  0.00  0.00    +0.053 C 
ATOM      6  C   UNL     1      33.728 -19.628 -20.971  0.00  0.00    +0.006 C 
ATOM      7  C   UNL     1      36.026 -20.241 -20.545  0.00  0.00    +0.006 C 
ATOM      8  C   UNL     1      34.231 -21.516 -19.550  0.00  0.00    +0.122 C 
ATOM      9  C   UNL     1      33.297 -20.682 -20.165  0.00  0.00    +0.020 C 
ATOM     10  C   UNL     1      35.595 -21.295 -19.740  0.00  0.00    +0.020 C 
BRANCH   8  11
ATOM     11  S   UNL     1      33.692 -22.836 -18.542  0.00  0.00    +0.057 S 
ATOM     12  O   UNL     1      32.383 -22.496 -18.001  0.00  0.00    -0.153 OA
ATOM     13  O   UNL     1      33.869 -24.081 -19.277  0.00  0.00    -0.153 OA
BRANCH  11  14
ATOM     14  N   UNL     1      34.843 -22.775 -17.281  0.00  0.00    -0.203 NA
ATOM     15  H   UNL     1      34.875 -21.832 -16.895  0.00  0.00    +0.144 HD
ATOM     16  H   UNL     1      35.761 -23.025 -17.648  0.00  0.00    +0.144 HD
ENDBRANCH  11  14
ENDBRANCH   8  11
ENDBRANCH   3   5
BRANCH   2  17
ATOM     17  C   UNL     1      34.872 -16.218 -23.157  0.00  0.00    +0.091 C 
BRANCH  17  18
ATOM     18  C   UNL     1      34.424 -14.877 -22.555  0.00  0.00    +0.040 C 
ATOM     19  C   UNL     1      34.202 -15.001 -21.043  0.00  0.00    +0.004 C 
BRANCH  18  20
ATOM     20  C   UNL     1      33.175 -14.336 -23.279  0.00  0.00    +0.097 C 
BRANCH  20  21
ATOM     21  N   UNL     1      33.162 -12.883 -23.422  0.00  0.00    -0.286 N 
ATOM     22  C   UNL     1      32.522 -12.015 -22.580  0.00  0.00    +0.052 C 
ATOM     23  C   UNL     1      32.760 -10.729 -23.073  0.00  0.00    +0.015 C 
ATOM     24  C   UNL     1      33.795 -12.214 -24.426  0.00  0.00    +0.065 C 
ATOM     25  C   UNL     1      33.565 -10.871 -24.238  0.00  0.00    +0.017 C 
ATOM     26  C   UNL     1      31.758 -12.253 -21.432  0.00  0.00    +0.015 C 
ATOM     27  C   UNL     1      32.210  -9.627 -22.388  0.00  0.00    +0.001 C 
ATOM     28  C   UNL     1      31.221 -11.145 -20.770  0.00  0.00    +0.001 C 
ATOM     29  C   UNL     1      31.443  -9.851 -21.239  0.00  0.00    +0.000 C 
ENDBRANCH  20  21
ENDBRANCH  18  20
ENDBRANCH  17  18
ENDBRANCH   2  17
TORSDOF 7
ENDMDL
MODEL 2
REMARK VINA RESULT:     -11.1      1.333      2.626
REMARK  Name = 446277
REMARK  7 active torsions:
REMARK  status: ('A' for Active; 'I' for Inactive)
REMARK    1  A    between atoms: N_2  and  C_17
REMARK    2  A    between atoms: C_3  and  C_5
REMARK    3  A    between atoms: C_8  and  S_11
REMARK    4  A    between atoms: S_11  and  N_14
REMARK    5  A    between atoms: C_17  and  C_18
REMARK    6  A    between atoms: C_18  and  C_20
REMARK    7  A    between atoms: C_20  and  N_21
REMARK                            x       y       z     vdW  Elec       q    Type
REMARK                         _______ _______ _______ _____ _____    ______ ____
ROOT
ATOM      1  O   UNL     1      36.400 -17.937 -22.054  0.00  0.00    -0.270 OA
ATOM      2  N   UNL     1      34.567 -18.429 -23.389  0.00  0.00    -0.301 N 
ATOM      3  C   UNL     1      35.375 -18.579 -22.268  0.00  0.00    +0.246 C 
ATOM      4  H   UNL     1      33.764 -18.991 -23.470  0.00  0.00    +0.150 HD
ENDROOT
BRANCH   3   5
ATOM      5  C   UNL     1      34.953 -19.617 -21.291  0.00  0.00    +0.053 C 
ATOM      6  C   UNL     1      35.919 -20.382 -20.672  0.00  0.00    +0.006 C 
ATOM      7  C   UNL     1      33.607 -19.781 -21.035  0.00  0.00    +0.006 C 
ATOM      8  C   UNL     1      34.168 -21.541 -19.478  0.00  0.00    +0.122 C 
ATOM      9  C   UNL     1      35.523 -21.356 -19.755  0.00  0.00    +0.020 C 
ATOM     10  C   UNL     1      33.211 -20.754 -20.117  0.00  0.00    +0.020 C 
BRANCH   8  11
ATOM     11  S   UNL     1      33.672 -22.759 -18.329  0.00  0.00    +0.057 S 
ATOM     12  O   UNL     1      34.672 -22.828 -17.272  0.00  0.00    -0.153 OA
ATOM     13  O   UNL     1      32.274 -22.532 -17.989  0.00  0.00    -0.153 OA
BRANCH  11  14
ATOM     14  N   UNL     1      33.780 -24.171 -19.284  0.00  0.00    -0.203 NA
ATOM     15  H   UNL     1      34.487 -24.040 -20.008  0.00  0.00    +0.144 HD
ATOM     16  H   UNL     1      32.877 -24.357 -19.720  0.00  0.00    +0.144 HD
ENDBRANCH  11  14
ENDBRANCH   8  11
ENDBRANCH   3   5
BRANCH   2  17
ATOM     17  C   UNL     1      34.857 -17.484 -24.433  0.00  0.00    +0.091 C 
BRANCH  17  18
ATOM     18  C   UNL     1      33.981 -16.223 -24.381  0.00  0.00    +0.040 C 
ATOM     19  C   UNL     1      33.676 -15.708 -25.792  0.00  0.00    +0.004 C 
BRANCH  18  20
ATOM     20  C   UNL     1      34.626 -15.137 -23.498  0.00  0.00    +0.097 C 
BRANCH  20  21
ATOM     21  N   UNL     1      33.824 -14.773 -22.333  0.00  0.00    -0.286 N 
ATOM     22  C   UNL     1      33.110 -13.614 -22.200  0.00  0.00    +0.052 C 
ATOM     23  C   UNL     1      32.493 -13.665 -20.947  0.00  0.00    +0.015 C 
ATOM     24  C   UNL     1      33.694 -15.558 -21.227  0.00  0.00    +0.065 C 
ATOM     25  C   UNL     1      32.871 -14.897 -20.345  0.00  0.00    +0.017 C 
ATOM     26  C   UNL     1      32.955 -12.532 -23.074  0.00  0.00    +0.015 C 
ATOM     27  C   UNL     1      31.683 -12.583 -20.545  0.00  0.00    +0.001 C 
ATOM     28  C   UNL     1      32.148 -11.470 -22.654  0.00  0.00    +0.001 C 
ATOM     29  C   UNL     1      31.521 -11.494 -21.409  0.00  0.00    +0.000 C 
ENDBRANCH  20  21
ENDBRANCH  18  20
ENDBRANCH  17  18
ENDBRANCH   2  17
TORSDOF 7
ENDMDL
MODEL 3
REMARK VINA RESULT:     -11.1      1.180      2.347
REMARK  Name = 446277
REMARK  7 active torsions:
REMARK  status: ('A' for Active; 'I' for Inactive)
REMARK    1  A    between atoms: N_2  and  C_17
REMARK    2  A    between atoms: C_3  and  C_5
REMARK    3  A    between atoms: C_8  and  S_11
REMARK    4  A    between atoms: S_11  and  N_14
REMARK    5  A    between atoms: C_17  and  C_18
REMARK    6  A    between atoms: C_18  and  C_20
REMARK    7  A    between atoms: C_20  and  N_21
REMARK                            x       y       z     vdW  Elec       q    Type
REMARK                         _______ _______ _______ _____ _____    ______ ____
ROOT
ATOM      1  O   UNL     1      35.561 -17.928 -23.047  0.00  0.00    -0.270 OA
ATOM      2  N   UNL     1      34.139 -16.726 -21.662  0.00  0.00    -0.301 N 
ATOM      3  C   UNL     1      34.829 -17.864 -22.061  0.00  0.00    +0.246 C 
ATOM      4  H   UNL     1      33.577 -16.773 -20.856  0.00  0.00    +0.150 HD
ENDROOT
BRANCH   3   5
ATOM      5  C   UNL     1      34.627 -19.078 -21.229  0.00  0.00    +0.053 C 
ATOM      6  C   UNL     1      35.733 -19.751 -20.752  0.00  0.00    +0.006 C 
ATOM      7  C   UNL     1      33.339 -19.493 -20.960  0.00  0.00    +0.006 C 
ATOM      8  C   UNL     1      34.250 -21.331 -19.683  0.00  0.00    +0.122 C 
ATOM      9  C   UNL     1      35.542 -20.891 -19.970  0.00  0.00    +0.020 C 
ATOM     10  C   UNL     1      33.149 -20.632 -20.178  0.00  0.00    +0.020 C 
BRANCH   8  11
ATOM     11  S   UNL     1      34.011 -22.757 -18.704  0.00  0.00    +0.057 S 
ATOM     12  O   UNL     1      33.996 -23.920 -19.582  0.00  0.00    -0.153 OA
ATOM     13  O   UNL     1      34.940 -22.709 -17.583  0.00  0.00    -0.153 OA
BRANCH  11  14
ATOM     14  N   UNL     1      32.430 -22.489 -18.117  0.00  0.00    -0.203 NA
ATOM     15  H   UNL     1      32.414 -21.636 -17.558  0.00  0.00    +0.144 HD
ATOM     16  H   UNL     1      32.144 -23.279 -17.539  0.00  0.00    +0.144 HD
ENDBRANCH  11  14
ENDBRANCH   8  11
ENDBRANCH   3   5
BRANCH   2  17
ATOM     17  C   UNL     1      34.214 -15.482 -22.379  0.00  0.00    +0.091 C 
BRANCH  17  18
ATOM     18  C   UNL     1      33.423 -14.343 -21.717  0.00  0.00    +0.040 C 
ATOM     19  C   UNL     1      32.719 -14.829 -20.446  0.00  0.00    +0.004 C 
BRANCH  18  20
ATOM     20  C   UNL     1      32.436 -13.703 -22.714  0.00  0.00    +0.097 C 
BRANCH  20  21
ATOM     21  N   UNL     1      32.309 -12.256 -22.570  0.00  0.00    -0.286 N 
ATOM     22  C   UNL     1      33.080 -11.330 -23.218  0.00  0.00    +0.052 C 
ATOM     23  C   UNL     1      32.633 -10.074 -22.800  0.00  0.00    +0.015 C 
ATOM     24  C   UNL     1      31.395 -11.652 -21.760  0.00  0.00    +0.065 C 
ATOM     25  C   UNL     1      31.570 -10.293 -21.881  0.00  0.00    +0.017 C 
ATOM     26  C   UNL     1      34.127 -11.493 -24.131  0.00  0.00    +0.015 C 
ATOM     27  C   UNL     1      33.261  -8.923 -23.319  0.00  0.00    +0.001 C 
ATOM     28  C   UNL     1      34.736 -10.337 -24.632  0.00  0.00    +0.001 C 
ATOM     29  C   UNL     1      34.310  -9.071 -24.233  0.00  0.00    +0.000 C 
ENDBRANCH  20  21
ENDBRANCH  18  20
ENDBRANCH  17  18
ENDBRANCH   2  17
TORSDOF 7
ENDMDL
MODEL 4
REMARK VINA RESULT:     -10.9      1.354      2.705
REMARK  Name = 446277
REMARK  7 active torsions:
REMARK  status: ('A' for Active; 'I' for Inactive)
REMARK    1  A    between atoms: N_2  and  C_17
REMARK    2  A    between atoms: C_3  and  C_5
REMARK    3  A    between atoms: C_8  and  S_11
REMARK    4  A    between atoms: S_11  and  N_14
REMARK    5  A    between atoms: C_17  and  C_18
REMARK    6  A    between atoms: C_18  and  C_20
REMARK    7  A    between atoms: C_20  and  N_21
REMARK                            x       y       z     vdW  Elec       q    Type
REMARK                         _______ _______ _______ _____ _____    ______ ____
ROOT
ATOM      1  O   UNL     1      35.649 -17.818 -22.805  0.00  0.00    -0.270 OA
ATOM      2  N   UNL     1      34.168 -16.659 -21.445  0.00  0.00    -0.301 N 
ATOM      3  C   UNL     1      34.867 -17.788 -21.858  0.00  0.00    +0.246 C 
ATOM      4  H   UNL     1      33.563 -16.735 -20.673  0.00  0.00    +0.150 HD
ENDROOT
BRANCH   3   5
ATOM      5  C   UNL     1      34.607 -19.035 -21.092  0.00  0.00    +0.053 C 
ATOM      6  C   UNL     1      33.302 -19.386 -20.813  0.00  0.00    +0.006 C 
ATOM      7  C   UNL     1      35.679 -19.801 -20.685  0.00  0.00    +0.006 C 
ATOM      8  C   UNL     1      34.126 -21.349 -19.672  0.00  0.00    +0.122 C 
ATOM      9  C   UNL     1      33.059 -20.557 -20.094  0.00  0.00    +0.020 C 
ATOM     10  C   UNL     1      35.435 -20.972 -19.967  0.00  0.00    +0.020 C 
BRANCH   8  11
ATOM     11  S   UNL     1      33.821 -22.815 -18.773  0.00  0.00    +0.057 S 
ATOM     12  O   UNL     1      32.546 -22.674 -18.083  0.00  0.00    -0.153 OA
ATOM     13  O   UNL     1      34.044 -23.953 -19.654  0.00  0.00    -0.153 OA
BRANCH  11  14
ATOM     14  N   UNL     1      35.080 -22.759 -17.621  0.00  0.00    -0.203 NA
ATOM     15  H   UNL     1      34.714 -23.011 -16.702  0.00  0.00    +0.144 HD
ATOM     16  H   UNL     1      35.468 -21.816 -17.586  0.00  0.00    +0.144 HD
ENDBRANCH  11  14
ENDBRANCH   8  11
ENDBRANCH   3   5
BRANCH   2  17
ATOM     17  C   UNL     1      34.295 -15.386 -22.101  0.00  0.00    +0.091 C 
BRANCH  17  18
ATOM     18  C   UNL     1      33.459 -14.274 -21.450  0.00  0.00    +0.040 C 
ATOM     19  C   UNL     1      32.831 -14.755 -20.137  0.00  0.00    +0.004 C 
BRANCH  18  20
ATOM     20  C   UNL     1      32.400 -13.732 -22.431  0.00  0.00    +0.097 C 
BRANCH  20  21
ATOM     21  N   UNL     1      32.947 -12.859 -23.465  0.00  0.00    -0.286 N 
ATOM     22  C   UNL     1      33.131 -13.210 -24.775  0.00  0.00    +0.052 C 
ATOM     23  C   UNL     1      33.672 -12.093 -25.416  0.00  0.00    +0.015 C 
ATOM     24  C   UNL     1      33.345 -11.576 -23.241  0.00  0.00    +0.065 C 
ATOM     25  C   UNL     1      33.802 -11.070 -24.437  0.00  0.00    +0.017 C 
ATOM     26  C   UNL     1      32.866 -14.410 -25.444  0.00  0.00    +0.015 C 
ATOM     27  C   UNL     1      33.964 -12.177 -26.793  0.00  0.00    +0.001 C 
ATOM     28  C   UNL     1      33.165 -14.471 -26.809  0.00  0.00    +0.001 C 
ATOM     29  C   UNL     1      33.705 -13.372 -27.475  0.00  0.00    +0.000 C 
ENDBRANCH  20  21
ENDBRANCH  18  20
ENDBRANCH  17  18
ENDBRANCH   2  17
TORSDOF 7
ENDMDL
MODEL 5
REMARK VINA RESULT:     -10.7      4.268      6.965
REMARK  Name = 446277
REMARK  7 active torsions:
REMARK  status: ('A' for Active; 'I' for Inactive)
REMARK    1  A    between atoms: N_2  and  C_17
REMARK    2  A    between atoms: C_3  and  C_5
REMARK    3  A    between atoms: C_8  and  S_11
REMARK    4  A    between atoms: S_11  and  N_14
REMARK    5  A    between atoms: C_17  and  C_18
REMARK    6  A    between atoms: C_18  and  C_20
REMARK    7  A    between atoms: C_20  and  N_21
REMARK                            x       y       z     vdW  Elec       q    Type
REMARK                         _______ _______ _______ _____ _____    ______ ____
ROOT
ATOM      1  O   UNL     1      33.130 -23.112 -17.448  0.00  0.00    -0.270 OA
ATOM      2  N   UNL     1      35.027 -22.253 -18.472  0.00  0.00    -0.301 N 
ATOM      3  C   UNL     1      34.321 -22.808 -17.412  0.00  0.00    +0.246 C 
ATOM      4  H   UNL     1      35.980 -22.044 -18.346  0.00  0.00    +0.150 HD
ENDROOT
BRANCH   3   5
ATOM      5  C   UNL     1      35.083 -23.013 -16.153  0.00  0.00    +0.053 C 
ATOM      6  C   UNL     1      34.438 -23.566 -15.066  0.00  0.00    +0.006 C 
ATOM      7  C   UNL     1      36.412 -22.644 -16.112  0.00  0.00    +0.006 C 
ATOM      8  C   UNL     1      36.499 -23.394 -13.817  0.00  0.00    +0.122 C 
ATOM      9  C   UNL     1      35.154 -23.758 -13.884  0.00  0.00    +0.020 C 
ATOM     10  C   UNL     1      37.127 -22.837 -14.931  0.00  0.00    +0.020 C 
BRANCH   8  11
ATOM     11  S   UNL     1      37.395 -23.636 -12.338  0.00  0.00    +0.057 S 
ATOM     12  O   UNL     1      38.704 -24.180 -12.678  0.00  0.00    -0.153 OA
ATOM     13  O   UNL     1      37.302 -22.423 -11.537  0.00  0.00    -0.153 OA
BRANCH  11  14
ATOM     14  N   UNL     1      36.467 -24.859 -11.591  0.00  0.00    -0.203 NA
ATOM     15  H   UNL     1      37.027 -25.322 -10.874  0.00  0.00    +0.144 HD
ATOM     16  H   UNL     1      36.179 -25.543 -12.291  0.00  0.00    +0.144 HD
ENDBRANCH  11  14
ENDBRANCH   8  11
ENDBRANCH   3   5
BRANCH   2  17
ATOM     17  C   UNL     1      34.422 -21.972 -19.746  0.00  0.00    +0.091 C 
BRANCH  17  18
ATOM     18  C   UNL     1      34.279 -20.471 -20.040  0.00  0.00    +0.040 C 
ATOM     19  C   UNL     1      32.875 -20.143 -20.558  0.00  0.00    +0.004 C 
BRANCH  18  20
ATOM     20  C   UNL     1      35.378 -19.990 -21.009  0.00  0.00    +0.097 C 
BRANCH  20  21
ATOM     21  N   UNL     1      35.155 -18.645 -21.531  0.00  0.00    -0.286 N 
ATOM     22  C   UNL     1      34.876 -18.343 -22.836  0.00  0.00    +0.052 C 
ATOM     23  C   UNL     1      34.736 -16.955 -22.905  0.00  0.00    +0.015 C 
ATOM     24  C   UNL     1      35.202 -17.518 -20.767  0.00  0.00    +0.065 C 
ATOM     25  C   UNL     1      34.945 -16.448 -21.592  0.00  0.00    +0.017 C 
ATOM     26  C   UNL     1      34.734 -19.172 -23.954  0.00  0.00    +0.015 C 
ATOM     27  C   UNL     1      34.442 -16.363 -24.150  0.00  0.00    +0.001 C 
ATOM     28  C   UNL     1      34.442 -18.563 -25.179  0.00  0.00    +0.001 C 
ATOM     29  C   UNL     1      34.298 -17.180 -25.277  0.00  0.00    +0.000 C 
ENDBRANCH  20  21
ENDBRANCH  18  20
ENDBRANCH  17  18
ENDBRANCH   2  17
TORSDOF 7
ENDMDL
MODEL 6
REMARK VINA RESULT:     -10.6      1.582      2.595
REMARK  Name = 446277
REMARK  7 active torsions:
REMARK  status: ('A' for Active; 'I' for Inactive)
REMARK    1  A    between atoms: N_2  and  C_17
REMARK    2  A    between atoms: C_3  and  C_5
REMARK    3  A    between atoms: C_8  and  S_11
REMARK    4  A    between atoms: S_11  and  N_14
REMARK    5  A    between atoms: C_17  and  C_18
REMARK    6  A    between atoms: C_18  and  C_20
REMARK    7  A    between atoms: C_20  and  N_21
REMARK                            x       y       z     vdW  Elec       q    Type
REMARK                         _______ _______ _______ _____ _____    ______ ____
ROOT
ATOM      1  O   UNL     1      35.853 -17.868 -22.847  0.00  0.00    -0.270 OA
ATOM      2  N   UNL     1      34.069 -16.802 -21.816  0.00  0.00    -0.301 N 
ATOM      3  C   UNL     1      34.937 -17.866 -22.028  0.00  0.00    +0.246 C 
ATOM      4  H   UNL     1      33.365 -16.896 -21.134  0.00  0.00    +0.150 HD
ENDROOT
BRANCH   3   5
ATOM      5  C   UNL     1      34.698 -19.080 -21.206  0.00  0.00    +0.053 C 
ATOM      6  C   UNL     1      35.783 -19.788 -20.731  0.00  0.00    +0.006 C 
ATOM      7  C   UNL     1      33.398 -19.460 -20.943  0.00  0.00    +0.006 C 
ATOM      8  C   UNL     1      34.252 -21.334 -19.679  0.00  0.00    +0.122 C 
ATOM      9  C   UNL     1      35.557 -20.929 -19.959  0.00  0.00    +0.020 C 
ATOM     10  C   UNL     1      33.173 -20.600 -20.171  0.00  0.00    +0.020 C 
BRANCH   8  11
ATOM     11  S   UNL     1      33.971 -22.760 -18.711  0.00  0.00    +0.057 S 
ATOM     12  O   UNL     1      33.924 -23.915 -19.599  0.00  0.00    -0.153 OA
ATOM     13  O   UNL     1      34.898 -22.748 -17.588  0.00  0.00    -0.153 OA
BRANCH  11  14
ATOM     14  N   UNL     1      32.397 -22.451 -18.125  0.00  0.00    -0.203 NA
ATOM     15  H   UNL     1      32.395 -21.580 -17.595  0.00  0.00    +0.144 HD
ATOM     16  H   UNL     1      32.102 -23.218 -17.520  0.00  0.00    +0.144 HD
ENDBRANCH  11  14
ENDBRANCH   8  11
ENDBRANCH   3   5
BRANCH   2  17
ATOM     17  C   UNL     1      34.158 -15.570 -22.551  0.00  0.00    +0.091 C 
BRANCH  17  18
ATOM     18  C   UNL     1      33.459 -14.390 -21.858  0.00  0.00    +0.040 C 
ATOM     19  C   UNL     1      32.842 -14.822 -20.524  0.00  0.00    +0.004 C 
BRANCH  18  20
ATOM     20  C   UNL     1      32.417 -13.739 -22.791  0.00  0.00    +0.097 C 
BRANCH  20  21
ATOM     21  N   UNL     1      32.947 -13.379 -24.104  0.00  0.00    -0.286 N 
ATOM     22  C   UNL     1      33.622 -12.223 -24.390  0.00  0.00    +0.052 C 
ATOM     23  C   UNL     1      33.949 -12.276 -25.747  0.00  0.00    +0.015 C 
ATOM     24  C   UNL     1      32.827 -14.163 -25.211  0.00  0.00    +0.065 C 
ATOM     25  C   UNL     1      33.441 -13.505 -26.252  0.00  0.00    +0.017 C 
ATOM     26  C   UNL     1      33.970 -11.143 -23.571  0.00  0.00    +0.015 C 
ATOM     27  C   UNL     1      34.657 -11.199 -26.316  0.00  0.00    +0.001 C 
ATOM     28  C   UNL     1      34.672 -10.086 -24.158  0.00  0.00    +0.001 C 
ATOM     29  C   UNL     1      35.011 -10.112 -25.509  0.00  0.00    +0.000 C 
ENDBRANCH  20  21
ENDBRANCH  18  20
ENDBRANCH  17  18
ENDBRANCH   2  17
TORSDOF 7
ENDMDL
MODEL 7
REMARK VINA RESULT:     -10.6      3.385      5.729
REMARK  Name = 446277
REMARK  7 active torsions:
REMARK  status: ('A' for Active; 'I' for Inactive)
REMARK    1  A    between atoms: N_2  and  C_17
REMARK    2  A    between atoms: C_3  and  C_5
REMARK    3  A    between atoms: C_8  and  S_11
REMARK    4  A    between atoms: S_11  and  N_14
REMARK    5  A    between atoms: C_17  and  C_18
REMARK    6  A    between atoms: C_18  and  C_20
REMARK    7  A    between atoms: C_20  and  N_21
REMARK                            x       y       z     vdW  Elec       q    Type
REMARK                         _______ _______ _______ _____ _____    ______ ____
ROOT
ATOM      1  O   UNL     1      33.814 -23.048 -19.789  0.00  0.00    -0.270 OA
ATOM      2  N   UNL     1      35.237 -21.422 -18.942  0.00  0.00    -0.301 N 
ATOM      3  C   UNL     1      34.340 -22.479 -18.836  0.00  0.00    +0.246 C 
ATOM      4  H   UNL     1      35.606 -21.031 -18.118  0.00  0.00    +0.150 HD
ENDROOT
BRANCH   3   5
ATOM      5  C   UNL     1      33.996 -22.908 -17.455  0.00  0.00    +0.053 C 
ATOM      6  C   UNL     1      32.673 -23.131 -17.137  0.00  0.00    +0.006 C 
ATOM      7  C   UNL     1      35.012 -23.070 -16.536  0.00  0.00    +0.006 C 
ATOM      8  C   UNL     1      33.359 -23.706 -14.893  0.00  0.00    +0.122 C 
ATOM      9  C   UNL     1      32.350 -23.534 -15.841  0.00  0.00    +0.020 C 
ATOM     10  C   UNL     1      34.690 -23.474 -15.241  0.00  0.00    +0.020 C 
BRANCH   8  11
ATOM     11  S   UNL     1      32.955 -24.212 -13.271  0.00  0.00    +0.057 S 
ATOM     12  O   UNL     1      31.970 -25.281 -13.356  0.00  0.00    -0.153 OA
ATOM     13  O   UNL     1      34.192 -24.424 -12.531  0.00  0.00    -0.153 OA
BRANCH  11  14
ATOM     14  N   UNL     1      32.193 -22.806 -12.671  0.00  0.00    -0.203 NA
ATOM     15  H   UNL     1      31.233 -22.766 -13.014  0.00  0.00    +0.144 HD
ATOM     16  H   UNL     1      32.703 -21.981 -12.989  0.00  0.00    +0.144 HD
ENDBRANCH  11  14
ENDBRANCH   8  11
ENDBRANCH   3   5
BRANCH   2  17
ATOM     17  C   UNL     1      35.649 -20.879 -20.209  0.00  0.00    +0.091 C 
BRANCH  17  18
ATOM     18  C   UNL     1      34.918 -19.581 -20.586  0.00  0.00    +0.040 C 
ATOM     19  C   UNL     1      33.580 -19.881 -21.270  0.00  0.00    +0.004 C 
BRANCH  18  20
ATOM     20  C   UNL     1      35.816 -18.673 -21.450  0.00  0.00    +0.097 C 
BRANCH  20  21
ATOM     21  N   UNL     1      35.198 -17.398 -21.803  0.00  0.00    -0.286 N 
ATOM     22  C   UNL     1      34.817 -17.031 -23.065  0.00  0.00    +0.052 C 
ATOM     23  C   UNL     1      34.274 -15.748 -22.961  0.00  0.00    +0.015 C 
ATOM     24  C   UNL     1      34.926 -16.413 -20.902  0.00  0.00    +0.065 C 
ATOM     25  C   UNL     1      34.350 -15.370 -21.592  0.00  0.00    +0.017 C 
ATOM     26  C   UNL     1      34.904 -17.718 -24.280  0.00  0.00    +0.015 C 
ATOM     27  C   UNL     1      33.795 -15.118 -24.128  0.00  0.00    +0.001 C 
ATOM     28  C   UNL     1      34.423 -17.073 -25.424  0.00  0.00    +0.001 C 
ATOM     29  C   UNL     1      33.876 -15.793 -25.351  0.00  0.00    +0.000 C 
ENDBRANCH  20  21
ENDBRANCH  18  20
ENDBRANCH  17  18
ENDBRANCH   2  17
TORSDOF 7
ENDMDL
MODEL 8
REMARK VINA RESULT:     -10.5      4.020      6.626
REMARK  Name = 446277
REMARK  7 active torsions:
REMARK  status: ('A' for Active; 'I' for Inactive)
REMARK    1  A    between atoms: N_2  and  C_17
REMARK    2  A    between atoms: C_3  and  C_5
REMARK    3  A    between atoms: C_8  and  S_11
REMARK    4  A    between atoms: S_11  and  N_14
REMARK    5  A    between atoms: C_17  and  C_18
REMARK    6  A    between atoms: C_18  and  C_20
REMARK    7  A    between atoms: C_20  and  N_21
REMARK                            x       y       z     vdW  Elec       q    Type
REMARK                         _______ _______ _______ _____ _____    ______ ____
ROOT
ATOM      1  O   UNL     1      33.108 -23.111 -17.271  0.00  0.00    -0.270 OA
ATOM      2  N   UNL     1      34.963 -22.239 -18.360  0.00  0.00    -0.301 N 
ATOM      3  C   UNL     1      34.302 -22.820 -17.284  0.00  0.00    +0.246 C 
ATOM      4  H   UNL     1      35.923 -22.044 -18.274  0.00  0.00    +0.150 HD
ENDROOT
BRANCH   3   5
ATOM      5  C   UNL     1      35.122 -23.071 -16.070  0.00  0.00    +0.053 C 
ATOM      6  C   UNL     1      34.513 -23.602 -14.952  0.00  0.00    +0.006 C 
ATOM      7  C   UNL     1      36.467 -22.764 -16.101  0.00  0.00    +0.006 C 
ATOM      8  C   UNL     1      36.645 -23.536 -13.818  0.00  0.00    +0.122 C 
ATOM      9  C   UNL     1      35.283 -23.837 -13.813  0.00  0.00    +0.020 C 
ATOM     10  C   UNL     1      37.237 -23.000 -14.962  0.00  0.00    +0.020 C 
BRANCH   8  11
ATOM     11  S   UNL     1      37.609 -23.832 -12.392  0.00  0.00    +0.057 S 
ATOM     12  O   UNL     1      36.828 -24.648 -11.471  0.00  0.00    -0.153 OA
ATOM     13  O   UNL     1      38.930 -24.279 -12.812  0.00  0.00    -0.153 OA
BRANCH  11  14
ATOM     14  N   UNL     1      37.741 -22.253 -11.755  0.00  0.00    -0.203 NA
ATOM     15  H   UNL     1      37.726 -21.576 -12.517  0.00  0.00    +0.144 HD
ATOM     16  H   UNL     1      38.618 -22.167 -11.241  0.00  0.00    +0.144 HD
ENDBRANCH  11  14
ENDBRANCH   8  11
ENDBRANCH   3   5
BRANCH   2  17
ATOM     17  C   UNL     1      34.300 -21.914 -19.593  0.00  0.00    +0.091 C 
BRANCH  17  18
ATOM     18  C   UNL     1      35.046 -20.866 -20.433  0.00  0.00    +0.040 C 
ATOM     19  C   UNL     1      36.437 -20.587 -19.855  0.00  0.00    +0.004 C 
BRANCH  18  20
ATOM     20  C   UNL     1      34.212 -19.577 -20.577  0.00  0.00    +0.097 C 
BRANCH  20  21
ATOM     21  N   UNL     1      34.508 -18.817 -21.788  0.00  0.00    -0.286 N 
ATOM     22  C   UNL     1      34.482 -17.452 -21.886  0.00  0.00    +0.052 C 
ATOM     23  C   UNL     1      34.823 -17.139 -23.204  0.00  0.00    +0.015 C 
ATOM     24  C   UNL     1      34.847 -19.387 -22.977  0.00  0.00    +0.065 C 
ATOM     25  C   UNL     1      35.051 -18.370 -23.881  0.00  0.00    +0.017 C 
ATOM     26  C   UNL     1      34.188 -16.474 -20.930  0.00  0.00    +0.015 C 
ATOM     27  C   UNL     1      34.875 -15.784 -23.588  0.00  0.00    +0.001 C 
ATOM     28  C   UNL     1      34.245 -15.136 -21.333  0.00  0.00    +0.001 C 
ATOM     29  C   UNL     1      34.583 -14.795 -22.642  0.00  0.00    +0.000 C 
ENDBRANCH  20  21
ENDBRANCH  18  20
ENDBRANCH  17  18
ENDBRANCH   2  17
TORSDOF 7
ENDMDL
MODEL 9
REMARK VINA RESULT:     -10.4      2.950      4.745
REMARK  Name = 446277
REMARK  7 active torsions:
REMARK  status: ('A' for Active; 'I' for Inactive)
REMARK    1  A    between atoms: N_2  and  C_17
REMARK    2  A    between atoms: C_3  and  C_5
REMARK    3  A    between atoms: C_8  and  S_11
REMARK    4  A    between atoms: S_11  and  N_14
REMARK    5  A    between atoms: C_17  and  C_18
REMARK    6  A    between atoms: C_18  and  C_20
REMARK    7  A    between atoms: C_20  and  N_21
REMARK                            x       y       z     vdW  Elec       q    Type
REMARK                         _______ _______ _______ _____ _____    ______ ____
ROOT
ATOM      1  O   UNL     1      33.187 -22.312 -19.674  0.00  0.00    -0.270 OA
ATOM      2  N   UNL     1      34.816 -20.661 -19.743  0.00  0.00    -0.301 N 
ATOM      3  C   UNL     1      34.188 -21.777 -19.202  0.00  0.00    +0.246 C 
ATOM      4  H   UNL     1      35.614 -20.304 -19.292  0.00  0.00    +0.150 HD
ENDROOT
BRANCH   3   5
ATOM      5  C   UNL     1      34.779 -22.320 -17.952  0.00  0.00    +0.053 C 
ATOM      6  C   UNL     1      36.097 -22.036 -17.660  0.00  0.00    +0.006 C 
ATOM      7  C   UNL     1      33.991 -23.091 -17.123  0.00  0.00    +0.006 C 
ATOM      8  C   UNL     1      35.876 -23.328 -15.631  0.00  0.00    +0.122 C 
ATOM      9  C   UNL     1      36.652 -22.546 -16.486  0.00  0.00    +0.020 C 
ATOM     10  C   UNL     1      34.546 -23.600 -15.949  0.00  0.00    +0.020 C 
BRANCH   8  11
ATOM     11  S   UNL     1      36.571 -23.965 -14.161  0.00  0.00    +0.057 S 
ATOM     12  O   UNL     1      38.019 -23.822 -14.238  0.00  0.00    -0.153 OA
ATOM     13  O   UNL     1      35.848 -23.405 -13.027  0.00  0.00    -0.153 OA
BRANCH  11  14
ATOM     14  N   UNL     1      36.171 -25.620 -14.302  0.00  0.00    -0.203 NA
ATOM     15  H   UNL     1      35.214 -25.711 -14.643  0.00  0.00    +0.144 HD
ATOM     16  H   UNL     1      36.252 -26.068 -13.389  0.00  0.00    +0.144 HD
ENDBRANCH  11  14
ENDBRANCH   8  11
ENDBRANCH   3   5
BRANCH   2  17
ATOM     17  C   UNL     1      34.347 -20.008 -20.935  0.00  0.00    +0.091 C 
BRANCH  17  18
ATOM     18  C   UNL     1      35.305 -18.929 -21.462  0.00  0.00    +0.040 C 
ATOM     19  C   UNL     1      36.730 -19.161 -20.949  0.00  0.00    +0.004 C 
BRANCH  18  20
ATOM     20  C   UNL     1      34.791 -17.517 -21.116  0.00  0.00    +0.097 C 
BRANCH  20  21
ATOM     21  N   UNL     1      34.475 -16.703 -22.287  0.00  0.00    -0.286 N 
ATOM     22  C   UNL     1      33.736 -15.552 -22.268  0.00  0.00    +0.052 C 
ATOM     23  C   UNL     1      33.674 -15.094 -23.586  0.00  0.00    +0.015 C 
ATOM     24  C   UNL     1      34.887 -17.001 -23.550  0.00  0.00    +0.065 C 
ATOM     25  C   UNL     1      34.405 -16.018 -24.384  0.00  0.00    +0.017 C 
ATOM     26  C   UNL     1      33.120 -14.880 -21.206  0.00  0.00    +0.015 C 
ATOM     27  C   UNL     1      32.964 -13.908 -23.860  0.00  0.00    +0.001 C 
ATOM     28  C   UNL     1      32.420 -13.705 -21.502  0.00  0.00    +0.001 C 
ATOM     29  C   UNL     1      32.343 -13.225 -22.808  0.00  0.00    +0.000 C 
ENDBRANCH  20  21
ENDBRANCH  18  20
ENDBRANCH  17  18
ENDBRANCH   2  17
TORSDOF 7
ENDMDL
