MODEL 1
REMARK VINA RESULT:      -4.7      0.000      0.000
REMARK  Name = 1102
REMARK  9 active torsions:
REMARK  status: ('A' for Active; 'I' for Inactive)
REMARK    1  A    between atoms: N_1  and  C_4
REMARK    2  A    between atoms: N_1  and  C_12
REMARK    3  A    between atoms: C_4  and  C_5
REMARK    4  A    between atoms: C_5  and  C_6
REMARK    5  A    between atoms: C_6  and  C_7
REMARK    6  A    between atoms: C_7  and  N_8
REMARK    7  A    between atoms: C_12  and  C_13
REMARK    8  A    between atoms: C_13  and  C_14
REMARK    9  A    between atoms: C_14  and  N_15
REMARK                            x       y       z     vdW  Elec       q    Type
REMARK                         _______ _______ _______ _____ _____    ______ ____
ROOT
ATOM      1  N   UNL     1      35.136 -19.156 -20.672  0.00  0.00    +0.384 N 
ATOM      2  H   UNL     1      35.663 -20.004 -20.879  0.00  0.00    -0.085 HD
ATOM      3  H   UNL     1      35.223 -18.915 -19.684  0.00  0.00    -0.085 HD
ENDROOT
BRANCH   1   4
ATOM      4  C   UNL     1      33.727 -19.384 -20.973  0.00  0.00    -0.082 C 
BRANCH   4   5
ATOM      5  C   UNL     1      33.193 -20.560 -20.156  0.00  0.00    -0.026 C 
BRANCH   5   6
ATOM      6  C   UNL     1      34.338 -21.426 -19.623  0.00  0.00    -0.026 C 
BRANCH   6   7
ATOM      7  C   UNL     1      33.887 -22.484 -18.614  0.00  0.00    -0.086 C 
BRANCH   7   8
ATOM      8  N   UNL     1      32.466 -22.383 -18.303  0.00  0.00    +0.380 N 
ATOM      9  H   UNL     1      32.318 -22.595 -17.316  0.00  0.00    -0.089 HD
ATOM     10  H   UNL     1      31.944 -23.046 -18.875  0.00  0.00    -0.089 HD
ATOM     11  H   UNL     1      32.141 -21.435 -18.499  0.00  0.00    -0.089 HD
ENDBRANCH   7   8
ENDBRANCH   6   7
ENDBRANCH   5   6
ENDBRANCH   4   5
ENDBRANCH   1   4
BRANCH   1  12
ATOM     12  C   UNL     1      35.666 -18.059 -21.468  0.00  0.00    -0.084 C 
BRANCH  12  13
ATOM     13  C   UNL     1      34.933 -16.745 -21.193  0.00  0.00    -0.047 C 
BRANCH  13  14
ATOM     14  C   UNL     1      34.655 -15.939 -22.464  0.00  0.00    -0.088 C 
BRANCH  14  15
ATOM     15  N   UNL     1      35.450 -16.457 -23.571  0.00  0.00    +0.380 N 
ATOM     16  H   UNL     1      35.882 -15.680 -24.073  0.00  0.00    -0.089 HD
ATOM     17  H   UNL     1      34.848 -16.979 -24.208  0.00  0.00    -0.089 HD
ATOM     18  H   UNL     1      36.177 -17.073 -23.209  0.00  0.00    -0.089 HD
ENDBRANCH  14  15
ENDBRANCH  13  14
ENDBRANCH  12  13
ENDBRANCH   1  12
TORSDOF 9
ENDMDL
MODEL 2
REMARK VINA RESULT:      -4.6      1.251      1.595
REMARK  Name = 1102
REMARK  9 active torsions:
REMARK  status: ('A' for Active; 'I' for Inactive)
REMARK    1  A    between atoms: N_1  and  C_4
REMARK    2  A    between atoms: N_1  and  C_12
REMARK    3  A    between atoms: C_4  and  C_5
REMARK    4  A    between atoms: C_5  and  C_6
REMARK    5  A    between atoms: C_6  and  C_7
REMARK    6  A    between atoms: C_7  and  N_8
REMARK    7  A    between atoms: C_12  and  C_13
REMARK    8  A    between atoms: C_13  and  C_14
REMARK    9  A    between atoms: C_14  and  N_15
REMARK                            x       y       z     vdW  Elec       q    Type
REMARK                         _______ _______ _______ _____ _____    ______ ____
ROOT
ATOM      1  N   UNL     1      35.594 -18.057 -20.739  0.00  0.00    +0.384 N 
ATOM      2  H   UNL     1      36.537 -17.882 -21.085  0.00  0.00    -0.085 HD
ATOM      3  H   UNL     1      35.552 -17.907 -19.730  0.00  0.00    -0.085 HD
ENDROOT
BRANCH   1   4
ATOM      4  C   UNL     1      35.232 -19.442 -21.018  0.00  0.00    -0.082 C 
BRANCH   4   5
ATOM      5  C   UNL     1      33.760 -19.536 -21.417  0.00  0.00    -0.026 C 
BRANCH   5   6
ATOM      6  C   UNL     1      32.939 -20.239 -20.331  0.00  0.00    -0.026 C 
BRANCH   6   7
ATOM      7  C   UNL     1      33.700 -21.357 -19.617  0.00  0.00    -0.086 C 
BRANCH   7   8
ATOM      8  N   UNL     1      32.821 -22.208 -18.824  0.00  0.00    +0.380 N 
ATOM      9  H   UNL     1      32.469 -22.969 -19.406  0.00  0.00    -0.089 HD
ATOM     10  H   UNL     1      32.038 -21.657 -18.475  0.00  0.00    -0.089 HD
ATOM     11  H   UNL     1      33.342 -22.596 -18.036  0.00  0.00    -0.089 HD
ENDBRANCH   7   8
ENDBRANCH   6   7
ENDBRANCH   5   6
ENDBRANCH   4   5
ENDBRANCH   1   4
BRANCH   1  12
ATOM     12  C   UNL     1      34.670 -17.137 -21.385  0.00  0.00    -0.084 C 
BRANCH  12  13
ATOM     13  C   UNL     1      34.663 -15.764 -20.710  0.00  0.00    -0.047 C 
BRANCH  13  14
ATOM     14  C   UNL     1      33.836 -14.727 -21.474  0.00  0.00    -0.088 C 
BRANCH  14  15
ATOM     15  N   UNL     1      33.486 -15.238 -22.795  0.00  0.00    +0.380 N 
ATOM     16  H   UNL     1      34.153 -15.961 -23.067  0.00  0.00    -0.089 HD
ATOM     17  H   UNL     1      33.516 -14.477 -23.473  0.00  0.00    -0.089 HD
ATOM     18  H   UNL     1      32.547 -15.634 -22.769  0.00  0.00    -0.089 HD
ENDBRANCH  14  15
ENDBRANCH  13  14
ENDBRANCH  12  13
ENDBRANCH   1  12
TORSDOF 9
ENDMDL
MODEL 3
REMARK VINA RESULT:      -4.6      1.619      5.656
REMARK  Name = 1102
REMARK  9 active torsions:
REMARK  status: ('A' for Active; 'I' for Inactive)
REMARK    1  A    between atoms: N_1  and  C_4
REMARK    2  A    between atoms: N_1  and  C_12
REMARK    3  A    between atoms: C_4  and  C_5
REMARK    4  A    between atoms: C_5  and  C_6
REMARK    5  A    between atoms: C_6  and  C_7
REMARK    6  A    between atoms: C_7  and  N_8
REMARK    7  A    between atoms: C_12  and  C_13
REMARK    8  A    between atoms: C_13  and  C_14
REMARK    9  A    between atoms: C_14  and  N_15
REMARK                            x       y       z     vdW  Elec       q    Type
REMARK                         _______ _______ _______ _____ _____    ______ ____
ROOT
ATOM      1  N   UNL     1      36.063 -19.388 -20.335  0.00  0.00    +0.384 N 
ATOM      2  H   UNL     1      35.803 -18.718 -19.612  0.00  0.00    -0.085 HD
ATOM      3  H   UNL     1      36.969 -19.808 -20.121  0.00  0.00    -0.085 HD
ENDROOT
BRANCH   1   4
ATOM      4  C   UNL     1      36.162 -18.696 -21.615  0.00  0.00    -0.082 C 
BRANCH   4   5
ATOM      5  C   UNL     1      34.828 -18.759 -22.357  0.00  0.00    -0.026 C 
BRANCH   5   6
ATOM      6  C   UNL     1      35.042 -18.995 -23.856  0.00  0.00    -0.026 C 
BRANCH   6   7
ATOM      7  C   UNL     1      34.623 -17.810 -24.727  0.00  0.00    -0.086 C 
BRANCH   7   8
ATOM      8  N   UNL     1      35.238 -16.560 -24.297  0.00  0.00    +0.380 N 
ATOM      9  H   UNL     1      35.809 -16.183 -25.054  0.00  0.00    -0.089 HD
ATOM     10  H   UNL     1      35.825 -16.732 -23.482  0.00  0.00    -0.089 HD
ATOM     11  H   UNL     1      34.510 -15.888 -24.055  0.00  0.00    -0.089 HD
ENDBRANCH   7   8
ENDBRANCH   6   7
ENDBRANCH   5   6
ENDBRANCH   4   5
ENDBRANCH   1   4
BRANCH   1  12
ATOM     12  C   UNL     1      35.062 -20.443 -20.389  0.00  0.00    -0.084 C 
BRANCH  12  13
ATOM     13  C   UNL     1      35.429 -21.628 -19.493  0.00  0.00    -0.047 C 
BRANCH  13  14
ATOM     14  C   UNL     1      34.205 -22.313 -18.880  0.00  0.00    -0.088 C 
BRANCH  14  15
ATOM     15  N   UNL     1      33.007 -21.974 -19.639  0.00  0.00    +0.380 N 
ATOM     16  H   UNL     1      32.584 -21.132 -19.247  0.00  0.00    -0.089 HD
ATOM     17  H   UNL     1      32.340 -22.745 -19.584  0.00  0.00    -0.089 HD
ATOM     18  H   UNL     1      33.256 -21.809 -20.613  0.00  0.00    -0.089 HD
ENDBRANCH  14  15
ENDBRANCH  13  14
ENDBRANCH  12  13
ENDBRANCH   1  12
TORSDOF 9
ENDMDL
MODEL 4
REMARK VINA RESULT:      -4.6      2.012      2.630
REMARK  Name = 1102
REMARK  9 active torsions:
REMARK  status: ('A' for Active; 'I' for Inactive)
REMARK    1  A    between atoms: N_1  and  C_4
REMARK    2  A    between atoms: N_1  and  C_12
REMARK    3  A    between atoms: C_4  and  C_5
REMARK    4  A    between atoms: C_5  and  C_6
REMARK    5  A    between atoms: C_6  and  C_7
REMARK    6  A    between atoms: C_7  and  N_8
REMARK    7  A    between atoms: C_12  and  C_13
REMARK    8  A    between atoms: C_13  and  C_14
REMARK    9  A    between atoms: C_14  and  N_15
REMARK                            x       y       z     vdW  Elec       q    Type
REMARK                         _______ _______ _______ _____ _____    ______ ____
ROOT
ATOM      1  N   UNL     1      35.861 -17.950 -23.045  0.00  0.00    +0.384 N 
ATOM      2  H   UNL     1      36.839 -17.952 -23.334  0.00  0.00    -0.085 HD
ATOM      3  H   UNL     1      35.456 -17.021 -23.167  0.00  0.00    -0.085 HD
ENDROOT
BRANCH   1   4
ATOM      4  C   UNL     1      35.779 -18.312 -21.635  0.00  0.00    -0.082 C 
BRANCH   4   5
ATOM      5  C   UNL     1      34.365 -18.776 -21.287  0.00  0.00    -0.026 C 
BRANCH   5   6
ATOM      6  C   UNL     1      34.389 -20.139 -20.588  0.00  0.00    -0.026 C 
BRANCH   6   7
ATOM      7  C   UNL     1      33.031 -20.564 -20.028  0.00  0.00    -0.086 C 
BRANCH   7   8
ATOM      8  N   UNL     1      33.045 -21.928 -19.513  0.00  0.00    +0.380 N 
ATOM      9  H   UNL     1      32.495 -22.530 -20.128  0.00  0.00    -0.089 HD
ATOM     10  H   UNL     1      32.644 -21.943 -18.576  0.00  0.00    -0.089 HD
ATOM     11  H   UNL     1      34.006 -22.269 -19.477  0.00  0.00    -0.089 HD
ENDBRANCH   7   8
ENDBRANCH   6   7
ENDBRANCH   5   6
ENDBRANCH   4   5
ENDBRANCH   1   4
BRANCH   1  12
ATOM     12  C   UNL     1      35.118 -18.893 -23.869  0.00  0.00    -0.084 C 
BRANCH  12  13
ATOM     13  C   UNL     1      34.371 -18.196 -25.007  0.00  0.00    -0.047 C 
BRANCH  13  14
ATOM     14  C   UNL     1      34.844 -16.759 -25.239  0.00  0.00    -0.088 C 
BRANCH  14  15
ATOM     15  N   UNL     1      33.698 -15.874 -25.412  0.00  0.00    +0.380 N 
ATOM     16  H   UNL     1      33.564 -15.322 -24.564  0.00  0.00    -0.089 HD
ATOM     17  H   UNL     1      32.862 -16.430 -25.590  0.00  0.00    -0.089 HD
ATOM     18  H   UNL     1      33.865 -15.250 -26.200  0.00  0.00    -0.089 HD
ENDBRANCH  14  15
ENDBRANCH  13  14
ENDBRANCH  12  13
ENDBRANCH   1  12
TORSDOF 9
ENDMDL
MODEL 5
REMARK VINA RESULT:      -4.6      2.085      5.898
REMARK  Name = 1102
REMARK  9 active torsions:
REMARK  status: ('A' for Active; 'I' for Inactive)
REMARK    1  A    between atoms: N_1  and  C_4
REMARK    2  A    between atoms: N_1  and  C_12
REMARK    3  A    between atoms: C_4  and  C_5
REMARK    4  A    between atoms: C_5  and  C_6
REMARK    5  A    between atoms: C_6  and  C_7
REMARK    6  A    between atoms: C_7  and  N_8
REMARK    7  A    between atoms: C_12  and  C_13
REMARK    8  A    between atoms: C_13  and  C_14
REMARK    9  A    between atoms: C_14  and  N_15
REMARK                            x       y       z     vdW  Elec       q    Type
REMARK                         _______ _______ _______ _____ _____    ______ ____
ROOT
ATOM      1  N   UNL     1      35.146 -17.954 -20.843  0.00  0.00    +0.384 N 
ATOM      2  H   UNL     1      34.792 -17.958 -19.887  0.00  0.00    -0.085 HD
ATOM      3  H   UNL     1      36.167 -17.970 -20.845  0.00  0.00    -0.085 HD
ENDROOT
BRANCH   1   4
ATOM      4  C   UNL     1      34.699 -16.739 -21.514  0.00  0.00    -0.082 C 
BRANCH   4   5
ATOM      5  C   UNL     1      34.475 -15.621 -20.495  0.00  0.00    -0.026 C 
BRANCH   5   6
ATOM      6  C   UNL     1      33.063 -15.040 -20.618  0.00  0.00    -0.026 C 
BRANCH   6   7
ATOM      7  C   UNL     1      32.686 -14.644 -22.046  0.00  0.00    -0.086 C 
BRANCH   7   8
ATOM      8  N   UNL     1      31.992 -13.363 -22.102  0.00  0.00    +0.380 N 
ATOM      9  H   UNL     1      31.319 -13.307 -21.337  0.00  0.00    -0.089 HD
ATOM     10  H   UNL     1      31.503 -13.279 -22.992  0.00  0.00    -0.089 HD
ATOM     11  H   UNL     1      32.670 -12.605 -22.014  0.00  0.00    -0.089 HD
ENDBRANCH   7   8
ENDBRANCH   6   7
ENDBRANCH   5   6
ENDBRANCH   4   5
ENDBRANCH   1   4
BRANCH   1  12
ATOM     12  C   UNL     1      34.662 -19.139 -21.536  0.00  0.00    -0.084 C 
BRANCH  12  13
ATOM     13  C   UNL     1      33.502 -19.804 -20.791  0.00  0.00    -0.047 C 
BRANCH  13  14
ATOM     14  C   UNL     1      33.956 -20.945 -19.877  0.00  0.00    -0.088 C 
BRANCH  14  15
ATOM     15  N   UNL     1      32.798 -21.676 -19.374  0.00  0.00    +0.380 N 
ATOM     16  H   UNL     1      33.087 -22.279 -18.603  0.00  0.00    -0.089 HD
ATOM     17  H   UNL     1      32.404 -22.246 -20.122  0.00  0.00    -0.089 HD
ATOM     18  H   UNL     1      32.096 -21.015 -19.044  0.00  0.00    -0.089 HD
ENDBRANCH  14  15
ENDBRANCH  13  14
ENDBRANCH  12  13
ENDBRANCH   1  12
TORSDOF 9
ENDMDL
MODEL 6
REMARK VINA RESULT:      -4.6      2.059      6.652
REMARK  Name = 1102
REMARK  9 active torsions:
REMARK  status: ('A' for Active; 'I' for Inactive)
REMARK    1  A    between atoms: N_1  and  C_4
REMARK    2  A    between atoms: N_1  and  C_12
REMARK    3  A    between atoms: C_4  and  C_5
REMARK    4  A    between atoms: C_5  and  C_6
REMARK    5  A    between atoms: C_6  and  C_7
REMARK    6  A    between atoms: C_7  and  N_8
REMARK    7  A    between atoms: C_12  and  C_13
REMARK    8  A    between atoms: C_13  and  C_14
REMARK    9  A    between atoms: C_14  and  N_15
REMARK                            x       y       z     vdW  Elec       q    Type
REMARK                         _______ _______ _______ _____ _____    ______ ____
ROOT
ATOM      1  N   UNL     1      32.830 -22.389 -18.898  0.00  0.00    +0.384 N 
ATOM      2  H   UNL     1      32.567 -23.130 -19.548  0.00  0.00    -0.085 HD
ATOM      3  H   UNL     1      32.004 -21.869 -18.599  0.00  0.00    -0.085 HD
ENDROOT
BRANCH   1   4
ATOM      4  C   UNL     1      33.742 -21.469 -19.568  0.00  0.00    -0.082 C 
BRANCH   4   5
ATOM      5  C   UNL     1      32.962 -20.329 -20.223  0.00  0.00    -0.026 C 
BRANCH   5   6
ATOM      6  C   UNL     1      33.790 -19.654 -21.320  0.00  0.00    -0.026 C 
BRANCH   6   7
ATOM      7  C   UNL     1      35.281 -19.559 -20.990  0.00  0.00    -0.086 C 
BRANCH   7   8
ATOM      8  N   UNL     1      35.704 -18.187 -20.730  0.00  0.00    +0.380 N 
ATOM      9  H   UNL     1      35.440 -17.595 -21.519  0.00  0.00    -0.089 HD
ATOM     10  H   UNL     1      36.716 -18.161 -20.609  0.00  0.00    -0.089 HD
ATOM     11  H   UNL     1      35.250 -17.846 -19.883  0.00  0.00    -0.089 HD
ENDBRANCH   7   8
ENDBRANCH   6   7
ENDBRANCH   5   6
ENDBRANCH   4   5
ENDBRANCH   1   4
BRANCH   1  12
ATOM     12  C   UNL     1      33.457 -22.982 -17.726  0.00  0.00    -0.084 C 
BRANCH  12  13
ATOM     13  C   UNL     1      32.440 -23.285 -16.624  0.00  0.00    -0.047 C 
BRANCH  13  14
ATOM     14  C   UNL     1      33.088 -23.482 -15.251  0.00  0.00    -0.088 C 
BRANCH  14  15
ATOM     15  N   UNL     1      32.347 -22.743 -14.235  0.00  0.00    +0.380 N 
ATOM     16  H   UNL     1      31.899 -23.401 -13.597  0.00  0.00    -0.089 HD
ATOM     17  H   UNL     1      31.635 -22.168 -14.685  0.00  0.00    -0.089 HD
ATOM     18  H   UNL     1      32.988 -22.146 -13.714  0.00  0.00    -0.089 HD
ENDBRANCH  14  15
ENDBRANCH  13  14
ENDBRANCH  12  13
ENDBRANCH   1  12
TORSDOF 9
ENDMDL
MODEL 7
REMARK VINA RESULT:      -4.5      1.685      2.028
REMARK  Name = 1102
REMARK  9 active torsions:
REMARK  status: ('A' for Active; 'I' for Inactive)
REMARK    1  A    between atoms: N_1  and  C_4
REMARK    2  A    between atoms: N_1  and  C_12
REMARK    3  A    between atoms: C_4  and  C_5
REMARK    4  A    between atoms: C_5  and  C_6
REMARK    5  A    between atoms: C_6  and  C_7
REMARK    6  A    between atoms: C_7  and  N_8
REMARK    7  A    between atoms: C_12  and  C_13
REMARK    8  A    between atoms: C_13  and  C_14
REMARK    9  A    between atoms: C_14  and  N_15
REMARK                            x       y       z     vdW  Elec       q    Type
REMARK                         _______ _______ _______ _____ _____    ______ ____
ROOT
ATOM      1  N   UNL     1      35.266 -17.687 -20.833  0.00  0.00    +0.384 N 
ATOM      2  H   UNL     1      36.138 -17.363 -20.415  0.00  0.00    -0.085 HD
ATOM      3  H   UNL     1      34.473 -17.438 -20.240  0.00  0.00    -0.085 HD
ENDROOT
BRANCH   1   4
ATOM      4  C   UNL     1      35.309 -19.138 -20.965  0.00  0.00    -0.082 C 
BRANCH   4   5
ATOM      5  C   UNL     1      33.977 -19.664 -21.498  0.00  0.00    -0.026 C 
BRANCH   5   6
ATOM      6  C   UNL     1      33.093 -20.179 -20.358  0.00  0.00    -0.026 C 
BRANCH   6   7
ATOM      7  C   UNL     1      33.707 -21.351 -19.590  0.00  0.00    -0.086 C 
BRANCH   7   8
ATOM      8  N   UNL     1      32.718 -22.076 -18.801  0.00  0.00    +0.380 N 
ATOM      9  H   UNL     1      33.187 -22.787 -18.238  0.00  0.00    -0.089 HD
ATOM     10  H   UNL     1      32.047 -22.524 -19.424  0.00  0.00    -0.089 HD
ATOM     11  H   UNL     1      32.229 -21.425 -18.186  0.00  0.00    -0.089 HD
ENDBRANCH   7   8
ENDBRANCH   6   7
ENDBRANCH   5   6
ENDBRANCH   4   5
ENDBRANCH   1   4
BRANCH   1  12
ATOM     12  C   UNL     1      35.094 -17.051 -22.131  0.00  0.00    -0.084 C 
BRANCH  12  13
ATOM     13  C   UNL     1      34.662 -15.589 -22.001  0.00  0.00    -0.047 C 
BRANCH  13  14
ATOM     14  C   UNL     1      34.352 -15.185 -20.557  0.00  0.00    -0.088 C 
BRANCH  14  15
ATOM     15  N   UNL     1      32.914 -15.017 -20.379  0.00  0.00    +0.380 N 
ATOM     16  H   UNL     1      32.523 -15.861 -19.958  0.00  0.00    -0.089 HD
ATOM     17  H   UNL     1      32.476 -14.857 -21.286  0.00  0.00    -0.089 HD
ATOM     18  H   UNL     1      32.737 -14.219 -19.770  0.00  0.00    -0.089 HD
ENDBRANCH  14  15
ENDBRANCH  13  14
ENDBRANCH  12  13
ENDBRANCH   1  12
TORSDOF 9
ENDMDL
MODEL 8
REMARK VINA RESULT:      -4.5      1.817      5.940
REMARK  Name = 1102
REMARK  9 active torsions:
REMARK  status: ('A' for Active; 'I' for Inactive)
REMARK    1  A    between atoms: N_1  and  C_4
REMARK    2  A    between atoms: N_1  and  C_12
REMARK    3  A    between atoms: C_4  and  C_5
REMARK    4  A    between atoms: C_5  and  C_6
REMARK    5  A    between atoms: C_6  and  C_7
REMARK    6  A    between atoms: C_7  and  N_8
REMARK    7  A    between atoms: C_12  and  C_13
REMARK    8  A    between atoms: C_13  and  C_14
REMARK    9  A    between atoms: C_14  and  N_15
REMARK                            x       y       z     vdW  Elec       q    Type
REMARK                         _______ _______ _______ _____ _____    ______ ____
ROOT
ATOM      1  N   UNL     1      35.430 -17.765 -20.656  0.00  0.00    +0.384 N 
ATOM      2  H   UNL     1      34.835 -17.882 -19.837  0.00  0.00    -0.085 HD
ATOM      3  H   UNL     1      36.399 -17.614 -20.374  0.00  0.00    -0.085 HD
ENDROOT
BRANCH   1   4
ATOM      4  C   UNL     1      34.979 -16.603 -21.413  0.00  0.00    -0.082 C 
BRANCH   4   5
ATOM      5  C   UNL     1      34.601 -17.010 -22.837  0.00  0.00    -0.026 C 
BRANCH   5   6
ATOM      6  C   UNL     1      34.860 -15.866 -23.823  0.00  0.00    -0.026 C 
BRANCH   6   7
ATOM      7  C   UNL     1      33.769 -14.794 -23.816  0.00  0.00    -0.086 C 
BRANCH   7   8
ATOM      8  N   UNL     1      34.239 -13.530 -23.261  0.00  0.00    +0.380 N 
ATOM      9  H   UNL     1      33.440 -12.986 -22.932  0.00  0.00    -0.089 HD
ATOM     10  H   UNL     1      34.734 -13.005 -23.981  0.00  0.00    -0.089 HD
ATOM     11  H   UNL     1      34.869 -13.713 -22.480  0.00  0.00    -0.089 HD
ENDBRANCH   7   8
ENDBRANCH   6   7
ENDBRANCH   5   6
ENDBRANCH   4   5
ENDBRANCH   1   4
BRANCH   1  12
ATOM     12  C   UNL     1      35.365 -18.972 -21.468  0.00  0.00    -0.084 C 
BRANCH  12  13
ATOM     13  C   UNL     1      34.735 -20.141 -20.708  0.00  0.00    -0.047 C 
BRANCH  13  14
ATOM     14  C   UNL     1      33.210 -20.042 -20.619  0.00  0.00    -0.088 C 
BRANCH  14  15
ATOM     15  N   UNL     1      32.716 -20.866 -19.522  0.00  0.00    +0.380 N 
ATOM     16  H   UNL     1      31.941 -20.389 -19.060  0.00  0.00    -0.089 HD
ATOM     17  H   UNL     1      33.467 -21.022 -18.849  0.00  0.00    -0.089 HD
ATOM     18  H   UNL     1      32.395 -21.762 -19.887  0.00  0.00    -0.089 HD
ENDBRANCH  14  15
ENDBRANCH  13  14
ENDBRANCH  12  13
ENDBRANCH   1  12
TORSDOF 9
ENDMDL
MODEL 9
REMARK VINA RESULT:      -4.5      1.893      2.968
REMARK  Name = 1102
REMARK  9 active torsions:
REMARK  status: ('A' for Active; 'I' for Inactive)
REMARK    1  A    between atoms: N_1  and  C_4
REMARK    2  A    between atoms: N_1  and  C_12
REMARK    3  A    between atoms: C_4  and  C_5
REMARK    4  A    between atoms: C_5  and  C_6
REMARK    5  A    between atoms: C_6  and  C_7
REMARK    6  A    between atoms: C_7  and  N_8
REMARK    7  A    between atoms: C_12  and  C_13
REMARK    8  A    between atoms: C_13  and  C_14
REMARK    9  A    between atoms: C_14  and  N_15
REMARK                            x       y       z     vdW  Elec       q    Type
REMARK                         _______ _______ _______ _____ _____    ______ ____
ROOT
ATOM      1  N   UNL     1      35.684 -16.922 -23.214  0.00  0.00    +0.384 N 
ATOM      2  H   UNL     1      35.913 -16.928 -24.207  0.00  0.00    -0.085 HD
ATOM      3  H   UNL     1      36.479 -16.589 -22.668  0.00  0.00    -0.085 HD
ENDROOT
BRANCH   1   4
ATOM      4  C   UNL     1      35.363 -18.279 -22.788  0.00  0.00    -0.082 C 
BRANCH   4   5
ATOM      5  C   UNL     1      34.714 -18.263 -21.405  0.00  0.00    -0.026 C 
BRANCH   5   6
ATOM      6  C   UNL     1      34.413 -19.686 -20.922  0.00  0.00    -0.026 C 
BRANCH   6   7
ATOM      7  C   UNL     1      32.923 -19.954 -20.700  0.00  0.00    -0.086 C 
BRANCH   7   8
ATOM      8  N   UNL     1      32.681 -20.820 -19.552  0.00  0.00    +0.380 N 
ATOM      9  H   UNL     1      33.017 -20.362 -18.704  0.00  0.00    -0.089 HD
ATOM     10  H   UNL     1      33.174 -21.702 -19.681  0.00  0.00    -0.089 HD
ATOM     11  H   UNL     1      31.680 -20.999 -19.466  0.00  0.00    -0.089 HD
ENDBRANCH   7   8
ENDBRANCH   6   7
ENDBRANCH   5   6
ENDBRANCH   4   5
ENDBRANCH   1   4
BRANCH   1  12
ATOM     12  C   UNL     1      34.558 -16.026 -22.990  0.00  0.00    -0.084 C 
BRANCH  12  13
ATOM     13  C   UNL     1      33.927 -15.560 -24.303  0.00  0.00    -0.047 C 
BRANCH  13  14
ATOM     14  C   UNL     1      33.293 -14.170 -24.200  0.00  0.00    -0.088 C 
BRANCH  14  15
ATOM     15  N   UNL     1      34.177 -13.268 -23.470  0.00  0.00    +0.380 N 
ATOM     16  H   UNL     1      34.627 -13.776 -22.708  0.00  0.00    -0.089 HD
ATOM     17  H   UNL     1      33.633 -12.494 -23.088  0.00  0.00    -0.089 HD
ATOM     18  H   UNL     1      34.888 -12.903 -24.103  0.00  0.00    -0.089 HD
ENDBRANCH  14  15
ENDBRANCH  13  14
ENDBRANCH  12  13
ENDBRANCH   1  12
TORSDOF 9
ENDMDL
