MODEL 1
REMARK VINA RESULT:      -7.4      0.000      0.000
REMARK  Name = 17754112
REMARK  5 active torsions:
REMARK  status: ('A' for Active; 'I' for Inactive)
REMARK    1  A    between atoms: C_1  and  C_9
REMARK    2  A    between atoms: C_2  and  O_7
REMARK    3  A    between atoms: C_9  and  C_10
REMARK    4  A    between atoms: C_10  and  C_13
REMARK    5  A    between atoms: C_13  and  O_14
REMARK                            x       y       z     vdW  Elec       q    Type
REMARK                         _______ _______ _______ _____ _____    ______ ____
ROOT
ATOM      1  C   UNL     1      34.661 -19.949 -20.713  0.00  0.00    +0.012 C 
ATOM      2  C   UNL     1      33.781 -20.814 -20.062  0.00  0.00    +0.130 C 
ATOM      3  C   UNL     1      36.035 -20.059 -20.497  0.00  0.00    -0.001 C 
ATOM      4  C   UNL     1      34.277 -21.790 -19.196  0.00  0.00    +0.036 C 
ATOM      5  C   UNL     1      36.529 -21.034 -19.631  0.00  0.00    -0.000 C 
ATOM      6  C   UNL     1      35.651 -21.899 -18.981  0.00  0.00    +0.003 C 
ENDROOT
BRANCH   2   7
ATOM      7  O   UNL     1      32.437 -20.720 -20.261  0.00  0.00    -0.506 OA
ATOM      8  H   UNL     1      32.070 -20.940 -21.093  0.00  0.00    +0.292 HD
ENDBRANCH   2   7
BRANCH   1   9
ATOM      9  C   UNL     1      34.145 -18.888 -21.652  0.00  0.00    +0.040 C 
BRANCH   9  10
ATOM     10  C   UNL     1      35.214 -18.341 -22.612  0.00  0.00    +0.103 C 
ATOM     11  C   UNL     1      34.947 -18.734 -24.067  0.00  0.00    +0.012 C 
BRANCH  10  13
ATOM     12  O   UNL     1      34.965 -16.195 -21.482  0.00  0.00    -0.250 OA
ATOM     13  C   UNL     1      35.265 -16.827 -22.487  0.00  0.00    +0.314 C 
BRANCH  13  14
ATOM     14  O   UNL     1      35.703 -16.234 -23.628  0.00  0.00    -0.480 OA
ATOM     15  H   UNL     1      35.266 -15.473 -23.958  0.00  0.00    +0.295 HD
ENDBRANCH  13  14
ENDBRANCH  10  13
ENDBRANCH   9  10
ENDBRANCH   1   9
TORSDOF 5
ENDMDL
MODEL 2
REMARK VINA RESULT:      -7.2      1.799      2.637
REMARK  Name = 17754112
REMARK  5 active torsions:
REMARK  status: ('A' for Active; 'I' for Inactive)
REMARK    1  A    between atoms: C_1  and  C_9
REMARK    2  A    between atoms: C_2  and  O_7
REMARK    3  A    between atoms: C_9  and  C_10
REMARK    4  A    between atoms: C_10  and  C_13
REMARK    5  A    between atoms: C_13  and  O_14
REMARK                            x       y       z     vdW  Elec       q    Type
REMARK                         _______ _______ _______ _____ _____    ______ ____
ROOT
ATOM      1  C   UNL     1      34.849 -19.114 -21.046  0.00  0.00    +0.012 C 
ATOM      2  C   UNL     1      35.734 -19.994 -20.422  0.00  0.00    +0.130 C 
ATOM      3  C   UNL     1      33.475 -19.349 -20.989  0.00  0.00    -0.001 C 
ATOM      4  C   UNL     1      35.243 -21.109 -19.740  0.00  0.00    +0.036 C 
ATOM      5  C   UNL     1      32.985 -20.462 -20.308  0.00  0.00    -0.000 C 
ATOM      6  C   UNL     1      33.868 -21.342 -19.683  0.00  0.00    +0.003 C 
ENDROOT
BRANCH   2   7
ATOM      7  O   UNL     1      37.078 -19.781 -20.468  0.00  0.00    -0.506 OA
ATOM      8  H   UNL     1      37.449 -19.033 -20.045  0.00  0.00    +0.292 HD
ENDBRANCH   2   7
BRANCH   1   9
ATOM      9  C   UNL     1      35.361 -17.905 -21.788  0.00  0.00    +0.040 C 
BRANCH   9  10
ATOM     10  C   UNL     1      34.370 -16.730 -21.808  0.00  0.00    +0.103 C 
ATOM     11  C   UNL     1      34.607 -15.747 -20.659  0.00  0.00    +0.012 C 
BRANCH  10  13
ATOM     12  O   UNL     1      33.596 -15.352 -23.665  0.00  0.00    -0.250 OA
ATOM     13  C   UNL     1      34.489 -16.005 -23.139  0.00  0.00    +0.314 C 
BRANCH  13  14
ATOM     14  O   UNL     1      35.723 -16.145 -23.691  0.00  0.00    -0.480 OA
ATOM     15  H   UNL     1      35.940 -16.926 -24.162  0.00  0.00    +0.295 HD
ENDBRANCH  13  14
ENDBRANCH  10  13
ENDBRANCH   9  10
ENDBRANCH   1   9
TORSDOF 5
ENDMDL
MODEL 3
REMARK VINA RESULT:      -7.1      1.071      5.125
REMARK  Name = 17754112
REMARK  5 active torsions:
REMARK  status: ('A' for Active; 'I' for Inactive)
REMARK    1  A    between atoms: C_1  and  C_9
REMARK    2  A    between atoms: C_2  and  O_7
REMARK    3  A    between atoms: C_9  and  C_10
REMARK    4  A    between atoms: C_10  and  C_13
REMARK    5  A    between atoms: C_13  and  O_14
REMARK                            x       y       z     vdW  Elec       q    Type
REMARK                         _______ _______ _______ _____ _____    ______ ____
ROOT
ATOM      1  C   UNL     1      34.771 -18.334 -22.395  0.00  0.00    +0.012 C 
ATOM      2  C   UNL     1      34.836 -16.971 -22.687  0.00  0.00    +0.130 C 
ATOM      3  C   UNL     1      34.656 -19.263 -23.429  0.00  0.00    -0.001 C 
ATOM      4  C   UNL     1      34.787 -16.539 -24.013  0.00  0.00    +0.036 C 
ATOM      5  C   UNL     1      34.607 -18.831 -24.754  0.00  0.00    -0.000 C 
ATOM      6  C   UNL     1      34.672 -17.469 -25.046  0.00  0.00    +0.003 C 
ENDROOT
BRANCH   2   7
ATOM      7  O   UNL     1      34.948 -16.050 -21.690  0.00  0.00    -0.506 OA
ATOM      8  H   UNL     1      35.012 -16.330 -20.798  0.00  0.00    +0.292 HD
ENDBRANCH   2   7
BRANCH   1   9
ATOM      9  C   UNL     1      34.822 -18.820 -20.969  0.00  0.00    +0.040 C 
BRANCH   9  10
ATOM     10  C   UNL     1      34.601 -20.335 -20.826  0.00  0.00    +0.103 C 
ATOM     11  C   UNL     1      35.619 -20.987 -19.888  0.00  0.00    +0.012 C 
BRANCH  10  13
ATOM     12  O   UNL     1      32.294 -19.750 -20.294  0.00  0.00    -0.250 OA
ATOM     13  C   UNL     1      33.192 -20.583 -20.311  0.00  0.00    +0.314 C 
BRANCH  13  14
ATOM     14  O   UNL     1      33.023 -21.858 -19.875  0.00  0.00    -0.480 OA
ATOM     15  H   UNL     1      32.211 -22.301 -20.024  0.00  0.00    +0.295 HD
ENDBRANCH  13  14
ENDBRANCH  10  13
ENDBRANCH   9  10
ENDBRANCH   1   9
TORSDOF 5
ENDMDL
MODEL 4
REMARK VINA RESULT:      -7.0      1.331      1.440
REMARK  Name = 17754112
REMARK  5 active torsions:
REMARK  status: ('A' for Active; 'I' for Inactive)
REMARK    1  A    between atoms: C_1  and  C_9
REMARK    2  A    between atoms: C_2  and  O_7
REMARK    3  A    between atoms: C_9  and  C_10
REMARK    4  A    between atoms: C_10  and  C_13
REMARK    5  A    between atoms: C_13  and  O_14
REMARK                            x       y       z     vdW  Elec       q    Type
REMARK                         _______ _______ _______ _____ _____    ______ ____
ROOT
ATOM      1  C   UNL     1      34.724 -19.717 -20.910  0.00  0.00    +0.012 C 
ATOM      2  C   UNL     1      33.796 -20.563 -20.304  0.00  0.00    +0.130 C 
ATOM      3  C   UNL     1      36.085 -19.869 -20.644  0.00  0.00    -0.001 C 
ATOM      4  C   UNL     1      34.230 -21.563 -19.432  0.00  0.00    +0.036 C 
ATOM      5  C   UNL     1      36.518 -20.868 -19.773  0.00  0.00    -0.000 C 
ATOM      6  C   UNL     1      35.591 -21.714 -19.166  0.00  0.00    +0.003 C 
ENDROOT
BRANCH   2   7
ATOM      7  O   UNL     1      32.463 -20.428 -20.552  0.00  0.00    -0.506 OA
ATOM      8  H   UNL     1      31.961 -19.794 -20.080  0.00  0.00    +0.292 HD
ENDBRANCH   2   7
BRANCH   1   9
ATOM      9  C   UNL     1      34.274 -18.631 -21.855  0.00  0.00    +0.040 C 
BRANCH   9  10
ATOM     10  C   UNL     1      35.126 -17.353 -21.775  0.00  0.00    +0.103 C 
ATOM     11  C   UNL     1      35.396 -16.745 -23.153  0.00  0.00    +0.012 C 
BRANCH  10  13
ATOM     12  O   UNL     1      34.973 -15.534 -20.159  0.00  0.00    -0.250 OA
ATOM     13  C   UNL     1      34.415 -16.338 -20.894  0.00  0.00    +0.314 C 
BRANCH  13  14
ATOM     14  O   UNL     1      33.064 -16.407 -21.021  0.00  0.00    -0.480 OA
ATOM     15  H   UNL     1      32.524 -15.737 -20.651  0.00  0.00    +0.295 HD
ENDBRANCH  13  14
ENDBRANCH  10  13
ENDBRANCH   9  10
ENDBRANCH   1   9
TORSDOF 5
ENDMDL
MODEL 5
REMARK VINA RESULT:      -7.0      6.784      8.547
REMARK  Name = 17754112
REMARK  5 active torsions:
REMARK  status: ('A' for Active; 'I' for Inactive)
REMARK    1  A    between atoms: C_1  and  C_9
REMARK    2  A    between atoms: C_2  and  O_7
REMARK    3  A    between atoms: C_9  and  C_10
REMARK    4  A    between atoms: C_10  and  C_13
REMARK    5  A    between atoms: C_13  and  O_14
REMARK                            x       y       z     vdW  Elec       q    Type
REMARK                         _______ _______ _______ _____ _____    ______ ____
ROOT
ATOM      1  C   UNL     1      31.831 -23.103 -15.598  0.00  0.00    +0.012 C 
ATOM      2  C   UNL     1      32.751 -23.238 -14.558  0.00  0.00    +0.130 C 
ATOM      3  C   UNL     1      32.270 -23.105 -16.922  0.00  0.00    -0.001 C 
ATOM      4  C   UNL     1      34.110 -23.375 -14.843  0.00  0.00    +0.036 C 
ATOM      5  C   UNL     1      33.629 -23.242 -17.206  0.00  0.00    -0.000 C 
ATOM      6  C   UNL     1      34.549 -23.377 -16.167  0.00  0.00    +0.003 C 
ENDROOT
BRANCH   2   7
ATOM      7  O   UNL     1      32.340 -23.237 -13.259  0.00  0.00    -0.506 OA
ATOM      8  H   UNL     1      32.456 -22.472 -12.732  0.00  0.00    +0.292 HD
ENDBRANCH   2   7
BRANCH   1   9
ATOM      9  C   UNL     1      30.359 -22.952 -15.310  0.00  0.00    +0.040 C 
BRANCH   9  10
ATOM     10  C   UNL     1      29.489 -24.036 -15.967  0.00  0.00    +0.103 C 
ATOM     11  C   UNL     1      28.818 -24.949 -14.938  0.00  0.00    +0.012 C 
BRANCH  10  13
ATOM     12  O   UNL     1      27.631 -23.957 -17.544  0.00  0.00    -0.250 OA
ATOM     13  C   UNL     1      28.431 -23.366 -16.829  0.00  0.00    +0.314 C 
BRANCH  13  14
ATOM     14  O   UNL     1      28.453 -22.013 -16.708  0.00  0.00    -0.480 OA
ATOM     15  H   UNL     1      27.986 -21.597 -16.011  0.00  0.00    +0.295 HD
ENDBRANCH  13  14
ENDBRANCH  10  13
ENDBRANCH   9  10
ENDBRANCH   1   9
TORSDOF 5
ENDMDL
MODEL 6
REMARK VINA RESULT:      -6.9      2.848      4.586
REMARK  Name = 17754112
REMARK  5 active torsions:
REMARK  status: ('A' for Active; 'I' for Inactive)
REMARK    1  A    between atoms: C_1  and  C_9
REMARK    2  A    between atoms: C_2  and  O_7
REMARK    3  A    between atoms: C_9  and  C_10
REMARK    4  A    between atoms: C_10  and  C_13
REMARK    5  A    between atoms: C_13  and  O_14
REMARK                            x       y       z     vdW  Elec       q    Type
REMARK                         _______ _______ _______ _____ _____    ______ ____
ROOT
ATOM      1  C   UNL     1      34.606 -16.882 -21.850  0.00  0.00    +0.012 C 
ATOM      2  C   UNL     1      35.224 -17.087 -23.084  0.00  0.00    +0.130 C 
ATOM      3  C   UNL     1      34.123 -17.970 -21.123  0.00  0.00    -0.001 C 
ATOM      4  C   UNL     1      35.358 -18.380 -23.590  0.00  0.00    +0.036 C 
ATOM      5  C   UNL     1      34.258 -19.263 -21.629  0.00  0.00    -0.000 C 
ATOM      6  C   UNL     1      34.875 -19.468 -22.862  0.00  0.00    +0.003 C 
ENDROOT
BRANCH   2   7
ATOM      7  O   UNL     1      35.700 -16.036 -23.808  0.00  0.00    -0.506 OA
ATOM      8  H   UNL     1      35.617 -15.163 -23.477  0.00  0.00    +0.292 HD
ENDBRANCH   2   7
BRANCH   1   9
ATOM      9  C   UNL     1      34.451 -15.492 -21.287  0.00  0.00    +0.040 C 
BRANCH   9  10
ATOM     10  C   UNL     1      33.053 -14.891 -21.506  0.00  0.00    +0.103 C 
ATOM     11  C   UNL     1      32.504 -14.216 -20.247  0.00  0.00    +0.012 C 
BRANCH  10  13
ATOM     12  O   UNL     1      34.117 -13.644 -23.311  0.00  0.00    -0.250 OA
ATOM     13  C   UNL     1      33.119 -13.885 -22.644  0.00  0.00    +0.314 C 
BRANCH  13  14
ATOM     14  O   UNL     1      31.923 -13.277 -22.860  0.00  0.00    -0.480 OA
ATOM     15  H   UNL     1      31.190 -13.475 -22.311  0.00  0.00    +0.295 HD
ENDBRANCH  13  14
ENDBRANCH  10  13
ENDBRANCH   9  10
ENDBRANCH   1   9
TORSDOF 5
ENDMDL
MODEL 7
REMARK VINA RESULT:      -6.9      1.926      5.112
REMARK  Name = 17754112
REMARK  5 active torsions:
REMARK  status: ('A' for Active; 'I' for Inactive)
REMARK    1  A    between atoms: C_1  and  C_9
REMARK    2  A    between atoms: C_2  and  O_7
REMARK    3  A    between atoms: C_9  and  C_10
REMARK    4  A    between atoms: C_10  and  C_13
REMARK    5  A    between atoms: C_13  and  O_14
REMARK                            x       y       z     vdW  Elec       q    Type
REMARK                         _______ _______ _______ _____ _____    ______ ____
ROOT
ATOM      1  C   UNL     1      35.049 -18.662 -21.878  0.00  0.00    +0.012 C 
ATOM      2  C   UNL     1      34.955 -18.565 -23.266  0.00  0.00    +0.130 C 
ATOM      3  C   UNL     1      35.020 -17.508 -21.095  0.00  0.00    -0.001 C 
ATOM      4  C   UNL     1      34.832 -17.313 -23.871  0.00  0.00    +0.036 C 
ATOM      5  C   UNL     1      34.897 -16.257 -21.699  0.00  0.00    -0.000 C 
ATOM      6  C   UNL     1      34.803 -16.160 -23.087  0.00  0.00    +0.003 C 
ENDROOT
BRANCH   2   7
ATOM      7  O   UNL     1      34.982 -19.681 -24.046  0.00  0.00    -0.506 OA
ATOM      8  H   UNL     1      34.766 -20.515 -23.679  0.00  0.00    +0.292 HD
ENDBRANCH   2   7
BRANCH   1   9
ATOM      9  C   UNL     1      35.183 -20.006 -21.207  0.00  0.00    +0.040 C 
BRANCH   9  10
ATOM     10  C   UNL     1      34.098 -20.279 -20.153  0.00  0.00    +0.103 C 
ATOM     11  C   UNL     1      32.685 -20.065 -20.701  0.00  0.00    +0.012 C 
BRANCH  10  13
ATOM     12  O   UNL     1      35.312 -22.283 -19.479  0.00  0.00    -0.250 OA
ATOM     13  C   UNL     1      34.245 -21.705 -19.648  0.00  0.00    +0.314 C 
BRANCH  13  14
ATOM     14  O   UNL     1      33.044 -22.281 -19.383  0.00  0.00    -0.480 OA
ATOM     15  H   UNL     1      32.325 -22.158 -19.970  0.00  0.00    +0.295 HD
ENDBRANCH  13  14
ENDBRANCH  10  13
ENDBRANCH   9  10
ENDBRANCH   1   9
TORSDOF 5
ENDMDL
MODEL 8
REMARK VINA RESULT:      -6.9      2.639      4.359
REMARK  Name = 17754112
REMARK  5 active torsions:
REMARK  status: ('A' for Active; 'I' for Inactive)
REMARK    1  A    between atoms: C_1  and  C_9
REMARK    2  A    between atoms: C_2  and  O_7
REMARK    3  A    between atoms: C_9  and  C_10
REMARK    4  A    between atoms: C_10  and  C_13
REMARK    5  A    between atoms: C_13  and  O_14
REMARK                            x       y       z     vdW  Elec       q    Type
REMARK                         _______ _______ _______ _____ _____    ______ ____
ROOT
ATOM      1  C   UNL     1      34.902 -16.950 -23.009  0.00  0.00    +0.012 C 
ATOM      2  C   UNL     1      34.959 -17.097 -21.623  0.00  0.00    +0.130 C 
ATOM      3  C   UNL     1      34.856 -18.078 -23.829  0.00  0.00    -0.001 C 
ATOM      4  C   UNL     1      34.968 -18.372 -21.057  0.00  0.00    +0.036 C 
ATOM      5  C   UNL     1      34.865 -19.353 -23.262  0.00  0.00    -0.000 C 
ATOM      6  C   UNL     1      34.921 -19.500 -21.877  0.00  0.00    +0.003 C 
ENDROOT
BRANCH   2   7
ATOM      7  O   UNL     1      35.006 -16.006 -20.808  0.00  0.00    -0.506 OA
ATOM      8  H   UNL     1      34.715 -16.072 -19.921  0.00  0.00    +0.292 HD
ENDBRANCH   2   7
BRANCH   1   9
ATOM      9  C   UNL     1      34.892 -15.580 -23.639  0.00  0.00    +0.040 C 
BRANCH   9  10
ATOM     10  C   UNL     1      33.485 -15.083 -24.011  0.00  0.00    +0.103 C 
ATOM     11  C   UNL     1      33.216 -13.663 -23.507  0.00  0.00    +0.012 C 
BRANCH  10  13
ATOM     12  O   UNL     1      33.989 -15.834 -26.275  0.00  0.00    -0.250 OA
ATOM     13  C   UNL     1      33.325 -15.134 -25.522  0.00  0.00    +0.314 C 
BRANCH  13  14
ATOM     14  O   UNL     1      32.334 -14.314 -25.959  0.00  0.00    -0.480 OA
ATOM     15  H   UNL     1      32.126 -13.535 -25.482  0.00  0.00    +0.295 HD
ENDBRANCH  13  14
ENDBRANCH  10  13
ENDBRANCH   9  10
ENDBRANCH   1   9
TORSDOF 5
ENDMDL
MODEL 9
REMARK VINA RESULT:      -6.9      2.238      5.539
REMARK  Name = 17754112
REMARK  5 active torsions:
REMARK  status: ('A' for Active; 'I' for Inactive)
REMARK    1  A    between atoms: C_1  and  C_9
REMARK    2  A    between atoms: C_2  and  O_7
REMARK    3  A    between atoms: C_9  and  C_10
REMARK    4  A    between atoms: C_10  and  C_13
REMARK    5  A    between atoms: C_13  and  O_14
REMARK                            x       y       z     vdW  Elec       q    Type
REMARK                         _______ _______ _______ _____ _____    ______ ____
ROOT
ATOM      1  C   UNL     1      34.359 -16.251 -21.652  0.00  0.00    +0.012 C 
ATOM      2  C   UNL     1      34.691 -15.579 -22.828  0.00  0.00    +0.130 C 
ATOM      3  C   UNL     1      33.337 -15.765 -20.837  0.00  0.00    -0.001 C 
ATOM      4  C   UNL     1      34.000 -14.421 -23.189  0.00  0.00    +0.036 C 
ATOM      5  C   UNL     1      32.646 -14.609 -21.197  0.00  0.00    -0.000 C 
ATOM      6  C   UNL     1      32.978 -13.937 -22.373  0.00  0.00    +0.003 C 
ENDROOT
BRANCH   2   7
ATOM      7  O   UNL     1      35.688 -16.039 -23.636  0.00  0.00    -0.506 OA
ATOM      8  H   UNL     1      36.262 -16.713 -23.333  0.00  0.00    +0.292 HD
ENDBRANCH   2   7
BRANCH   1   9
ATOM      9  C   UNL     1      35.095 -17.503 -21.245  0.00  0.00    +0.040 C 
BRANCH   9  10
ATOM     10  C   UNL     1      34.371 -18.799 -21.642  0.00  0.00    +0.103 C 
ATOM     11  C   UNL     1      34.772 -19.288 -23.036  0.00  0.00    +0.012 C 
BRANCH  10  13
ATOM     12  O   UNL     1      33.879 -20.711 -20.210  0.00  0.00    -0.250 OA
ATOM     13  C   UNL     1      34.678 -19.874 -20.611  0.00  0.00    +0.314 C 
BRANCH  13  14
ATOM     14  O   UNL     1      35.966 -19.818 -20.182  0.00  0.00    -0.480 OA
ATOM     15  H   UNL     1      36.296 -20.477 -19.603  0.00  0.00    +0.295 HD
ENDBRANCH  13  14
ENDBRANCH  10  13
ENDBRANCH   9  10
ENDBRANCH   1   9
TORSDOF 5
ENDMDL
