MODEL 1
REMARK VINA RESULT:      -9.4      0.000      0.000
REMARK  Name = 5310985
REMARK  4 active torsions:
REMARK  status: ('A' for Active; 'I' for Inactive)
REMARK    1  A    between atoms: C_6  and  C_9
REMARK    2  A    between atoms: C_7  and  C_14
REMARK    3  A    between atoms: C_15  and  O_20
REMARK    4  A    between atoms: C_19  and  O_22
REMARK                            x       y       z     vdW  Elec       q    Type
REMARK                         _______ _______ _______ _____ _____    ______ ____
ROOT
ATOM      1  N   UNL     1      33.232  -8.750 -23.293  0.00  0.00    -0.271 NA
ATOM      2  C   UNL     1      34.332 -11.035 -24.761  0.00  0.00    +0.030 C 
ATOM      3  C   UNL     1      35.037  -9.687 -24.693  0.00  0.00    +0.031 C 
ATOM      4  C   UNL     1      33.387 -11.210 -23.605  0.00  0.00    -0.005 C 
ATOM      5  C   UNL     1      34.008  -8.581 -24.522  0.00  0.00    +0.126 C 
ATOM      6  C   UNL     1      32.963  -9.949 -22.900  0.00  0.00    +0.073 C 
ATOM      7  C   UNL     1      32.952 -12.429 -23.253  0.00  0.00    +0.000 C 
ENDROOT
BRANCH   6   9
ATOM      8  N   UNL     1      31.770  -9.301 -19.406  0.00  0.00    -0.242 NA
ATOM      9  C   UNL     1      32.188 -10.074 -21.647  0.00  0.00    +0.036 C 
ATOM     10  C   UNL     1      31.197 -11.032 -21.524  0.00  0.00    +0.005 C 
ATOM     11  C   UNL     1      32.439  -9.238 -20.579  0.00  0.00    +0.100 C 
ATOM     12  C   UNL     1      30.486 -11.128 -20.333  0.00  0.00    +0.021 C 
ATOM     13  C   UNL     1      30.807 -10.246 -19.314  0.00  0.00    +0.099 C 
ENDBRANCH   6   9
BRANCH   7  14
ATOM     14  C   UNL     1      33.337 -13.645 -23.902  0.00  0.00    +0.034 C 
ATOM     15  C   UNL     1      34.142 -14.608 -23.263  0.00  0.00    +0.142 C 
ATOM     16  C   UNL     1      32.907 -13.903 -25.217  0.00  0.00    +0.006 C 
ATOM     17  C   UNL     1      34.505 -15.785 -23.917  0.00  0.00    +0.074 C 
ATOM     18  C   UNL     1      33.269 -15.081 -25.871  0.00  0.00    +0.037 C 
ATOM     19  C   UNL     1      34.068 -16.023 -25.221  0.00  0.00    +0.142 C 
BRANCH  15  20
ATOM     20  O   UNL     1      34.583 -14.401 -21.989  0.00  0.00    -0.471 OA
ATOM     21  C   UNL     1      34.628 -15.537 -21.129  0.00  0.00    +0.252 C 
ENDBRANCH  15  20
BRANCH  19  22
ATOM     22  O   UNL     1      34.421 -17.171 -25.859  0.00  0.00    -0.471 OA
ATOM     23  C   UNL     1      34.458 -18.365 -25.079  0.00  0.00    +0.252 C 
ENDBRANCH  19  22
ENDBRANCH   7  14
TORSDOF 4
ENDMDL
MODEL 2
REMARK VINA RESULT:      -9.0      3.197      6.364
REMARK  Name = 5310985
REMARK  4 active torsions:
REMARK  status: ('A' for Active; 'I' for Inactive)
REMARK    1  A    between atoms: C_6  and  C_9
REMARK    2  A    between atoms: C_7  and  C_14
REMARK    3  A    between atoms: C_15  and  O_20
REMARK    4  A    between atoms: C_19  and  O_22
REMARK                            x       y       z     vdW  Elec       q    Type
REMARK                         _______ _______ _______ _____ _____    ______ ____
ROOT
ATOM      1  N   UNL     1      33.503 -15.323 -25.258  0.00  0.00    -0.271 NA
ATOM      2  C   UNL     1      33.270 -12.477 -25.919  0.00  0.00    +0.030 C 
ATOM      3  C   UNL     1      32.602 -13.568 -26.744  0.00  0.00    +0.031 C 
ATOM      4  C   UNL     1      33.549 -12.950 -24.519  0.00  0.00    -0.005 C 
ATOM      5  C   UNL     1      33.408 -14.853 -26.641  0.00  0.00    +0.126 C 
ATOM      6  C   UNL     1      33.567 -14.442 -24.317  0.00  0.00    +0.073 C 
ATOM      7  C   UNL     1      33.778 -12.073 -23.531  0.00  0.00    +0.000 C 
ENDROOT
BRANCH   6   9
ATOM      8  N   UNL     1      34.879 -16.192 -21.273  0.00  0.00    -0.242 NA
ATOM      9  C   UNL     1      33.648 -14.959 -22.935  0.00  0.00    +0.036 C 
ATOM     10  C   UNL     1      32.627 -14.720 -22.031  0.00  0.00    +0.005 C 
ATOM     11  C   UNL     1      34.743 -15.690 -22.520  0.00  0.00    +0.100 C 
ATOM     12  C   UNL     1      32.731 -15.220 -20.738  0.00  0.00    +0.021 C 
ATOM     13  C   UNL     1      33.867 -15.943 -20.412  0.00  0.00    +0.099 C 
ENDBRANCH   6   9
BRANCH   7  14
ATOM     14  C   UNL     1      33.766 -10.651 -23.692  0.00  0.00    +0.034 C 
ATOM     15  C   UNL     1      32.709  -9.855 -23.212  0.00  0.00    +0.142 C 
ATOM     16  C   UNL     1      34.836 -10.012 -24.346  0.00  0.00    +0.006 C 
ATOM     17  C   UNL     1      32.720  -8.470 -23.382  0.00  0.00    +0.074 C 
ATOM     18  C   UNL     1      34.849  -8.627 -24.515  0.00  0.00    +0.037 C 
ATOM     19  C   UNL     1      33.790  -7.856 -24.033  0.00  0.00    +0.142 C 
BRANCH  15  20
ATOM     20  O   UNL     1      31.650 -10.429 -22.572  0.00  0.00    -0.471 OA
ATOM     21  C   UNL     1      31.546 -10.205 -21.168  0.00  0.00    +0.252 C 
ENDBRANCH  15  20
BRANCH  19  22
ATOM     22  O   UNL     1      33.803  -6.505 -24.198  0.00  0.00    -0.471 OA
ATOM     23  C   UNL     1      32.595  -5.893 -24.647  0.00  0.00    +0.252 C 
ENDBRANCH  19  22
ENDBRANCH   7  14
TORSDOF 4
ENDMDL
MODEL 3
REMARK VINA RESULT:      -8.9      2.133      4.862
REMARK  Name = 5310985
REMARK  4 active torsions:
REMARK  status: ('A' for Active; 'I' for Inactive)
REMARK    1  A    between atoms: C_6  and  C_9
REMARK    2  A    between atoms: C_7  and  C_14
REMARK    3  A    between atoms: C_15  and  O_20
REMARK    4  A    between atoms: C_19  and  O_22
REMARK                            x       y       z     vdW  Elec       q    Type
REMARK                         _______ _______ _______ _____ _____    ______ ____
ROOT
ATOM      1  N   UNL     1      32.582 -10.562 -23.227  0.00  0.00    -0.271 NA
ATOM      2  C   UNL     1      32.489 -13.092 -21.749  0.00  0.00    +0.030 C 
ATOM      3  C   UNL     1      31.307 -12.134 -21.812  0.00  0.00    +0.031 C 
ATOM      4  C   UNL     1      33.418 -12.882 -22.912  0.00  0.00    -0.005 C 
ATOM      5  C   UNL     1      31.811 -10.711 -21.991  0.00  0.00    +0.126 C 
ATOM      6  C   UNL     1      33.302 -11.558 -23.621  0.00  0.00    +0.073 C 
ATOM      7  C   UNL     1      34.299 -13.829 -23.267  0.00  0.00    +0.000 C 
ENDROOT
BRANCH   6   9
ATOM      8  N   UNL     1      34.422 -12.022 -27.168  0.00  0.00    -0.242 NA
ATOM      9  C   UNL     1      34.054 -11.370 -24.880  0.00  0.00    +0.036 C 
ATOM     10  C   UNL     1      35.054 -10.417 -24.968  0.00  0.00    +0.005 C 
ATOM     11  C   UNL     1      33.773 -12.142 -25.989  0.00  0.00    +0.100 C 
ATOM     12  C   UNL     1      35.745 -10.264 -26.165  0.00  0.00    +0.021 C 
ATOM     13  C   UNL     1      35.394 -11.084 -27.226  0.00  0.00    +0.099 C 
ENDBRANCH   6   9
BRANCH   7  14
ATOM     14  C   UNL     1      34.432 -15.096 -22.615  0.00  0.00    +0.034 C 
ATOM     15  C   UNL     1      34.403 -16.309 -23.329  0.00  0.00    +0.142 C 
ATOM     16  C   UNL     1      34.598 -15.150 -21.218  0.00  0.00    +0.006 C 
ATOM     17  C   UNL     1      34.534 -17.531 -22.670  0.00  0.00    +0.074 C 
ATOM     18  C   UNL     1      34.731 -16.372 -20.559  0.00  0.00    +0.037 C 
ATOM     19  C   UNL     1      34.699 -17.563 -21.285  0.00  0.00    +0.142 C 
BRANCH  15  20
ATOM     20  O   UNL     1      34.243 -16.307 -24.683  0.00  0.00    -0.471 OA
ATOM     21  C   UNL     1      34.483 -17.536 -25.364  0.00  0.00    +0.252 C 
ENDBRANCH  15  20
BRANCH  19  22
ATOM     22  O   UNL     1      34.828 -18.755 -20.641  0.00  0.00    -0.471 OA
ATOM     23  C   UNL     1      33.866 -19.765 -20.942  0.00  0.00    +0.252 C 
ENDBRANCH  19  22
ENDBRANCH   7  14
TORSDOF 4
ENDMDL
MODEL 4
REMARK VINA RESULT:      -8.8      1.214      3.355
REMARK  Name = 5310985
REMARK  4 active torsions:
REMARK  status: ('A' for Active; 'I' for Inactive)
REMARK    1  A    between atoms: C_6  and  C_9
REMARK    2  A    between atoms: C_7  and  C_14
REMARK    3  A    between atoms: C_15  and  O_20
REMARK    4  A    between atoms: C_19  and  O_22
REMARK                            x       y       z     vdW  Elec       q    Type
REMARK                         _______ _______ _______ _____ _____    ______ ____
ROOT
ATOM      1  N   UNL     1      31.811  -9.466 -21.081  0.00  0.00    -0.271 NA
ATOM      2  C   UNL     1      31.754 -12.274 -21.919  0.00  0.00    +0.030 C 
ATOM      3  C   UNL     1      30.649 -11.646 -21.080  0.00  0.00    +0.031 C 
ATOM      4  C   UNL     1      32.511 -11.227 -22.689  0.00  0.00    -0.005 C 
ATOM      5  C   UNL     1      31.225 -10.514 -20.243  0.00  0.00    +0.126 C 
ATOM      6  C   UNL     1      32.388  -9.815 -22.181  0.00  0.00    +0.073 C 
ATOM      7  C   UNL     1      33.256 -11.562 -23.753  0.00  0.00    +0.000 C 
ENDROOT
BRANCH   6   9
ATOM      8  N   UNL     1      32.580  -6.804 -24.406  0.00  0.00    -0.242 NA
ATOM      9  C   UNL     1      32.954  -8.724 -23.003  0.00  0.00    +0.036 C 
ATOM     10  C   UNL     1      34.324  -8.589 -23.148  0.00  0.00    +0.005 C 
ATOM     11  C   UNL     1      32.128  -7.821 -23.639  0.00  0.00    +0.100 C 
ATOM     12  C   UNL     1      34.828  -7.555 -23.928  0.00  0.00    +0.021 C 
ATOM     13  C   UNL     1      33.922  -6.696 -24.530  0.00  0.00    +0.099 C 
ENDBRANCH   6   9
BRANCH   7  14
ATOM     14  C   UNL     1      33.392 -12.893 -24.259  0.00  0.00    +0.034 C 
ATOM     15  C   UNL     1      34.018 -13.913 -23.517  0.00  0.00    +0.142 C 
ATOM     16  C   UNL     1      32.890 -13.212 -25.535  0.00  0.00    +0.006 C 
ATOM     17  C   UNL     1      34.139 -15.204 -24.032  0.00  0.00    +0.074 C 
ATOM     18  C   UNL     1      33.009 -14.502 -26.050  0.00  0.00    +0.037 C 
ATOM     19  C   UNL     1      33.634 -15.499 -25.299  0.00  0.00    +0.142 C 
BRANCH  15  20
ATOM     20  O   UNL     1      34.520 -13.652 -22.276  0.00  0.00    -0.471 OA
ATOM     21  C   UNL     1      34.515 -14.725 -21.338  0.00  0.00    +0.252 C 
ENDBRANCH  15  20
BRANCH  19  22
ATOM     22  O   UNL     1      33.750 -16.757 -25.803  0.00  0.00    -0.471 OA
ATOM     23  C   UNL     1      34.487 -17.703 -25.028  0.00  0.00    +0.252 C 
ENDBRANCH  19  22
ENDBRANCH   7  14
TORSDOF 4
ENDMDL
MODEL 5
REMARK VINA RESULT:      -8.8      9.940     13.431
REMARK  Name = 5310985
REMARK  4 active torsions:
REMARK  status: ('A' for Active; 'I' for Inactive)
REMARK    1  A    between atoms: C_6  and  C_9
REMARK    2  A    between atoms: C_7  and  C_14
REMARK    3  A    between atoms: C_15  and  O_20
REMARK    4  A    between atoms: C_19  and  O_22
REMARK                            x       y       z     vdW  Elec       q    Type
REMARK                         _______ _______ _______ _____ _____    ______ ____
ROOT
ATOM      1  N   UNL     1      32.748 -24.713 -14.249  0.00  0.00    -0.271 NA
ATOM      2  C   UNL     1      32.228 -22.907 -16.498  0.00  0.00    +0.030 C 
ATOM      3  C   UNL     1      31.321 -22.980 -15.278  0.00  0.00    +0.031 C 
ATOM      4  C   UNL     1      33.611 -23.399 -16.174  0.00  0.00    -0.005 C 
ATOM      5  C   UNL     1      31.388 -24.373 -14.673  0.00  0.00    +0.126 C 
ATOM      6  C   UNL     1      33.736 -24.261 -14.945  0.00  0.00    +0.073 C 
ATOM      7  C   UNL     1      34.653 -23.085 -16.958  0.00  0.00    +0.000 C 
ENDROOT
BRANCH   6   9
ATOM      8  N   UNL     1      36.946 -24.146 -13.013  0.00  0.00    -0.242 NA
ATOM      9  C   UNL     1      35.091 -24.616 -14.474  0.00  0.00    +0.036 C 
ATOM     10  C   UNL     1      35.764 -25.698 -15.015  0.00  0.00    +0.005 C 
ATOM     11  C   UNL     1      35.709 -23.876 -13.487  0.00  0.00    +0.100 C 
ATOM     12  C   UNL     1      37.039 -26.008 -14.553  0.00  0.00    +0.021 C 
ATOM     13  C   UNL     1      37.580 -25.208 -13.560  0.00  0.00    +0.099 C 
ENDBRANCH   6   9
BRANCH   7  14
ATOM     14  C   UNL     1      34.567 -22.268 -18.130  0.00  0.00    +0.034 C 
ATOM     15  C   UNL     1      35.706 -21.686 -18.718  0.00  0.00    +0.142 C 
ATOM     16  C   UNL     1      33.314 -22.029 -18.726  0.00  0.00    +0.006 C 
ATOM     17  C   UNL     1      35.596 -20.893 -19.861  0.00  0.00    +0.074 C 
ATOM     18  C   UNL     1      33.204 -21.238 -19.869  0.00  0.00    +0.037 C 
ATOM     19  C   UNL     1      34.345 -20.669 -20.437  0.00  0.00    +0.142 C 
BRANCH  15  20
ATOM     20  O   UNL     1      36.940 -21.889 -18.176  0.00  0.00    -0.471 OA
ATOM     21  C   UNL     1      37.221 -21.229 -16.944  0.00  0.00    +0.252 C 
ENDBRANCH  15  20
BRANCH  19  22
ATOM     22  O   UNL     1      34.237 -19.896 -21.551  0.00  0.00    -0.471 OA
ATOM     23  C   UNL     1      35.268 -18.938 -21.782  0.00  0.00    +0.252 C 
ENDBRANCH  19  22
ENDBRANCH   7  14
TORSDOF 4
ENDMDL
MODEL 6
REMARK VINA RESULT:      -8.7     11.874     14.330
REMARK  Name = 5310985
REMARK  4 active torsions:
REMARK  status: ('A' for Active; 'I' for Inactive)
REMARK    1  A    between atoms: C_6  and  C_9
REMARK    2  A    between atoms: C_7  and  C_14
REMARK    3  A    between atoms: C_15  and  O_20
REMARK    4  A    between atoms: C_19  and  O_22
REMARK                            x       y       z     vdW  Elec       q    Type
REMARK                         _______ _______ _______ _____ _____    ______ ____
ROOT
ATOM      1  N   UNL     1      35.952 -22.648 -17.338  0.00  0.00    -0.271 NA
ATOM      2  C   UNL     1      33.089 -22.633 -17.965  0.00  0.00    +0.030 C 
ATOM      3  C   UNL     1      34.164 -22.704 -19.041  0.00  0.00    +0.031 C 
ATOM      4  C   UNL     1      33.614 -23.121 -16.643  0.00  0.00    -0.005 C 
ATOM      5  C   UNL     1      35.426 -22.014 -18.549  0.00  0.00    +0.126 C 
ATOM      6  C   UNL     1      35.112 -23.140 -16.492  0.00  0.00    +0.073 C 
ATOM      7  C   UNL     1      32.773 -23.498 -15.668  0.00  0.00    +0.000 C 
ENDROOT
BRANCH   6   9
ATOM      8  N   UNL     1      36.455 -23.574 -13.019  0.00  0.00    -0.242 NA
ATOM      9  C   UNL     1      35.685 -23.783 -15.291  0.00  0.00    +0.036 C 
ATOM     10  C   UNL     1      35.986 -25.134 -15.290  0.00  0.00    +0.005 C 
ATOM     11  C   UNL     1      35.931 -23.048 -14.149  0.00  0.00    +0.100 C 
ATOM     12  C   UNL     1      36.526 -25.712 -14.146  0.00  0.00    +0.021 C 
ATOM     13  C   UNL     1      36.739 -24.895 -13.047  0.00  0.00    +0.099 C 
ENDBRANCH   6   9
BRANCH   7  14
ATOM     14  C   UNL     1      31.347 -23.493 -15.782  0.00  0.00    +0.034 C 
ATOM     15  C   UNL     1      30.547 -24.489 -15.189  0.00  0.00    +0.142 C 
ATOM     16  C   UNL     1      30.706 -22.468 -16.503  0.00  0.00    +0.006 C 
ATOM     17  C   UNL     1      29.158 -24.462 -15.315  0.00  0.00    +0.074 C 
ATOM     18  C   UNL     1      29.317 -22.439 -16.628  0.00  0.00    +0.037 C 
ATOM     19  C   UNL     1      28.543 -23.437 -16.034  0.00  0.00    +0.142 C 
BRANCH  15  20
ATOM     20  O   UNL     1      31.123 -25.502 -14.481  0.00  0.00    -0.471 OA
ATOM     21  C   UNL     1      31.410 -25.249 -13.108  0.00  0.00    +0.252 C 
ENDBRANCH  15  20
BRANCH  19  22
ATOM     22  O   UNL     1      27.188 -23.409 -16.157  0.00  0.00    -0.471 OA
ATOM     23  C   UNL     1      26.542 -22.153 -15.957  0.00  0.00    +0.252 C 
ENDBRANCH  19  22
ENDBRANCH   7  14
TORSDOF 4
ENDMDL
MODEL 7
REMARK VINA RESULT:      -8.5     12.126     14.919
REMARK  Name = 5310985
REMARK  4 active torsions:
REMARK  status: ('A' for Active; 'I' for Inactive)
REMARK    1  A    between atoms: C_6  and  C_9
REMARK    2  A    between atoms: C_7  and  C_14
REMARK    3  A    between atoms: C_15  and  O_20
REMARK    4  A    between atoms: C_19  and  O_22
REMARK                            x       y       z     vdW  Elec       q    Type
REMARK                         _______ _______ _______ _____ _____    ______ ____
ROOT
ATOM      1  N   UNL     1      32.626 -22.804 -17.356  0.00  0.00    -0.271 NA
ATOM      2  C   UNL     1      35.459 -23.355 -16.850  0.00  0.00    +0.030 C 
ATOM      3  C   UNL     1      34.990 -22.172 -17.686  0.00  0.00    +0.031 C 
ATOM      4  C   UNL     1      34.377 -23.821 -15.915  0.00  0.00    -0.005 C 
ATOM      5  C   UNL     1      33.662 -22.508 -18.346  0.00  0.00    +0.126 C 
ATOM      6  C   UNL     1      32.975 -23.399 -16.266  0.00  0.00    +0.073 C 
ATOM      7  C   UNL     1      34.671 -24.577 -14.848  0.00  0.00    +0.000 C 
ENDROOT
BRANCH   6   9
ATOM      8  N   UNL     1      31.085 -23.482 -13.029  0.00  0.00    -0.242 NA
ATOM      9  C   UNL     1      31.899 -23.667 -15.287  0.00  0.00    +0.036 C 
ATOM     10  C   UNL     1      30.743 -24.323 -15.673  0.00  0.00    +0.005 C 
ATOM     11  C   UNL     1      32.029 -23.267 -13.973  0.00  0.00    +0.100 C 
ATOM     12  C   UNL     1      29.749 -24.562 -14.730  0.00  0.00    +0.021 C 
ATOM     13  C   UNL     1      29.967 -24.125 -13.434  0.00  0.00    +0.099 C 
ENDBRANCH   6   9
BRANCH   7  14
ATOM     14  C   UNL     1      35.993 -24.992 -14.489  0.00  0.00    +0.034 C 
ATOM     15  C   UNL     1      36.739 -24.329 -13.495  0.00  0.00    +0.142 C 
ATOM     16  C   UNL     1      36.581 -26.094 -15.138  0.00  0.00    +0.006 C 
ATOM     17  C   UNL     1      38.026 -24.752 -13.163  0.00  0.00    +0.074 C 
ATOM     18  C   UNL     1      37.867 -26.519 -14.805  0.00  0.00    +0.037 C 
ATOM     19  C   UNL     1      38.590 -25.848 -13.818  0.00  0.00    +0.142 C 
BRANCH  15  20
ATOM     20  O   UNL     1      36.211 -23.256 -12.840  0.00  0.00    -0.471 OA
ATOM     21  C   UNL     1      36.780 -22.927 -11.576  0.00  0.00    +0.252 C 
ENDBRANCH  15  20
BRANCH  19  22
ATOM     22  O   UNL     1      39.845 -26.262 -13.494  0.00  0.00    -0.471 OA
ATOM     23  C   UNL     1      40.827 -26.232 -14.529  0.00  0.00    +0.252 C 
ENDBRANCH  19  22
ENDBRANCH   7  14
TORSDOF 4
ENDMDL
MODEL 8
REMARK VINA RESULT:      -8.4      3.436      7.067
REMARK  Name = 5310985
REMARK  4 active torsions:
REMARK  status: ('A' for Active; 'I' for Inactive)
REMARK    1  A    between atoms: C_6  and  C_9
REMARK    2  A    between atoms: C_7  and  C_14
REMARK    3  A    between atoms: C_15  and  O_20
REMARK    4  A    between atoms: C_19  and  O_22
REMARK                            x       y       z     vdW  Elec       q    Type
REMARK                         _______ _______ _______ _____ _____    ______ ____
ROOT
ATOM      1  N   UNL     1      31.606 -11.908 -20.019  0.00  0.00    -0.271 NA
ATOM      2  C   UNL     1      31.792  -9.076 -20.749  0.00  0.00    +0.030 C 
ATOM      3  C   UNL     1      31.979  -9.568 -19.321  0.00  0.00    +0.031 C 
ATOM      4  C   UNL     1      32.061 -10.175 -21.741  0.00  0.00    -0.005 C 
ATOM      5  C   UNL     1      31.176 -10.842 -19.111  0.00  0.00    +0.126 C 
ATOM      6  C   UNL     1      32.000 -11.580 -21.203  0.00  0.00    +0.073 C 
ATOM      7  C   UNL     1      32.323  -9.891 -23.025  0.00  0.00    +0.000 C 
ENDROOT
BRANCH   6   9
ATOM      8  N   UNL     1      32.672 -15.054 -22.440  0.00  0.00    -0.242 NA
ATOM      9  C   UNL     1      32.437 -12.685 -22.082  0.00  0.00    +0.036 C 
ATOM     10  C   UNL     1      33.000 -12.421 -23.319  0.00  0.00    +0.005 C 
ATOM     11  C   UNL     1      32.292 -13.998 -21.686  0.00  0.00    +0.100 C 
ATOM     12  C   UNL     1      33.404 -13.481 -24.123  0.00  0.00    +0.021 C 
ATOM     13  C   UNL     1      33.219 -14.767 -23.642  0.00  0.00    +0.099 C 
ENDBRANCH   6   9
BRANCH   7  14
ATOM     14  C   UNL     1      32.389  -8.568 -23.565  0.00  0.00    +0.034 C 
ATOM     15  C   UNL     1      33.616  -7.941 -23.855  0.00  0.00    +0.142 C 
ATOM     16  C   UNL     1      31.201  -7.856 -23.821  0.00  0.00    +0.006 C 
ATOM     17  C   UNL     1      33.654  -6.649 -24.381  0.00  0.00    +0.074 C 
ATOM     18  C   UNL     1      31.239  -6.565 -24.348  0.00  0.00    +0.037 C 
ATOM     19  C   UNL     1      32.465  -5.961 -24.628  0.00  0.00    +0.142 C 
BRANCH  15  20
ATOM     20  O   UNL     1      34.792  -8.591 -23.623  0.00  0.00    -0.471 OA
ATOM     21  C   UNL     1      35.186  -9.574 -24.578  0.00  0.00    +0.252 C 
ENDBRANCH  15  20
BRANCH  19  22
ATOM     22  O   UNL     1      32.501  -4.702 -25.141  0.00  0.00    -0.471 OA
ATOM     23  C   UNL     1      31.300  -3.936 -25.070  0.00  0.00    +0.252 C 
ENDBRANCH  19  22
ENDBRANCH   7  14
TORSDOF 4
ENDMDL
MODEL 9
REMARK VINA RESULT:      -8.4      4.456      6.536
REMARK  Name = 5310985
REMARK  4 active torsions:
REMARK  status: ('A' for Active; 'I' for Inactive)
REMARK    1  A    between atoms: C_6  and  C_9
REMARK    2  A    between atoms: C_7  and  C_14
REMARK    3  A    between atoms: C_15  and  O_20
REMARK    4  A    between atoms: C_19  and  O_22
REMARK                            x       y       z     vdW  Elec       q    Type
REMARK                         _______ _______ _______ _____ _____    ______ ____
ROOT
ATOM      1  N   UNL     1      33.806 -15.806 -24.494  0.00  0.00    -0.271 NA
ATOM      2  C   UNL     1      34.586 -18.481 -23.584  0.00  0.00    +0.030 C 
ATOM      3  C   UNL     1      35.264 -17.783 -24.755  0.00  0.00    +0.031 C 
ATOM      4  C   UNL     1      33.930 -17.487 -22.667  0.00  0.00    -0.005 C 
ATOM      5  C   UNL     1      34.282 -16.834 -25.422  0.00  0.00    +0.126 C 
ATOM      6  C   UNL     1      33.654 -16.127 -23.254  0.00  0.00    +0.073 C 
ATOM      7  C   UNL     1      33.607 -17.822 -21.409  0.00  0.00    +0.000 C 
ENDROOT
BRANCH   6   9
ATOM      8  N   UNL     1      32.183 -12.883 -22.084  0.00  0.00    -0.242 NA
ATOM      9  C   UNL     1      33.185 -15.057 -22.348  0.00  0.00    +0.036 C 
ATOM     10  C   UNL     1      33.295 -15.196 -20.976  0.00  0.00    +0.005 C 
ATOM     11  C   UNL     1      32.630 -13.900 -22.855  0.00  0.00    +0.100 C 
ATOM     12  C   UNL     1      32.847 -14.172 -20.149  0.00  0.00    +0.021 C 
ATOM     13  C   UNL     1      32.304 -13.047 -20.748  0.00  0.00    +0.099 C 
ENDBRANCH   6   9
BRANCH   7  14
ATOM     14  C   UNL     1      33.856 -19.103 -20.824  0.00  0.00    +0.034 C 
ATOM     15  C   UNL     1      35.155 -19.526 -20.480  0.00  0.00    +0.142 C 
ATOM     16  C   UNL     1      32.784 -19.981 -20.576  0.00  0.00    +0.006 C 
ATOM     17  C   UNL     1      35.373 -20.781 -19.911  0.00  0.00    +0.074 C 
ATOM     18  C   UNL     1      33.001 -21.235 -20.006  0.00  0.00    +0.037 C 
ATOM     19  C   UNL     1      34.296 -21.635 -19.673  0.00  0.00    +0.142 C 
BRANCH  15  20
ATOM     20  O   UNL     1      36.225 -18.710 -20.701  0.00  0.00    -0.471 OA
ATOM     21  C   UNL     1      37.462 -19.341 -21.025  0.00  0.00    +0.252 C 
ENDBRANCH  15  20
BRANCH  19  22
ATOM     22  O   UNL     1      34.508 -22.859 -19.117  0.00  0.00    -0.471 OA
ATOM     23  C   UNL     1      33.681 -23.224 -18.013  0.00  0.00    +0.252 C 
ENDBRANCH  19  22
ENDBRANCH   7  14
TORSDOF 4
ENDMDL
