MODEL 1
REMARK VINA RESULT:     -12.7      0.000      0.000
REMARK  Name = 17753965
REMARK  2 active torsions:
REMARK  status: ('A' for Active; 'I' for Inactive)
REMARK    1  A    between atoms: C_1  and  C_5
REMARK    2  A    between atoms: C_1  and  C_17
REMARK                            x       y       z     vdW  Elec       q    Type
REMARK                         _______ _______ _______ _____ _____    ______ ____
ROOT
ATOM      1  C   UNL     1      34.108 -17.921 -21.174  0.00  0.00    +0.038 C 
ENDROOT
BRANCH   1   5
ATOM      2  O   UNL     1      34.188 -14.581 -22.194  0.00  0.00    -0.424 OA
ATOM      3  O   UNL     1      34.992 -18.170 -23.990  0.00  0.00    -0.291 OA
ATOM      4  O   UNL     1      35.021 -15.278 -20.201  0.00  0.00    -0.249 OA
ATOM      5  C   UNL     1      34.957 -16.916 -21.949  0.00  0.00    +0.162 C 
ATOM      6  C   UNL     1      34.719 -17.115 -23.425  0.00  0.00    +0.186 C 
ATOM      7  C   UNL     1      34.739 -15.542 -21.368  0.00  0.00    +0.328 C 
ATOM      8  C   UNL     1      34.126 -16.008 -24.181  0.00  0.00    +0.070 C 
ATOM      9  C   UNL     1      33.878 -14.804 -23.544  0.00  0.00    +0.151 C 
ATOM     10  C   UNL     1      33.805 -16.155 -25.534  0.00  0.00    +0.006 C 
ATOM     11  C   UNL     1      33.310 -13.734 -24.235  0.00  0.00    +0.038 C 
ATOM     12  C   UNL     1      33.235 -15.089 -26.232  0.00  0.00    +0.000 C 
ATOM     13  C   UNL     1      32.987 -13.879 -25.583  0.00  0.00    +0.003 C 
ENDBRANCH   1   5
BRANCH   1  17
ATOM     14  O   UNL     1      36.370 -20.272 -19.884  0.00  0.00    -0.424 OA
ATOM     15  O   UNL     1      32.472 -20.379 -21.135  0.00  0.00    -0.291 OA
ATOM     16  O   UNL     1      36.936 -18.724 -21.444  0.00  0.00    -0.249 OA
ATOM     17  C   UNL     1      34.622 -19.347 -21.368  0.00  0.00    +0.162 C 
ATOM     18  C   UNL     1      33.637 -20.308 -20.751  0.00  0.00    +0.186 C 
ATOM     19  C   UNL     1      36.062 -19.412 -20.921  0.00  0.00    +0.328 C 
ATOM     20  C   UNL     1      34.102 -21.164 -19.658  0.00  0.00    +0.070 C 
ATOM     21  C   UNL     1      35.430 -21.109 -19.266  0.00  0.00    +0.151 C 
ATOM     22  C   UNL     1      33.222 -22.032 -19.003  0.00  0.00    +0.006 C 
ATOM     23  C   UNL     1      35.901 -21.908 -18.223  0.00  0.00    +0.038 C 
ATOM     24  C   UNL     1      33.688 -22.835 -17.959  0.00  0.00    +0.000 C 
ATOM     25  C   UNL     1      35.025 -22.773 -17.569  0.00  0.00    +0.003 C 
ENDBRANCH   1  17
TORSDOF 2
ENDMDL
MODEL 2
REMARK VINA RESULT:     -12.1      3.570      6.362
REMARK  Name = 17753965
REMARK  2 active torsions:
REMARK  status: ('A' for Active; 'I' for Inactive)
REMARK    1  A    between atoms: C_1  and  C_5
REMARK    2  A    between atoms: C_1  and  C_17
REMARK                            x       y       z     vdW  Elec       q    Type
REMARK                         _______ _______ _______ _____ _____    ______ ____
ROOT
ATOM      1  C   UNL     1      33.954 -13.058 -23.274  0.00  0.00    +0.038 C 
ENDROOT
BRANCH   1   5
ATOM      2  O   UNL     1      33.907  -9.716 -24.287  0.00  0.00    -0.424 OA
ATOM      3  O   UNL     1      31.539 -12.042 -21.892  0.00  0.00    -0.291 OA
ATOM      4  O   UNL     1      34.313 -11.428 -25.719  0.00  0.00    -0.249 OA
ATOM      5  C   UNL     1      33.017 -11.962 -23.776  0.00  0.00    +0.162 C 
ATOM      6  C   UNL     1      32.286 -11.369 -22.597  0.00  0.00    +0.186 C 
ATOM      7  C   UNL     1      33.789 -11.035 -24.679  0.00  0.00    +0.328 C 
ATOM      8  C   UNL     1      32.505  -9.953 -22.295  0.00  0.00    +0.070 C 
ATOM      9  C   UNL     1      33.303  -9.193 -23.133  0.00  0.00    +0.151 C 
ATOM     10  C   UNL     1      31.922  -9.362 -21.169  0.00  0.00    +0.006 C 
ATOM     11  C   UNL     1      33.535  -7.843 -22.869  0.00  0.00    +0.038 C 
ATOM     12  C   UNL     1      32.151  -8.011 -20.898  0.00  0.00    +0.000 C 
ATOM     13  C   UNL     1      32.957  -7.252 -21.746  0.00  0.00    +0.003 C 
ENDBRANCH   1   5
BRANCH   1  17
ATOM     14  O   UNL     1      34.220 -16.284 -24.625  0.00  0.00    -0.424 OA
ATOM     15  O   UNL     1      33.362 -14.749 -20.927  0.00  0.00    -0.291 OA
ATOM     16  O   UNL     1      33.185 -14.569 -25.691  0.00  0.00    -0.249 OA
ATOM     17  C   UNL     1      33.272 -14.426 -23.299  0.00  0.00    +0.162 C 
ATOM     18  C   UNL     1      33.640 -15.176 -22.045  0.00  0.00    +0.186 C 
ATOM     19  C   UNL     1      33.542 -15.081 -24.632  0.00  0.00    +0.328 C 
ATOM     20  C   UNL     1      34.359 -16.445 -22.187  0.00  0.00    +0.070 C 
ATOM     21  C   UNL     1      34.625 -16.939 -23.453  0.00  0.00    +0.151 C 
ATOM     22  C   UNL     1      34.783 -17.158 -21.061  0.00  0.00    +0.006 C 
ATOM     23  C   UNL     1      35.313 -18.142 -23.621  0.00  0.00    +0.038 C 
ATOM     24  C   UNL     1      35.472 -18.363 -21.222  0.00  0.00    +0.000 C 
ATOM     25  C   UNL     1      35.736 -18.855 -22.500  0.00  0.00    +0.003 C 
ENDBRANCH   1  17
TORSDOF 2
ENDMDL
MODEL 3
REMARK VINA RESULT:     -11.9      3.460      8.920
REMARK  Name = 17753965
REMARK  2 active torsions:
REMARK  status: ('A' for Active; 'I' for Inactive)
REMARK    1  A    between atoms: C_1  and  C_5
REMARK    2  A    between atoms: C_1  and  C_17
REMARK                            x       y       z     vdW  Elec       q    Type
REMARK                         _______ _______ _______ _____ _____    ______ ____
ROOT
ATOM      1  C   UNL     1      33.608 -13.142 -22.403  0.00  0.00    +0.038 C 
ENDROOT
BRANCH   1   5
ATOM      2  O   UNL     1      33.656 -16.239 -20.789  0.00  0.00    -0.424 OA
ATOM      3  O   UNL     1      33.399 -15.017 -24.686  0.00  0.00    -0.291 OA
ATOM      4  O   UNL     1      32.413 -14.489 -20.053  0.00  0.00    -0.249 OA
ATOM      5  C   UNL     1      32.928 -14.509 -22.394  0.00  0.00    +0.162 C 
ATOM      6  C   UNL     1      33.503 -15.347 -23.508  0.00  0.00    +0.186 C 
ATOM      7  C   UNL     1      32.962 -15.062 -20.992  0.00  0.00    +0.328 C 
ATOM      8  C   UNL     1      34.216 -16.574 -23.147  0.00  0.00    +0.070 C 
ATOM      9  C   UNL     1      34.273 -16.964 -21.820  0.00  0.00    +0.151 C 
ATOM     10  C   UNL     1      34.842 -17.353 -24.126  0.00  0.00    +0.006 C 
ATOM     11  C   UNL     1      34.949 -18.124 -21.444  0.00  0.00    +0.038 C 
ATOM     12  C   UNL     1      35.522 -18.516 -23.756  0.00  0.00    +0.000 C 
ATOM     13  C   UNL     1      35.576 -18.901 -22.417  0.00  0.00    +0.003 C 
ENDBRANCH   1   5
BRANCH   1  17
ATOM     14  O   UNL     1      32.020 -10.044 -21.980  0.00  0.00    -0.424 OA
ATOM     15  O   UNL     1      34.332 -11.744 -24.901  0.00  0.00    -0.291 OA
ATOM     16  O   UNL     1      31.046 -12.024 -21.453  0.00  0.00    -0.249 OA
ATOM     17  C   UNL     1      32.757 -12.103 -23.132  0.00  0.00    +0.162 C 
ATOM     18  C   UNL     1      33.656 -11.258 -23.998  0.00  0.00    +0.186 C 
ATOM     19  C   UNL     1      31.870 -11.409 -22.128  0.00  0.00    +0.328 C 
ATOM     20  C   UNL     1      33.716  -9.819 -23.730  0.00  0.00    +0.070 C 
ATOM     21  C   UNL     1      32.914  -9.276 -22.740  0.00  0.00    +0.151 C 
ATOM     22  C   UNL     1      34.577  -8.990 -24.457  0.00  0.00    +0.006 C 
ATOM     23  C   UNL     1      32.953  -7.909 -22.457  0.00  0.00    +0.038 C 
ATOM     24  C   UNL     1      34.621  -7.621 -24.179  0.00  0.00    +0.000 C 
ATOM     25  C   UNL     1      33.811  -7.082 -23.181  0.00  0.00    +0.003 C 
ENDBRANCH   1  17
TORSDOF 2
ENDMDL
MODEL 4
REMARK VINA RESULT:     -11.7      4.046     10.044
REMARK  Name = 17753965
REMARK  2 active torsions:
REMARK  status: ('A' for Active; 'I' for Inactive)
REMARK    1  A    between atoms: C_1  and  C_5
REMARK    2  A    between atoms: C_1  and  C_17
REMARK                            x       y       z     vdW  Elec       q    Type
REMARK                         _______ _______ _______ _____ _____    ______ ____
ROOT
ATOM      1  C   UNL     1      34.585 -22.538 -16.408  0.00  0.00    +0.038 C 
ENDROOT
BRANCH   1   5
ATOM      2  O   UNL     1      33.994 -23.972 -13.279  0.00  0.00    -0.424 OA
ATOM      3  O   UNL     1      37.147 -23.929 -15.887  0.00  0.00    -0.291 OA
ATOM      4  O   UNL     1      32.473 -24.026 -14.962  0.00  0.00    -0.249 OA
ATOM      5  C   UNL     1      34.769 -23.832 -15.620  0.00  0.00    +0.162 C 
ATOM      6  C   UNL     1      36.190 -23.899 -15.119  0.00  0.00    +0.186 C 
ATOM      7  C   UNL     1      33.650 -23.957 -14.617  0.00  0.00    +0.328 C 
ATOM      8  C   UNL     1      36.408 -23.909 -13.670  0.00  0.00    +0.070 C 
ATOM      9  C   UNL     1      35.318 -23.935 -12.817  0.00  0.00    +0.151 C 
ATOM     10  C   UNL     1      37.703 -23.888 -13.141  0.00  0.00    +0.006 C 
ATOM     11  C   UNL     1      35.493 -23.939 -11.433  0.00  0.00    +0.038 C 
ATOM     12  C   UNL     1      37.885 -23.891 -11.756  0.00  0.00    +0.000 C 
ATOM     13  C   UNL     1      36.782 -23.916 -10.903  0.00  0.00    +0.003 C 
ENDBRANCH   1   5
BRANCH   1  17
ATOM     14  O   UNL     1      32.650 -21.658 -19.198  0.00  0.00    -0.424 OA
ATOM     15  O   UNL     1      36.645 -22.218 -18.499  0.00  0.00    -0.291 OA
ATOM     16  O   UNL     1      32.060 -23.292 -17.739  0.00  0.00    -0.249 OA
ATOM     17  C   UNL     1      34.405 -22.818 -17.900  0.00  0.00    +0.162 C 
ATOM     18  C   UNL     1      35.442 -22.041 -18.670  0.00  0.00    +0.186 C 
ATOM     19  C   UNL     1      32.952 -22.626 -18.260  0.00  0.00    +0.328 C 
ATOM     20  C   UNL     1      34.978 -21.044 -19.638  0.00  0.00    +0.070 C 
ATOM     21  C   UNL     1      33.619 -20.887 -19.856  0.00  0.00    +0.151 C 
ATOM     22  C   UNL     1      35.889 -20.248 -20.339  0.00  0.00    +0.006 C 
ATOM     23  C   UNL     1      33.147 -19.942 -20.768  0.00  0.00    +0.038 C 
ATOM     24  C   UNL     1      35.423 -19.300 -21.253  0.00  0.00    +0.000 C 
ATOM     25  C   UNL     1      34.054 -19.146 -21.467  0.00  0.00    +0.003 C 
ENDBRANCH   1  17
TORSDOF 2
ENDMDL
MODEL 5
REMARK VINA RESULT:     -11.6      1.317      2.286
REMARK  Name = 17753965
REMARK  2 active torsions:
REMARK  status: ('A' for Active; 'I' for Inactive)
REMARK    1  A    between atoms: C_1  and  C_5
REMARK    2  A    between atoms: C_1  and  C_17
REMARK                            x       y       z     vdW  Elec       q    Type
REMARK                         _______ _______ _______ _____ _____    ______ ____
ROOT
ATOM      1  C   UNL     1      35.028 -17.642 -21.321  0.00  0.00    +0.038 C 
ENDROOT
BRANCH   1   5
ATOM      2  O   UNL     1      34.542 -15.486 -24.026  0.00  0.00    -0.424 OA
ATOM      3  O   UNL     1      32.420 -16.407 -20.650  0.00  0.00    -0.291 OA
ATOM      4  O   UNL     1      35.271 -17.621 -24.272  0.00  0.00    -0.249 OA
ATOM      5  C   UNL     1      33.967 -17.169 -22.312  0.00  0.00    +0.162 C 
ATOM      6  C   UNL     1      33.096 -16.139 -21.639  0.00  0.00    +0.186 C 
ATOM      7  C   UNL     1      34.641 -16.799 -23.609  0.00  0.00    +0.328 C 
ATOM      8  C   UNL     1      33.088 -14.781 -22.189  0.00  0.00    +0.070 C 
ATOM      9  C   UNL     1      33.808 -14.507 -23.340  0.00  0.00    +0.151 C 
ATOM     10  C   UNL     1      32.365 -13.759 -21.564  0.00  0.00    +0.006 C 
ATOM     11  C   UNL     1      33.824 -13.223 -23.884  0.00  0.00    +0.038 C 
ATOM     12  C   UNL     1      32.378 -12.471 -22.103  0.00  0.00    +0.000 C 
ATOM     13  C   UNL     1      33.107 -12.203 -23.262  0.00  0.00    +0.003 C 
ENDBRANCH   1   5
BRANCH   1  17
ATOM     14  O   UNL     1      36.818 -20.315 -19.924  0.00  0.00    -0.424 OA
ATOM     15  O   UNL     1      33.059 -19.837 -21.477  0.00  0.00    -0.291 OA
ATOM     16  O   UNL     1      37.724 -18.841 -21.392  0.00  0.00    -0.249 OA
ATOM     17  C   UNL     1      35.346 -19.124 -21.513  0.00  0.00    +0.162 C 
ATOM     18  C   UNL     1      34.188 -19.941 -21.002  0.00  0.00    +0.186 C 
ATOM     19  C   UNL     1      36.721 -19.403 -20.957  0.00  0.00    +0.328 C 
ATOM     20  C   UNL     1      34.436 -20.874 -19.899  0.00  0.00    +0.070 C 
ATOM     21  C   UNL     1      35.721 -21.017 -19.404  0.00  0.00    +0.151 C 
ATOM     22  C   UNL     1      33.390 -21.615 -19.339  0.00  0.00    +0.006 C 
ATOM     23  C   UNL     1      35.987 -21.892 -18.350  0.00  0.00    +0.038 C 
ATOM     24  C   UNL     1      33.650 -22.493 -18.284  0.00  0.00    +0.000 C 
ATOM     25  C   UNL     1      34.946 -22.632 -17.790  0.00  0.00    +0.003 C 
ENDBRANCH   1  17
TORSDOF 2
ENDMDL
MODEL 6
REMARK VINA RESULT:     -11.5      1.160      7.647
REMARK  Name = 17753965
REMARK  2 active torsions:
REMARK  status: ('A' for Active; 'I' for Inactive)
REMARK    1  A    between atoms: C_1  and  C_5
REMARK    2  A    between atoms: C_1  and  C_17
REMARK                            x       y       z     vdW  Elec       q    Type
REMARK                         _______ _______ _______ _____ _____    ______ ____
ROOT
ATOM      1  C   UNL     1      34.154 -18.805 -20.694  0.00  0.00    +0.038 C 
ENDROOT
BRANCH   1   5
ATOM      2  O   UNL     1      33.295 -21.861 -19.237  0.00  0.00    -0.424 OA
ATOM      3  O   UNL     1      36.814 -20.032 -20.250  0.00  0.00    -0.291 OA
ATOM      4  O   UNL     1      32.219 -21.018 -21.048  0.00  0.00    -0.249 OA
ATOM      5  C   UNL     1      34.483 -20.296 -20.734  0.00  0.00    +0.162 C 
ATOM      6  C   UNL     1      35.740 -20.539 -19.937  0.00  0.00    +0.186 C 
ATOM      7  C   UNL     1      33.245 -21.078 -20.374  0.00  0.00    +0.328 C 
ATOM      8  C   UNL     1      35.647 -21.393 -18.750  0.00  0.00    +0.070 C 
ATOM      9  C   UNL     1      34.444 -22.005 -18.444  0.00  0.00    +0.151 C 
ATOM     10  C   UNL     1      36.757 -21.592 -17.923  0.00  0.00    +0.006 C 
ATOM     11  C   UNL     1      34.323 -22.819 -17.318  0.00  0.00    +0.038 C 
ATOM     12  C   UNL     1      36.643 -22.405 -16.793  0.00  0.00    +0.000 C 
ATOM     13  C   UNL     1      35.427 -23.018 -16.490  0.00  0.00    +0.003 C 
ENDBRANCH   1   5
BRANCH   1  17
ATOM     14  O   UNL     1      34.405 -17.534 -23.953  0.00  0.00    -0.424 OA
ATOM     15  O   UNL     1      35.183 -16.081 -20.205  0.00  0.00    -0.291 OA
ATOM     16  O   UNL     1      35.043 -19.635 -23.384  0.00  0.00    -0.249 OA
ATOM     17  C   UNL     1      35.072 -18.010 -21.622  0.00  0.00    +0.162 C 
ATOM     18  C   UNL     1      34.923 -16.542 -21.314  0.00  0.00    +0.186 C 
ATOM     19  C   UNL     1      34.850 -18.471 -23.041  0.00  0.00    +0.328 C 
ATOM     20  C   UNL     1      34.442 -15.660 -22.380  0.00  0.00    +0.070 C 
ATOM     21  C   UNL     1      34.197 -16.183 -23.639  0.00  0.00    +0.151 C 
ATOM     22  C   UNL     1      34.222 -14.300 -22.140  0.00  0.00    +0.006 C 
ATOM     23  C   UNL     1      33.732 -15.369 -24.673  0.00  0.00    +0.038 C 
ATOM     24  C   UNL     1      33.758 -13.479 -23.171  0.00  0.00    +0.000 C 
ATOM     25  C   UNL     1      33.513 -14.013 -24.436  0.00  0.00    +0.003 C 
ENDBRANCH   1  17
TORSDOF 2
ENDMDL
MODEL 7
REMARK VINA RESULT:     -11.1      3.354      6.168
REMARK  Name = 17753965
REMARK  2 active torsions:
REMARK  status: ('A' for Active; 'I' for Inactive)
REMARK    1  A    between atoms: C_1  and  C_5
REMARK    2  A    between atoms: C_1  and  C_17
REMARK                            x       y       z     vdW  Elec       q    Type
REMARK                         _______ _______ _______ _____ _____    ______ ____
ROOT
ATOM      1  C   UNL     1      34.362 -22.064 -17.450  0.00  0.00    +0.038 C 
ENDROOT
BRANCH   1   5
ATOM      2  O   UNL     1      36.781 -20.555 -19.468  0.00  0.00    -0.424 OA
ATOM      3  O   UNL     1      32.967 -21.916 -20.059  0.00  0.00    -0.291 OA
ATOM      4  O   UNL     1      37.263 -22.233 -18.019  0.00  0.00    -0.249 OA
ATOM      5  C   UNL     1      35.009 -22.154 -18.830  0.00  0.00    +0.162 C 
ATOM      6  C   UNL     1      34.099 -21.497 -19.838  0.00  0.00    +0.186 C 
ATOM      7  C   UNL     1      36.435 -21.672 -18.733  0.00  0.00    +0.328 C 
ATOM      8  C   UNL     1      34.598 -20.316 -20.547  0.00  0.00    +0.070 C 
ATOM      9  C   UNL     1      35.898 -19.890 -20.331  0.00  0.00    +0.151 C 
ATOM     10  C   UNL     1      33.776 -19.613 -21.433  0.00  0.00    +0.006 C 
ATOM     11  C   UNL     1      36.399 -18.766 -20.987  0.00  0.00    +0.038 C 
ATOM     12  C   UNL     1      34.271 -18.485 -22.093  0.00  0.00    +0.000 C 
ATOM     13  C   UNL     1      35.582 -18.062 -21.870  0.00  0.00    +0.003 C 
ENDBRANCH   1   5
BRANCH   1  17
ATOM     14  O   UNL     1      33.919 -24.186 -14.693  0.00  0.00    -0.424 OA
ATOM     15  O   UNL     1      31.537 -22.870 -17.752  0.00  0.00    -0.291 OA
ATOM     16  O   UNL     1      35.767 -24.224 -16.009  0.00  0.00    -0.249 OA
ATOM     17  C   UNL     1      33.759 -23.405 -17.032  0.00  0.00    +0.162 C 
ATOM     18  C   UNL     1      32.274 -23.231 -16.838  0.00  0.00    +0.186 C 
ATOM     19  C   UNL     1      34.570 -23.970 -15.892  0.00  0.00    +0.328 C 
ATOM     20  C   UNL     1      31.717 -23.498 -15.509  0.00  0.00    +0.070 C 
ATOM     21  C   UNL     1      32.550 -23.950 -14.500  0.00  0.00    +0.151 C 
ATOM     22  C   UNL     1      30.358 -23.296 -15.249  0.00  0.00    +0.006 C 
ATOM     23  C   UNL     1      32.050 -24.207 -13.222  0.00  0.00    +0.038 C 
ATOM     24  C   UNL     1      29.851 -23.552 -13.972  0.00  0.00    +0.000 C 
ATOM     25  C   UNL     1      30.695 -24.007 -12.960  0.00  0.00    +0.003 C 
ENDBRANCH   1  17
TORSDOF 2
ENDMDL
MODEL 8
REMARK VINA RESULT:     -10.7      1.118      7.466
REMARK  Name = 17753965
REMARK  2 active torsions:
REMARK  status: ('A' for Active; 'I' for Inactive)
REMARK    1  A    between atoms: C_1  and  C_5
REMARK    2  A    between atoms: C_1  and  C_17
REMARK                            x       y       z     vdW  Elec       q    Type
REMARK                         _______ _______ _______ _____ _____    ______ ____
ROOT
ATOM      1  C   UNL     1      34.165 -18.771 -22.905  0.00  0.00    +0.038 C 
ENDROOT
BRANCH   1   5
ATOM      2  O   UNL     1      36.120 -20.349 -20.479  0.00  0.00    -0.424 OA
ATOM      3  O   UNL     1      32.275 -18.956 -20.633  0.00  0.00    -0.291 OA
ATOM      4  O   UNL     1      36.894 -18.647 -21.765  0.00  0.00    -0.249 OA
ATOM      5  C   UNL     1      34.523 -18.717 -21.422  0.00  0.00    +0.162 C 
ATOM      6  C   UNL     1      33.425 -19.384 -20.632  0.00  0.00    +0.186 C 
ATOM      7  C   UNL     1      35.936 -19.213 -21.243  0.00  0.00    +0.328 C 
ATOM      8  C   UNL     1      33.763 -20.585 -19.864  0.00  0.00    +0.070 C 
ATOM      9  C   UNL     1      35.077 -21.022 -19.825  0.00  0.00    +0.151 C 
ATOM     10  C   UNL     1      32.775 -21.297 -19.176  0.00  0.00    +0.006 C 
ATOM     11  C   UNL     1      35.429 -22.165 -19.108  0.00  0.00    +0.038 C 
ATOM     12  C   UNL     1      33.120 -22.443 -18.457  0.00  0.00    +0.000 C 
ATOM     13  C   UNL     1      34.446 -22.877 -18.422  0.00  0.00    +0.003 C 
ENDBRANCH   1   5
BRANCH   1  17
ATOM     14  O   UNL     1      34.066 -16.860 -25.845  0.00  0.00    -0.424 OA
ATOM     15  O   UNL     1      35.009 -16.114 -21.931  0.00  0.00    -0.291 OA
ATOM     16  O   UNL     1      34.909 -18.964 -25.756  0.00  0.00    -0.249 OA
ATOM     17  C   UNL     1      34.944 -17.726 -23.703  0.00  0.00    +0.162 C 
ATOM     18  C   UNL     1      34.703 -16.368 -23.093  0.00  0.00    +0.186 C 
ATOM     19  C   UNL     1      34.651 -17.914 -25.171  0.00  0.00    +0.328 C 
ATOM     20  C   UNL     1      34.074 -15.340 -23.926  0.00  0.00    +0.070 C 
ATOM     21  C   UNL     1      33.776 -15.624 -25.249  0.00  0.00    +0.151 C 
ATOM     22  C   UNL     1      33.767 -14.081 -23.401  0.00  0.00    +0.006 C 
ATOM     23  C   UNL     1      33.171 -14.667 -26.066  0.00  0.00    +0.038 C 
ATOM     24  C   UNL     1      33.162 -13.119 -24.214  0.00  0.00    +0.000 C 
ATOM     25  C   UNL     1      32.864 -13.411 -25.544  0.00  0.00    +0.003 C 
ENDBRANCH   1  17
TORSDOF 2
ENDMDL
MODEL 9
REMARK VINA RESULT:     -10.4      7.007     10.743
REMARK  Name = 17753965
REMARK  2 active torsions:
REMARK  status: ('A' for Active; 'I' for Inactive)
REMARK    1  A    between atoms: C_1  and  C_5
REMARK    2  A    between atoms: C_1  and  C_17
REMARK                            x       y       z     vdW  Elec       q    Type
REMARK                         _______ _______ _______ _____ _____    ______ ____
ROOT
ATOM      1  C   UNL     1      32.093  -8.100 -23.669  0.00  0.00    +0.038 C 
ENDROOT
BRANCH   1   5
ATOM      2  O   UNL     1      31.022  -4.823 -24.229  0.00  0.00    -0.424 OA
ATOM      3  O   UNL     1      34.522  -6.859 -24.821  0.00  0.00    -0.291 OA
ATOM      4  O   UNL     1      30.572  -5.952 -22.312  0.00  0.00    -0.249 OA
ATOM      5  C   UNL     1      32.528  -6.645 -23.512  0.00  0.00    +0.162 C 
ATOM      6  C   UNL     1      33.449  -6.288 -24.651  0.00  0.00    +0.186 C 
ATOM      7  C   UNL     1      31.305  -5.792 -23.286  0.00  0.00    +0.328 C 
ATOM      8  C   UNL     1      33.020  -5.238 -25.579  0.00  0.00    +0.070 C 
ATOM      9  C   UNL     1      31.835  -4.562 -25.342  0.00  0.00    +0.151 C 
ATOM     10  C   UNL     1      33.789  -4.915 -26.701  0.00  0.00    +0.006 C 
ATOM     11  C   UNL     1      31.397  -3.562 -26.210  0.00  0.00    +0.038 C 
ATOM     12  C   UNL     1      33.356  -3.916 -27.575  0.00  0.00    +0.000 C 
ATOM     13  C   UNL     1      32.161  -3.240 -27.330  0.00  0.00    +0.003 C 
ENDBRANCH   1   5
BRANCH   1  17
ATOM     14  O   UNL     1      31.891 -10.810 -21.451  0.00  0.00    -0.424 OA
ATOM     15  O   UNL     1      34.293  -9.826 -24.617  0.00  0.00    -0.291 OA
ATOM     16  O   UNL     1      31.692  -8.647 -20.795  0.00  0.00    -0.249 OA
ATOM     17  C   UNL     1      32.944  -9.030 -22.805  0.00  0.00    +0.162 C 
ATOM     18  C   UNL     1      33.543 -10.098 -23.683  0.00  0.00    +0.186 C 
ATOM     19  C   UNL     1      32.134  -9.459 -21.606  0.00  0.00    +0.328 C 
ATOM     20  C   UNL     1      33.200 -11.494 -23.402  0.00  0.00    +0.070 C 
ATOM     21  C   UNL     1      32.392 -11.792 -22.317  0.00  0.00    +0.151 C 
ATOM     22  C   UNL     1      33.674 -12.527 -24.217  0.00  0.00    +0.006 C 
ATOM     23  C   UNL     1      32.042 -13.112 -22.027  0.00  0.00    +0.038 C 
ATOM     24  C   UNL     1      33.328 -13.850 -23.933  0.00  0.00    +0.000 C 
ATOM     25  C   UNL     1      32.514 -14.143 -22.840  0.00  0.00    +0.003 C 
ENDBRANCH   1  17
TORSDOF 2
ENDMDL
