MODEL 1
REMARK VINA RESULT:      -9.7      0.000      0.000
REMARK  Name = 447966
REMARK  2 active torsions:
REMARK  status: ('A' for Active; 'I' for Inactive)
REMARK    1  A    between atoms: C_3  and  C_8
REMARK    2  A    between atoms: C_4  and  C_18
REMARK                            x       y       z     vdW  Elec       q    Type
REMARK                         _______ _______ _______ _____ _____    ______ ____
ROOT
ATOM      1  N   UNL     1      33.995 -16.483 -24.798  0.00  0.00    -0.234 N 
ATOM      2  N   UNL     1      34.391 -17.414 -25.683  0.00  0.00    -0.180 NA
ATOM      3  C   UNL     1      34.987 -17.970 -23.560  0.00  0.00    +0.037 C 
ATOM      4  C   UNL     1      34.330 -16.773 -23.508  0.00  0.00    +0.084 C 
ATOM      5  C   UNL     1      34.999 -18.323 -24.917  0.00  0.00    +0.119 C 
ATOM      6  H   UNL     1      33.508 -15.667 -25.057  0.00  0.00    +0.174 HD
ENDROOT
BRANCH   3   8
ATOM      7  N   UNL     1      36.677 -19.957 -20.237  0.00  0.00    -0.248 NA
ATOM      8  C   UNL     1      35.524 -18.663 -22.415  0.00  0.00    +0.002 C 
ATOM      9  C   UNL     1      34.727 -19.427 -21.551  0.00  0.00    -0.004 C 
ATOM     10  C   UNL     1      35.353 -20.065 -20.460  0.00  0.00    +0.060 C 
ATOM     11  C   UNL     1      36.888 -18.550 -22.187  0.00  0.00    +0.020 C 
ATOM     12  C   UNL     1      33.343 -19.561 -21.753  0.00  0.00    +0.053 C 
ATOM     13  C   UNL     1      34.561 -20.823 -19.602  0.00  0.00    +0.071 C 
ATOM     14  C   UNL     1      37.410 -19.211 -21.094  0.00  0.00    +0.098 C 
ATOM     15  C   UNL     1      32.575 -20.326 -20.880  0.00  0.00    -0.026 C 
ATOM     16  C   UNL     1      33.185 -20.958 -19.803  0.00  0.00    -0.024 C 
ENDBRANCH   3   8
BRANCH   4  18
ATOM     17  N   UNL     1      32.907 -15.120 -22.632  0.00  0.00    -0.243 NA
ATOM     18  C   UNL     1      33.991 -15.897 -22.413  0.00  0.00    +0.096 C 
ATOM     19  C   UNL     1      34.737 -15.882 -21.248  0.00  0.00    +0.020 C 
ATOM     20  C   UNL     1      34.345 -15.010 -20.238  0.00  0.00    +0.003 C 
ATOM     21  C   UNL     1      32.556 -14.286 -21.628  0.00  0.00    +0.099 C 
ATOM     22  C   UNL     1      33.235 -14.194 -20.424  0.00  0.00    +0.021 C 
ENDBRANCH   4  18
TORSDOF 2
ENDMDL
MODEL 2
REMARK VINA RESULT:      -9.6      6.676      9.941
REMARK  Name = 447966
REMARK  2 active torsions:
REMARK  status: ('A' for Active; 'I' for Inactive)
REMARK    1  A    between atoms: C_3  and  C_8
REMARK    2  A    between atoms: C_4  and  C_18
REMARK                            x       y       z     vdW  Elec       q    Type
REMARK                         _______ _______ _______ _____ _____    ______ ____
ROOT
ATOM      1  N   UNL     1      32.712 -23.192 -15.543  0.00  0.00    -0.234 N 
ATOM      2  N   UNL     1      32.114 -23.876 -14.552  0.00  0.00    -0.180 NA
ATOM      3  C   UNL     1      34.312 -24.429 -14.743  0.00  0.00    +0.037 C 
ATOM      4  C   UNL     1      34.034 -23.490 -15.697  0.00  0.00    +0.084 C 
ATOM      5  C   UNL     1      33.101 -24.633 -14.066  0.00  0.00    +0.119 C 
ATOM      6  H   UNL     1      32.239 -22.537 -16.105  0.00  0.00    +0.174 HD
ENDROOT
BRANCH   3   8
ATOM      7  N   UNL     1      38.071 -26.287 -14.234  0.00  0.00    -0.248 NA
ATOM      8  C   UNL     1      35.605 -25.034 -14.539  0.00  0.00    +0.002 C 
ATOM      9  C   UNL     1      36.518 -24.561 -13.587  0.00  0.00    -0.004 C 
ATOM     10  C   UNL     1      37.757 -25.227 -13.466  0.00  0.00    +0.060 C 
ATOM     11  C   UNL     1      35.926 -26.126 -15.331  0.00  0.00    +0.020 C 
ATOM     12  C   UNL     1      36.224 -23.457 -12.769  0.00  0.00    +0.053 C 
ATOM     13  C   UNL     1      38.663 -24.756 -12.521  0.00  0.00    +0.071 C 
ATOM     14  C   UNL     1      37.162 -26.712 -15.140  0.00  0.00    +0.098 C 
ATOM     15  C   UNL     1      37.150 -23.008 -11.831  0.00  0.00    -0.026 C 
ATOM     16  C   UNL     1      38.371 -23.659 -11.707  0.00  0.00    -0.024 C 
ENDBRANCH   3   8
BRANCH   4  18
ATOM     17  N   UNL     1      34.276 -22.793 -17.929  0.00  0.00    -0.243 NA
ATOM     18  C   UNL     1      34.849 -22.859 -16.707  0.00  0.00    +0.096 C 
ATOM     19  C   UNL     1      36.109 -22.371 -16.410  0.00  0.00    +0.020 C 
ATOM     20  C   UNL     1      36.832 -21.775 -17.438  0.00  0.00    +0.003 C 
ATOM     21  C   UNL     1      35.008 -22.207 -18.902  0.00  0.00    +0.099 C 
ATOM     22  C   UNL     1      36.278 -21.687 -18.710  0.00  0.00    +0.021 C 
ENDBRANCH   4  18
TORSDOF 2
ENDMDL
MODEL 3
REMARK VINA RESULT:      -9.3      3.487      7.219
REMARK  Name = 447966
REMARK  2 active torsions:
REMARK  status: ('A' for Active; 'I' for Inactive)
REMARK    1  A    between atoms: C_3  and  C_8
REMARK    2  A    between atoms: C_4  and  C_18
REMARK                            x       y       z     vdW  Elec       q    Type
REMARK                         _______ _______ _______ _____ _____    ______ ____
ROOT
ATOM      1  N   UNL     1      33.832 -15.854 -25.466  0.00  0.00    -0.234 N 
ATOM      2  N   UNL     1      33.414 -15.270 -26.602  0.00  0.00    -0.180 NA
ATOM      3  C   UNL     1      33.211 -13.874 -24.817  0.00  0.00    +0.037 C 
ATOM      4  C   UNL     1      33.730 -15.055 -24.365  0.00  0.00    +0.084 C 
ATOM      5  C   UNL     1      33.034 -14.056 -26.196  0.00  0.00    +0.119 C 
ATOM      6  H   UNL     1      34.180 -16.775 -25.432  0.00  0.00    +0.174 HD
ENDROOT
BRANCH   3   8
ATOM      7  N   UNL     1      32.312 -10.585 -22.324  0.00  0.00    -0.248 NA
ATOM      8  C   UNL     1      32.934 -12.727 -23.988  0.00  0.00    +0.002 C 
ATOM      9  C   UNL     1      33.579 -11.496 -24.161  0.00  0.00    -0.004 C 
ATOM     10  C   UNL     1      33.233 -10.437 -23.295  0.00  0.00    +0.060 C 
ATOM     11  C   UNL     1      31.985 -12.883 -22.987  0.00  0.00    +0.020 C 
ATOM     12  C   UNL     1      34.544 -11.305 -25.164  0.00  0.00    +0.053 C 
ATOM     13  C   UNL     1      33.874  -9.213 -23.468  0.00  0.00    +0.071 C 
ATOM     14  C   UNL     1      31.714 -11.790 -22.190  0.00  0.00    +0.098 C 
ATOM     15  C   UNL     1      35.170 -10.070 -25.315  0.00  0.00    -0.026 C 
ATOM     16  C   UNL     1      34.834  -9.023 -24.465  0.00  0.00    -0.024 C 
ENDBRANCH   3   8
BRANCH   4  18
ATOM     17  N   UNL     1      34.391 -16.826 -22.968  0.00  0.00    -0.243 NA
ATOM     18  C   UNL     1      34.130 -15.503 -23.054  0.00  0.00    +0.096 C 
ATOM     19  C   UNL     1      34.229 -14.619 -21.993  0.00  0.00    +0.020 C 
ATOM     20  C   UNL     1      34.623 -15.128 -20.760  0.00  0.00    +0.003 C 
ATOM     21  C   UNL     1      34.770 -17.283 -21.754  0.00  0.00    +0.099 C 
ATOM     22  C   UNL     1      34.900 -16.484 -20.630  0.00  0.00    +0.021 C 
ENDBRANCH   4  18
TORSDOF 2
ENDMDL
MODEL 4
REMARK VINA RESULT:      -9.0      2.337      3.591
REMARK  Name = 447966
REMARK  2 active torsions:
REMARK  status: ('A' for Active; 'I' for Inactive)
REMARK    1  A    between atoms: C_3  and  C_8
REMARK    2  A    between atoms: C_4  and  C_18
REMARK                            x       y       z     vdW  Elec       q    Type
REMARK                         _______ _______ _______ _____ _____    ______ ____
ROOT
ATOM      1  N   UNL     1      33.087 -14.140 -26.037  0.00  0.00    -0.234 N 
ATOM      2  N   UNL     1      33.437 -15.323 -26.571  0.00  0.00    -0.180 NA
ATOM      3  C   UNL     1      33.855 -15.256 -24.336  0.00  0.00    +0.037 C 
ATOM      4  C   UNL     1      33.319 -14.051 -24.696  0.00  0.00    +0.084 C 
ATOM      5  C   UNL     1      33.907 -16.003 -25.522  0.00  0.00    +0.119 C 
ATOM      6  H   UNL     1      32.699 -13.406 -26.566  0.00  0.00    +0.174 HD
ENDROOT
BRANCH   3   8
ATOM      7  N   UNL     1      35.017 -16.171 -20.379  0.00  0.00    -0.248 NA
ATOM      8  C   UNL     1      34.256 -15.610 -22.996  0.00  0.00    +0.002 C 
ATOM      9  C   UNL     1      34.588 -16.921 -22.629  0.00  0.00    -0.004 C 
ATOM     10  C   UNL     1      34.968 -17.160 -21.291  0.00  0.00    +0.060 C 
ATOM     11  C   UNL     1      34.305 -14.590 -22.058  0.00  0.00    +0.020 C 
ATOM     12  C   UNL     1      34.548 -17.978 -23.554  0.00  0.00    +0.053 C 
ATOM     13  C   UNL     1      35.298 -18.462 -20.927  0.00  0.00    +0.071 C 
ATOM     14  C   UNL     1      34.689 -14.920 -20.775  0.00  0.00    +0.098 C 
ATOM     15  C   UNL     1      34.883 -19.271 -23.162  0.00  0.00    -0.026 C 
ATOM     16  C   UNL     1      35.258 -19.513 -21.846  0.00  0.00    -0.024 C 
ENDBRANCH   3   8
BRANCH   4  18
ATOM     17  N   UNL     1      32.049 -13.025 -23.005  0.00  0.00    -0.243 NA
ATOM     18  C   UNL     1      33.008 -12.861 -23.942  0.00  0.00    +0.096 C 
ATOM     19  C   UNL     1      33.663 -11.666 -24.186  0.00  0.00    +0.020 C 
ATOM     20  C   UNL     1      33.308 -10.564 -23.416  0.00  0.00    +0.003 C 
ATOM     21  C   UNL     1      31.731 -11.932 -22.277  0.00  0.00    +0.099 C 
ATOM     22  C   UNL     1      32.325 -10.692 -22.441  0.00  0.00    +0.021 C 
ENDBRANCH   4  18
TORSDOF 2
ENDMDL
MODEL 5
REMARK VINA RESULT:      -8.9      3.541      5.353
REMARK  Name = 447966
REMARK  2 active torsions:
REMARK  status: ('A' for Active; 'I' for Inactive)
REMARK    1  A    between atoms: C_3  and  C_8
REMARK    2  A    between atoms: C_4  and  C_18
REMARK                            x       y       z     vdW  Elec       q    Type
REMARK                         _______ _______ _______ _____ _____    ______ ____
ROOT
ATOM      1  N   UNL     1      33.444 -13.031 -26.986  0.00  0.00    -0.234 N 
ATOM      2  N   UNL     1      33.086 -14.286 -27.306  0.00  0.00    -0.180 NA
ATOM      3  C   UNL     1      33.205 -13.999 -25.054  0.00  0.00    +0.037 C 
ATOM      4  C   UNL     1      33.528 -12.809 -25.643  0.00  0.00    +0.084 C 
ATOM      5  C   UNL     1      32.942 -14.874 -26.116  0.00  0.00    +0.119 C 
ATOM      6  H   UNL     1      33.627 -12.336 -27.659  0.00  0.00    +0.174 HD
ENDROOT
BRANCH   3   8
ATOM      7  N   UNL     1      33.005 -14.567 -20.873  0.00  0.00    -0.248 NA
ATOM      8  C   UNL     1      33.164 -14.226 -23.630  0.00  0.00    +0.002 C 
ATOM      9  C   UNL     1      33.891 -15.250 -23.007  0.00  0.00    -0.004 C 
ATOM     10  C   UNL     1      33.781 -15.386 -21.607  0.00  0.00    +0.060 C 
ATOM     11  C   UNL     1      32.363 -13.382 -22.875  0.00  0.00    +0.020 C 
ATOM     12  C   UNL     1      34.711 -16.123 -23.742  0.00  0.00    +0.053 C 
ATOM     13  C   UNL     1      34.504 -16.402 -20.989  0.00  0.00    +0.071 C 
ATOM     14  C   UNL     1      32.319 -13.592 -21.512  0.00  0.00    +0.098 C 
ATOM     15  C   UNL     1      35.423 -17.131 -23.098  0.00  0.00    -0.026 C 
ATOM     16  C   UNL     1      35.319 -17.270 -21.720  0.00  0.00    -0.024 C 
ENDBRANCH   3   8
BRANCH   4  18
ATOM     17  N   UNL     1      33.053 -11.050 -24.159  0.00  0.00    -0.243 NA
ATOM     18  C   UNL     1      33.897 -11.523 -25.101  0.00  0.00    +0.096 C 
ATOM     19  C   UNL     1      35.031 -10.860 -25.535  0.00  0.00    +0.020 C 
ATOM     20  C   UNL     1      35.319  -9.626 -24.962  0.00  0.00    +0.003 C 
ATOM     21  C   UNL     1      33.365  -9.848 -23.625  0.00  0.00    +0.099 C 
ATOM     22  C   UNL     1      34.475  -9.103 -23.989  0.00  0.00    +0.021 C 
ENDBRANCH   4  18
TORSDOF 2
ENDMDL
MODEL 6
REMARK VINA RESULT:      -8.8      5.840      9.922
REMARK  Name = 447966
REMARK  2 active torsions:
REMARK  status: ('A' for Active; 'I' for Inactive)
REMARK    1  A    between atoms: C_3  and  C_8
REMARK    2  A    between atoms: C_4  and  C_18
REMARK                            x       y       z     vdW  Elec       q    Type
REMARK                         _______ _______ _______ _____ _____    ______ ____
ROOT
ATOM      1  N   UNL     1      33.314 -24.910 -14.007  0.00  0.00    -0.234 N 
ATOM      2  N   UNL     1      32.306 -24.065 -14.284  0.00  0.00    -0.180 NA
ATOM      3  C   UNL     1      34.224 -23.458 -15.344  0.00  0.00    +0.037 C 
ATOM      4  C   UNL     1      34.488 -24.587 -14.620  0.00  0.00    +0.084 C 
ATOM      5  C   UNL     1      32.872 -23.176 -15.104  0.00  0.00    +0.119 C 
ATOM      6  H   UNL     1      33.213 -25.691 -13.414  0.00  0.00    +0.174 HD
ENDROOT
BRANCH   3   8
ATOM      7  N   UNL     1      37.129 -21.417 -17.633  0.00  0.00    -0.248 NA
ATOM      8  C   UNL     1      35.189 -22.760 -16.159  0.00  0.00    +0.002 C 
ATOM      9  C   UNL     1      34.928 -22.386 -17.484  0.00  0.00    -0.004 C 
ATOM     10  C   UNL     1      35.940 -21.706 -18.194  0.00  0.00    +0.060 C 
ATOM     11  C   UNL     1      36.413 -22.464 -15.579  0.00  0.00    +0.020 C 
ATOM     12  C   UNL     1      33.698 -22.672 -18.101  0.00  0.00    +0.053 C 
ATOM     13  C   UNL     1      35.680 -21.335 -19.510  0.00  0.00    +0.071 C 
ATOM     14  C   UNL     1      37.341 -21.796 -16.352  0.00  0.00    +0.098 C 
ATOM     15  C   UNL     1      33.465 -22.288 -19.419  0.00  0.00    -0.026 C 
ATOM     16  C   UNL     1      34.458 -21.619 -20.124  0.00  0.00    -0.024 C 
ENDBRANCH   3   8
BRANCH   4  18
ATOM     17  N   UNL     1      35.974 -26.189 -15.486  0.00  0.00    -0.243 NA
ATOM     18  C   UNL     1      35.684 -25.375 -14.448  0.00  0.00    +0.096 C 
ATOM     19  C   UNL     1      36.449 -25.276 -13.298  0.00  0.00    +0.020 C 
ATOM     20  C   UNL     1      37.588 -26.067 -13.208  0.00  0.00    +0.003 C 
ATOM     21  C   UNL     1      37.090 -26.942 -15.363  0.00  0.00    +0.099 C 
ATOM     22  C   UNL     1      37.922 -26.918 -14.255  0.00  0.00    +0.021 C 
ENDBRANCH   4  18
TORSDOF 2
ENDMDL
MODEL 7
REMARK VINA RESULT:      -8.6      3.643      6.037
REMARK  Name = 447966
REMARK  2 active torsions:
REMARK  status: ('A' for Active; 'I' for Inactive)
REMARK    1  A    between atoms: C_3  and  C_8
REMARK    2  A    between atoms: C_4  and  C_18
REMARK                            x       y       z     vdW  Elec       q    Type
REMARK                         _______ _______ _______ _____ _____    ______ ____
ROOT
ATOM      1  N   UNL     1      32.448 -11.284 -22.368  0.00  0.00    -0.234 N 
ATOM      2  N   UNL     1      31.675 -12.074 -21.604  0.00  0.00    -0.180 NA
ATOM      3  C   UNL     1      32.684 -13.247 -23.271  0.00  0.00    +0.037 C 
ATOM      4  C   UNL     1      33.076 -11.943 -23.384  0.00  0.00    +0.084 C 
ATOM      5  C   UNL     1      31.824 -13.277 -22.164  0.00  0.00    +0.119 C 
ATOM      6  H   UNL     1      32.552 -10.317 -22.209  0.00  0.00    +0.174 HD
ENDROOT
BRANCH   3   8
ATOM      7  N   UNL     1      33.868 -16.309 -25.929  0.00  0.00    -0.248 NA
ATOM      8  C   UNL     1      33.110 -14.312 -24.146  0.00  0.00    +0.002 C 
ATOM      9  C   UNL     1      33.899 -15.383 -23.704  0.00  0.00    -0.004 C 
ATOM     10  C   UNL     1      34.260 -16.373 -24.643  0.00  0.00    +0.060 C 
ATOM     11  C   UNL     1      32.706 -14.244 -25.471  0.00  0.00    +0.020 C 
ATOM     12  C   UNL     1      34.325 -15.481 -22.369  0.00  0.00    +0.053 C 
ATOM     13  C   UNL     1      35.043 -17.436 -24.203  0.00  0.00    +0.071 C 
ATOM     14  C   UNL     1      33.108 -15.259 -26.315  0.00  0.00    +0.098 C 
ATOM     15  C   UNL     1      35.108 -16.557 -21.957  0.00  0.00    -0.026 C 
ATOM     16  C   UNL     1      35.468 -17.535 -22.876  0.00  0.00    -0.024 C 
ENDBRANCH   3   8
BRANCH   4  18
ATOM     17  N   UNL     1      34.498 -10.127 -23.836  0.00  0.00    -0.243 NA
ATOM     18  C   UNL     1      33.950 -11.267 -24.311  0.00  0.00    +0.096 C 
ATOM     19  C   UNL     1      34.185 -11.776 -25.577  0.00  0.00    +0.020 C 
ATOM     20  C   UNL     1      35.041 -11.066 -26.411  0.00  0.00    +0.003 C 
ATOM     21  C   UNL     1      35.325  -9.465 -24.676  0.00  0.00    +0.099 C 
ATOM     22  C   UNL     1      35.626  -9.888 -25.960  0.00  0.00    +0.021 C 
ENDBRANCH   4  18
TORSDOF 2
ENDMDL
MODEL 8
REMARK VINA RESULT:      -8.6      6.913     10.186
REMARK  Name = 447966
REMARK  2 active torsions:
REMARK  status: ('A' for Active; 'I' for Inactive)
REMARK    1  A    between atoms: C_3  and  C_8
REMARK    2  A    between atoms: C_4  and  C_18
REMARK                            x       y       z     vdW  Elec       q    Type
REMARK                         _______ _______ _______ _____ _____    ______ ____
ROOT
ATOM      1  N   UNL     1      32.586 -23.543 -15.748  0.00  0.00    -0.234 N 
ATOM      2  N   UNL     1      31.781 -24.160 -14.867  0.00  0.00    -0.180 NA
ATOM      3  C   UNL     1      33.937 -24.120 -14.145  0.00  0.00    +0.037 C 
ATOM      4  C   UNL     1      33.892 -23.493 -15.359  0.00  0.00    +0.084 C 
ATOM      5  C   UNL     1      32.617 -24.512 -13.886  0.00  0.00    +0.119 C 
ATOM      6  H   UNL     1      32.262 -23.162 -16.597  0.00  0.00    +0.174 HD
ENDROOT
BRANCH   3   8
ATOM      7  N   UNL     1      37.389 -24.563 -11.751  0.00  0.00    -0.248 NA
ATOM      8  C   UNL     1      35.132 -24.299 -13.357  0.00  0.00    +0.002 C 
ATOM      9  C   UNL     1      36.178 -25.143 -13.753  0.00  0.00    -0.004 C 
ATOM     10  C   UNL     1      37.304 -25.247 -12.908  0.00  0.00    +0.060 C 
ATOM     11  C   UNL     1      35.217 -23.594 -12.165  0.00  0.00    +0.020 C 
ATOM     12  C   UNL     1      36.123 -25.871 -14.954  0.00  0.00    +0.053 C 
ATOM     13  C   UNL     1      38.343 -26.085 -13.302  0.00  0.00    +0.071 C 
ATOM     14  C   UNL     1      36.357 -23.760 -11.406  0.00  0.00    +0.098 C 
ATOM     15  C   UNL     1      37.177 -26.702 -15.323  0.00  0.00    -0.026 C 
ATOM     16  C   UNL     1      38.289 -26.809 -14.495  0.00  0.00    -0.024 C 
ENDBRANCH   3   8
BRANCH   4  18
ATOM     17  N   UNL     1      34.611 -22.796 -17.486  0.00  0.00    -0.243 NA
ATOM     18  C   UNL     1      34.910 -22.870 -16.170  0.00  0.00    +0.096 C 
ATOM     19  C   UNL     1      36.084 -22.397 -15.611  0.00  0.00    +0.020 C 
ATOM     20  C   UNL     1      37.014 -21.808 -16.459  0.00  0.00    +0.003 C 
ATOM     21  C   UNL     1      35.539 -22.217 -18.279  0.00  0.00    +0.099 C 
ATOM     22  C   UNL     1      36.745 -21.712 -17.819  0.00  0.00    +0.021 C 
ENDBRANCH   4  18
TORSDOF 2
ENDMDL
MODEL 9
REMARK VINA RESULT:      -8.4      1.453      5.220
REMARK  Name = 447966
REMARK  2 active torsions:
REMARK  status: ('A' for Active; 'I' for Inactive)
REMARK    1  A    between atoms: C_3  and  C_8
REMARK    2  A    between atoms: C_4  and  C_18
REMARK                            x       y       z     vdW  Elec       q    Type
REMARK                         _______ _______ _______ _____ _____    ______ ____
ROOT
ATOM      1  N   UNL     1      34.786 -19.544 -24.336  0.00  0.00    -0.234 N 
ATOM      2  N   UNL     1      34.912 -18.713 -25.385  0.00  0.00    -0.180 NA
ATOM      3  C   UNL     1      34.596 -17.570 -23.445  0.00  0.00    +0.037 C 
ATOM      4  C   UNL     1      34.594 -18.904 -23.147  0.00  0.00    +0.084 C 
ATOM      5  C   UNL     1      34.794 -17.504 -24.831  0.00  0.00    +0.119 C 
ATOM      6  H   UNL     1      34.827 -20.524 -24.419  0.00  0.00    +0.174 HD
ENDROOT
BRANCH   3   8
ATOM      7  N   UNL     1      34.148 -14.547 -20.528  0.00  0.00    -0.248 NA
ATOM      8  C   UNL     1      34.425 -16.512 -22.479  0.00  0.00    +0.002 C 
ATOM      9  C   UNL     1      33.840 -15.281 -22.803  0.00  0.00    -0.004 C 
ATOM     10  C   UNL     1      33.719 -14.313 -21.783  0.00  0.00    +0.060 C 
ATOM     11  C   UNL     1      34.868 -16.755 -21.187  0.00  0.00    +0.020 C 
ATOM     12  C   UNL     1      33.381 -15.003 -24.102  0.00  0.00    +0.053 C 
ATOM     13  C   UNL     1      33.137 -13.091 -22.105  0.00  0.00    +0.071 C 
ATOM     14  C   UNL     1      34.708 -15.748 -20.257  0.00  0.00    +0.098 C 
ATOM     15  C   UNL     1      32.802 -13.771 -24.396  0.00  0.00    -0.026 C 
ATOM     16  C   UNL     1      32.681 -12.814 -23.396  0.00  0.00    -0.024 C 
ENDBRANCH   3   8
BRANCH   4  18
ATOM     17  N   UNL     1      35.592 -20.084 -21.377  0.00  0.00    -0.243 NA
ATOM     18  C   UNL     1      34.438 -19.623 -21.907  0.00  0.00    +0.096 C 
ATOM     19  C   UNL     1      33.190 -19.805 -21.335  0.00  0.00    +0.020 C 
ATOM     20  C   UNL     1      33.123 -20.508 -20.138  0.00  0.00    +0.003 C 
ATOM     21  C   UNL     1      35.486 -20.762 -20.213  0.00  0.00    +0.099 C 
ATOM     22  C   UNL     1      34.288 -20.999 -19.559  0.00  0.00    +0.021 C 
ENDBRANCH   4  18
TORSDOF 2
ENDMDL
