MODEL 1
REMARK VINA RESULT:      -6.1      0.000      0.000
REMARK  Name = 66762
REMARK  2 active torsions:
REMARK  status: ('A' for Active; 'I' for Inactive)
REMARK    1  A    between atoms: C_4  and  C_11
REMARK    2  A    between atoms: C_11  and  N_12
REMARK                            x       y       z     vdW  Elec       q    Type
REMARK                         _______ _______ _______ _____ _____    ______ ____
ROOT
ATOM      1  N   UNL     1      32.890 -21.810 -19.080  0.00  0.00    -0.341 NA
ATOM      2  N   UNL     1      35.156 -22.383 -18.493  0.00  0.00    -0.186 NA
ATOM      3  N   UNL     1      32.464 -20.197 -20.766  0.00  0.00    -0.332 N 
ATOM      4  C   UNL     1      34.732 -20.746 -20.205  0.00  0.00    +0.020 C 
ATOM      5  C   UNL     1      33.384 -20.944 -19.989  0.00  0.00    +0.183 C 
ATOM      6  C   UNL     1      35.580 -21.500 -19.420  0.00  0.00    +0.108 C 
ATOM      7  C   UNL     1      33.818 -22.486 -18.376  0.00  0.00    +0.066 C 
ATOM      8  C   UNL     1      33.311 -23.453 -17.361  0.00  0.00    +0.129 C 
ATOM      9  H   UNL     1      31.496 -20.318 -20.633  0.00  0.00    +0.145 HD
ATOM     10  H   UNL     1      32.792 -19.557 -21.438  0.00  0.00    +0.145 HD
ENDROOT
BRANCH   4  11
ATOM     11  C   UNL     1      35.272 -19.790 -21.208  0.00  0.00    -0.053 C 
BRANCH  11  12
ATOM     12  N   UNL     1      35.982 -18.666 -20.589  0.00  0.00    +0.383 N 
ATOM     13  H   UNL     1      36.226 -18.906 -19.629  0.00  0.00    -0.089 HD
ATOM     14  H   UNL     1      35.381 -17.842 -20.591  0.00  0.00    -0.089 HD
ATOM     15  H   UNL     1      36.831 -18.469 -21.118  0.00  0.00    -0.089 HD
ENDBRANCH  11  12
ENDBRANCH   4  11
TORSDOF 2
ENDMDL
MODEL 2
REMARK VINA RESULT:      -5.8      0.836      2.117
REMARK  Name = 66762
REMARK  2 active torsions:
REMARK  status: ('A' for Active; 'I' for Inactive)
REMARK    1  A    between atoms: C_4  and  C_11
REMARK    2  A    between atoms: C_11  and  N_12
REMARK                            x       y       z     vdW  Elec       q    Type
REMARK                         _______ _______ _______ _____ _____    ______ ____
ROOT
ATOM      1  N   UNL     1      35.034 -22.293 -18.699  0.00  0.00    -0.341 NA
ATOM      2  N   UNL     1      32.769 -21.622 -19.177  0.00  0.00    -0.186 NA
ATOM      3  N   UNL     1      36.847 -21.277 -19.841  0.00  0.00    -0.332 N 
ATOM      4  C   UNL     1      34.603 -20.585 -20.340  0.00  0.00    +0.020 C 
ATOM      5  C   UNL     1      35.454 -21.395 -19.614  0.00  0.00    +0.183 C 
ATOM      6  C   UNL     1      33.258 -20.744 -20.077  0.00  0.00    +0.108 C 
ATOM      7  C   UNL     1      33.699 -22.354 -18.534  0.00  0.00    +0.066 C 
ATOM      8  C   UNL     1      33.197 -23.336 -17.530  0.00  0.00    +0.129 C 
ATOM      9  H   UNL     1      37.477 -21.841 -19.338  0.00  0.00    +0.145 HD
ATOM     10  H   UNL     1      37.185 -20.630 -20.502  0.00  0.00    +0.145 HD
ENDROOT
BRANCH   4  11
ATOM     11  C   UNL     1      35.070 -19.597 -21.347  0.00  0.00    -0.053 C 
BRANCH  11  12
ATOM     12  N   UNL     1      35.360 -18.286 -20.756  0.00  0.00    +0.383 N 
ATOM     13  H   UNL     1      34.556 -17.672 -20.882  0.00  0.00    -0.089 HD
ATOM     14  H   UNL     1      36.174 -17.879 -21.215  0.00  0.00    -0.089 HD
ATOM     15  H   UNL     1      35.551 -18.397 -19.761  0.00  0.00    -0.089 HD
ENDBRANCH  11  12
ENDBRANCH   4  11
TORSDOF 2
ENDMDL
MODEL 3
REMARK VINA RESULT:      -5.7      1.276      4.351
REMARK  Name = 66762
REMARK  2 active torsions:
REMARK  status: ('A' for Active; 'I' for Inactive)
REMARK    1  A    between atoms: C_4  and  C_11
REMARK    2  A    between atoms: C_11  and  N_12
REMARK                            x       y       z     vdW  Elec       q    Type
REMARK                         _______ _______ _______ _____ _____    ______ ____
ROOT
ATOM      1  N   UNL     1      35.790 -19.520 -20.589  0.00  0.00    -0.341 NA
ATOM      2  N   UNL     1      33.427 -19.225 -20.963  0.00  0.00    -0.186 NA
ATOM      3  N   UNL     1      36.588 -21.442 -19.452  0.00  0.00    -0.332 N 
ATOM      4  C   UNL     1      34.229 -21.179 -19.809  0.00  0.00    +0.020 C 
ATOM      5  C   UNL     1      35.508 -20.684 -19.969  0.00  0.00    +0.183 C 
ATOM      6  C   UNL     1      33.218 -20.399 -20.331  0.00  0.00    +0.108 C 
ATOM      7  C   UNL     1      34.718 -18.851 -21.054  0.00  0.00    +0.066 C 
ATOM      8  C   UNL     1      34.989 -17.558 -21.746  0.00  0.00    +0.129 C 
ATOM      9  H   UNL     1      37.511 -21.114 -19.552  0.00  0.00    +0.145 HD
ATOM     10  H   UNL     1      36.416 -22.297 -18.995  0.00  0.00    +0.145 HD
ENDROOT
BRANCH   4  11
ATOM     11  C   UNL     1      33.924 -22.462 -19.125  0.00  0.00    -0.053 C 
BRANCH  11  12
ATOM     12  N   UNL     1      32.659 -22.418 -18.384  0.00  0.00    +0.383 N 
ATOM     13  H   UNL     1      32.790 -21.894 -17.519  0.00  0.00    -0.089 HD
ATOM     14  H   UNL     1      32.360 -23.368 -18.165  0.00  0.00    -0.089 HD
ATOM     15  H   UNL     1      31.948 -21.961 -18.954  0.00  0.00    -0.089 HD
ENDBRANCH  11  12
ENDBRANCH   4  11
TORSDOF 2
ENDMDL
MODEL 4
REMARK VINA RESULT:      -5.6      6.644      7.961
REMARK  Name = 66762
REMARK  2 active torsions:
REMARK  status: ('A' for Active; 'I' for Inactive)
REMARK    1  A    between atoms: C_4  and  C_11
REMARK    2  A    between atoms: C_11  and  N_12
REMARK                            x       y       z     vdW  Elec       q    Type
REMARK                         _______ _______ _______ _____ _____    ______ ____
ROOT
ATOM      1  N   UNL     1      38.390 -26.577 -14.756  0.00  0.00    -0.341 NA
ATOM      2  N   UNL     1      38.897 -24.293 -14.179  0.00  0.00    -0.186 NA
ATOM      3  N   UNL     1      36.159 -27.221 -15.235  0.00  0.00    -0.332 N 
ATOM      4  C   UNL     1      36.630 -24.938 -14.665  0.00  0.00    +0.020 C 
ATOM      5  C   UNL     1      37.095 -26.221 -14.875  0.00  0.00    +0.183 C 
ATOM      6  C   UNL     1      37.586 -24.006 -14.316  0.00  0.00    +0.108 C 
ATOM      7  C   UNL     1      39.225 -25.578 -14.410  0.00  0.00    +0.066 C 
ATOM      8  C   UNL     1      40.666 -25.934 -14.269  0.00  0.00    +0.129 C 
ATOM      9  H   UNL     1      36.462 -28.145 -15.392  0.00  0.00    +0.145 HD
ATOM     10  H   UNL     1      35.206 -26.993 -15.330  0.00  0.00    +0.145 HD
ENDROOT
BRANCH   4  11
ATOM     11  C   UNL     1      35.201 -24.550 -14.796  0.00  0.00    -0.053 C 
BRANCH  11  12
ATOM     12  N   UNL     1      34.467 -24.670 -13.532  0.00  0.00    +0.383 N 
ATOM     13  H   UNL     1      34.800 -25.487 -13.022  0.00  0.00    -0.089 HD
ATOM     14  H   UNL     1      33.471 -24.772 -13.726  0.00  0.00    -0.089 HD
ATOM     15  H   UNL     1      34.620 -23.833 -12.971  0.00  0.00    -0.089 HD
ENDBRANCH  11  12
ENDBRANCH   4  11
TORSDOF 2
ENDMDL
MODEL 5
REMARK VINA RESULT:      -5.5      6.026      7.654
REMARK  Name = 66762
REMARK  2 active torsions:
REMARK  status: ('A' for Active; 'I' for Inactive)
REMARK    1  A    between atoms: C_4  and  C_11
REMARK    2  A    between atoms: C_11  and  N_12
REMARK                            x       y       z     vdW  Elec       q    Type
REMARK                         _______ _______ _______ _____ _____    ______ ____
ROOT
ATOM      1  N   UNL     1      38.863 -24.429 -14.789  0.00  0.00    -0.341 NA
ATOM      2  N   UNL     1      38.286 -26.763 -14.621  0.00  0.00    -0.186 NA
ATOM      3  N   UNL     1      37.169 -22.802 -15.119  0.00  0.00    -0.332 N 
ATOM      4  C   UNL     1      36.562 -25.118 -14.956  0.00  0.00    +0.020 C 
ATOM      5  C   UNL     1      37.551 -24.155 -14.949  0.00  0.00    +0.183 C 
ATOM      6  C   UNL     1      36.993 -26.418 -14.786  0.00  0.00    +0.108 C 
ATOM      7  C   UNL     1      39.155 -25.735 -14.633  0.00  0.00    +0.066 C 
ATOM      8  C   UNL     1      40.595 -26.077 -14.453  0.00  0.00    +0.129 C 
ATOM      9  H   UNL     1      37.854 -22.094 -15.118  0.00  0.00    +0.145 HD
ATOM     10  H   UNL     1      36.221 -22.569 -15.238  0.00  0.00    +0.145 HD
ENDROOT
BRANCH   4  11
ATOM     11  C   UNL     1      35.118 -24.811 -15.133  0.00  0.00    -0.053 C 
BRANCH  11  12
ATOM     12  N   UNL     1      34.381 -24.826 -13.865  0.00  0.00    +0.383 N 
ATOM     13  H   UNL     1      33.526 -24.279 -13.963  0.00  0.00    -0.089 HD
ATOM     14  H   UNL     1      34.960 -24.422 -13.130  0.00  0.00    -0.089 HD
ATOM     15  H   UNL     1      34.144 -25.787 -13.621  0.00  0.00    -0.089 HD
ENDBRANCH  11  12
ENDBRANCH   4  11
TORSDOF 2
ENDMDL
MODEL 6
REMARK VINA RESULT:      -5.5      4.731      7.151
REMARK  Name = 66762
REMARK  2 active torsions:
REMARK  status: ('A' for Active; 'I' for Inactive)
REMARK    1  A    between atoms: C_4  and  C_11
REMARK    2  A    between atoms: C_11  and  N_12
REMARK                            x       y       z     vdW  Elec       q    Type
REMARK                         _______ _______ _______ _____ _____    ______ ____
ROOT
ATOM      1  N   UNL     1      33.998 -17.198 -25.431  0.00  0.00    -0.341 NA
ATOM      2  N   UNL     1      34.240 -15.194 -24.114  0.00  0.00    -0.186 NA
ATOM      3  N   UNL     1      34.814 -19.269 -24.614  0.00  0.00    -0.332 N 
ATOM      4  C   UNL     1      35.070 -17.292 -23.278  0.00  0.00    +0.020 C 
ATOM      5  C   UNL     1      34.617 -17.877 -24.443  0.00  0.00    +0.183 C 
ATOM      6  C   UNL     1      34.851 -15.934 -23.167  0.00  0.00    +0.108 C 
ATOM      7  C   UNL     1      33.845 -15.879 -25.204  0.00  0.00    +0.066 C 
ATOM      8  C   UNL     1      33.164 -15.095 -26.274  0.00  0.00    +0.129 C 
ATOM      9  H   UNL     1      34.501 -19.713 -25.435  0.00  0.00    +0.145 HD
ATOM     10  H   UNL     1      35.262 -19.793 -23.912  0.00  0.00    +0.145 HD
ENDROOT
BRANCH   4  11
ATOM     11  C   UNL     1      35.752 -18.044 -22.193  0.00  0.00    -0.053 C 
BRANCH  11  12
ATOM     12  N   UNL     1      35.346 -17.596 -20.856  0.00  0.00    +0.383 N 
ATOM     13  H   UNL     1      35.927 -18.053 -20.154  0.00  0.00    -0.089 HD
ATOM     14  H   UNL     1      34.368 -17.838 -20.699  0.00  0.00    -0.089 HD
ATOM     15  H   UNL     1      35.462 -16.585 -20.788  0.00  0.00    -0.089 HD
ENDBRANCH  11  12
ENDBRANCH   4  11
TORSDOF 2
ENDMDL
MODEL 7
REMARK VINA RESULT:      -5.5      5.595      8.012
REMARK  Name = 66762
REMARK  2 active torsions:
REMARK  status: ('A' for Active; 'I' for Inactive)
REMARK    1  A    between atoms: C_4  and  C_11
REMARK    2  A    between atoms: C_11  and  N_12
REMARK                            x       y       z     vdW  Elec       q    Type
REMARK                         _______ _______ _______ _____ _____    ______ ____
ROOT
ATOM      1  N   UNL     1      33.550 -14.406 -24.412  0.00  0.00    -0.341 NA
ATOM      2  N   UNL     1      33.948 -16.234 -25.931  0.00  0.00    -0.186 NA
ATOM      3  N   UNL     1      34.321 -14.525 -22.172  0.00  0.00    -0.332 N 
ATOM      4  C   UNL     1      34.734 -16.363 -23.660  0.00  0.00    +0.020 C 
ATOM      5  C   UNL     1      34.194 -15.109 -23.457  0.00  0.00    +0.183 C 
ATOM      6  C   UNL     1      34.580 -16.881 -24.930  0.00  0.00    +0.108 C 
ATOM      7  C   UNL     1      33.465 -15.020 -25.608  0.00  0.00    +0.066 C 
ATOM      8  C   UNL     1      32.760 -14.274 -26.690  0.00  0.00    +0.129 C 
ATOM      9  H   UNL     1      33.945 -13.632 -21.999  0.00  0.00    +0.145 HD
ATOM     10  H   UNL     1      34.785 -15.012 -21.454  0.00  0.00    +0.145 HD
ENDROOT
BRANCH   4  11
ATOM     11  C   UNL     1      35.442 -17.133 -22.604  0.00  0.00    -0.053 C 
BRANCH  11  12
ATOM     12  N   UNL     1      36.169 -18.288 -23.142  0.00  0.00    +0.383 N 
ATOM     13  H   UNL     1      35.942 -19.117 -22.594  0.00  0.00    -0.089 HD
ATOM     14  H   UNL     1      37.172 -18.112 -23.093  0.00  0.00    -0.089 HD
ATOM     15  H   UNL     1      35.897 -18.437 -24.114  0.00  0.00    -0.089 HD
ENDBRANCH  11  12
ENDBRANCH   4  11
TORSDOF 2
ENDMDL
MODEL 8
REMARK VINA RESULT:      -5.4      2.761      5.296
REMARK  Name = 66762
REMARK  2 active torsions:
REMARK  status: ('A' for Active; 'I' for Inactive)
REMARK    1  A    between atoms: C_4  and  C_11
REMARK    2  A    between atoms: C_11  and  N_12
REMARK                            x       y       z     vdW  Elec       q    Type
REMARK                         _______ _______ _______ _____ _____    ______ ____
ROOT
ATOM      1  N   UNL     1      32.341 -22.607 -17.971  0.00  0.00    -0.341 NA
ATOM      2  N   UNL     1      34.489 -23.215 -17.062  0.00  0.00    -0.186 NA
ATOM      3  N   UNL     1      30.383 -22.818 -16.650  0.00  0.00    -0.332 N 
ATOM      4  C   UNL     1      32.506 -23.431 -15.715  0.00  0.00    +0.020 C 
ATOM      5  C   UNL     1      31.786 -22.953 -16.791  0.00  0.00    +0.183 C 
ATOM      6  C   UNL     1      33.868 -23.542 -15.910  0.00  0.00    +0.108 C 
ATOM      7  C   UNL     1      33.678 -22.762 -18.036  0.00  0.00    +0.066 C 
ATOM      8  C   UNL     1      34.328 -22.390 -19.325  0.00  0.00    +0.129 C 
ATOM      9  H   UNL     1      29.843 -22.479 -17.401  0.00  0.00    +0.145 HD
ATOM     10  H   UNL     1      29.947 -23.061 -15.802  0.00  0.00    +0.145 HD
ENDROOT
BRANCH   4  11
ATOM     11  C   UNL     1      31.890 -23.811 -14.417  0.00  0.00    -0.053 C 
BRANCH  11  12
ATOM     12  N   UNL     1      32.438 -25.060 -13.878  0.00  0.00    +0.383 N 
ATOM     13  H   UNL     1      32.305 -25.082 -12.868  0.00  0.00    -0.089 HD
ATOM     14  H   UNL     1      33.433 -25.115 -14.091  0.00  0.00    -0.089 HD
ATOM     15  H   UNL     1      31.956 -25.853 -14.302  0.00  0.00    -0.089 HD
ENDBRANCH  11  12
ENDBRANCH   4  11
TORSDOF 2
ENDMDL
MODEL 9
REMARK VINA RESULT:      -5.4      1.528      2.827
REMARK  Name = 66762
REMARK  2 active torsions:
REMARK  status: ('A' for Active; 'I' for Inactive)
REMARK    1  A    between atoms: C_4  and  C_11
REMARK    2  A    between atoms: C_11  and  N_12
REMARK                            x       y       z     vdW  Elec       q    Type
REMARK                         _______ _______ _______ _____ _____    ______ ____
ROOT
ATOM      1  N   UNL     1      35.230 -20.879 -19.667  0.00  0.00    -0.341 NA
ATOM      2  N   UNL     1      32.964 -20.588 -20.434  0.00  0.00    -0.186 NA
ATOM      3  N   UNL     1      36.953 -19.460 -20.468  0.00  0.00    -0.332 N 
ATOM      4  C   UNL     1      34.707 -19.144 -21.251  0.00  0.00    +0.020 C 
ATOM      5  C   UNL     1      35.590 -19.846 -20.456  0.00  0.00    +0.183 C 
ATOM      6  C   UNL     1      33.394 -19.564 -21.199  0.00  0.00    +0.108 C 
ATOM      7  C   UNL     1      33.921 -21.193 -19.704  0.00  0.00    +0.066 C 
ATOM      8  C   UNL     1      33.484 -22.330 -18.844  0.00  0.00    +0.129 C 
ATOM      9  H   UNL     1      37.606 -19.942 -19.910  0.00  0.00    +0.145 HD
ATOM     10  H   UNL     1      37.248 -18.710 -21.033  0.00  0.00    +0.145 HD
ENDROOT
BRANCH   4  11
ATOM     11  C   UNL     1      35.109 -18.006 -22.120  0.00  0.00    -0.053 C 
BRANCH  11  12
ATOM     12  N   UNL     1      35.683 -18.448 -23.395  0.00  0.00    +0.383 N 
ATOM     13  H   UNL     1      35.481 -19.437 -23.534  0.00  0.00    -0.089 HD
ATOM     14  H   UNL     1      36.693 -18.306 -23.380  0.00  0.00    -0.089 HD
ATOM     15  H   UNL     1      35.276 -17.906 -24.156  0.00  0.00    -0.089 HD
ENDBRANCH  11  12
ENDBRANCH   4  11
TORSDOF 2
ENDMDL
