MODEL 1
REMARK VINA RESULT:      -6.2      0.000      0.000
REMARK  Name = 449346
REMARK  8 active torsions:
REMARK  status: ('A' for Active; 'I' for Inactive)
REMARK    1  A    between atoms: C_1  and  C_4
REMARK    2  A    between atoms: C_1  and  O_9
REMARK    3  A    between atoms: C_1  and  C_11
REMARK    4  A    between atoms: N_3  and  C_6
REMARK    5  A    between atoms: C_6  and  C_7
REMARK    6  A    between atoms: C_11  and  O_12
REMARK    7  A    between atoms: C_11  and  C_15
REMARK    8  A    between atoms: C_15  and  O_16
REMARK                            x       y       z     vdW  Elec       q    Type
REMARK                         _______ _______ _______ _____ _____    ______ ____
ROOT
ATOM      1  C   UNL     1      38.041 -24.865 -13.880  0.00  0.00    +0.225 C 
ENDROOT
BRANCH   1   4
ATOM      2  O   UNL     1      38.326 -23.238 -15.646  0.00  0.00    -0.272 OA
ATOM      3  N   UNL     1      36.170 -23.819 -15.009  0.00  0.00    -0.302 N 
ATOM      4  C   UNL     1      37.554 -23.880 -14.937  0.00  0.00    +0.252 C 
ATOM      5  H   UNL     1      35.642 -24.377 -14.393  0.00  0.00    +0.150 HD
BRANCH   3   6
ATOM      6  C   UNL     1      35.470 -22.975 -15.949  0.00  0.00    +0.089 C 
BRANCH   6   7
ATOM      7  C   UNL     1      33.979 -23.283 -16.009  0.00  0.00    +0.021 C 
ATOM      8  C   UNL     1      33.420 -23.211 -17.422  0.00  0.00    +0.002 C 
ENDBRANCH   6   7
ENDBRANCH   3   6
ENDBRANCH   1   4
BRANCH   1   9
ATOM      9  O   UNL     1      39.071 -24.245 -13.122  0.00  0.00    -0.374 OA
ATOM     10  H   UNL     1      39.928 -24.418 -13.542  0.00  0.00    +0.211 HD
ENDBRANCH   1   9
BRANCH   1  11
ATOM     11  C   UNL     1      38.547 -26.168 -14.506  0.00  0.00    +0.246 C 
BRANCH  11  12
ATOM     12  O   UNL     1      37.885 -26.373 -15.749  0.00  0.00    -0.372 OA
ATOM     13  H   UNL     1      38.328 -27.083 -16.238  0.00  0.00    +0.211 HD
ENDBRANCH  11  12
BRANCH  11  15
ATOM     14  O   UNL     1      40.904 -26.390 -13.947  0.00  0.00    -0.247 OA
ATOM     15  C   UNL     1      40.039 -26.111 -14.768  0.00  0.00    +0.344 C 
BRANCH  15  16
ATOM     16  O   UNL     1      40.323 -25.730 -16.041  0.00  0.00    -0.478 OA
ATOM     17  H   UNL     1      41.152 -25.343 -16.239  0.00  0.00    +0.295 HD
ENDBRANCH  15  16
ENDBRANCH  11  15
ENDBRANCH   1  11
TORSDOF 8
ENDMDL
MODEL 2
REMARK VINA RESULT:      -6.2      1.747      2.564
REMARK  Name = 449346
REMARK  8 active torsions:
REMARK  status: ('A' for Active; 'I' for Inactive)
REMARK    1  A    between atoms: C_1  and  C_4
REMARK    2  A    between atoms: C_1  and  O_9
REMARK    3  A    between atoms: C_1  and  C_11
REMARK    4  A    between atoms: N_3  and  C_6
REMARK    5  A    between atoms: C_6  and  C_7
REMARK    6  A    between atoms: C_11  and  O_12
REMARK    7  A    between atoms: C_11  and  C_15
REMARK    8  A    between atoms: C_15  and  O_16
REMARK                            x       y       z     vdW  Elec       q    Type
REMARK                         _______ _______ _______ _____ _____    ______ ____
ROOT
ATOM      1  C   UNL     1      37.784 -25.997 -14.643  0.00  0.00    +0.225 C 
ENDROOT
BRANCH   1   4
ATOM      2  O   UNL     1      36.952 -26.383 -12.406  0.00  0.00    -0.272 OA
ATOM      3  N   UNL     1      35.843 -24.852 -13.754  0.00  0.00    -0.302 N 
ATOM      4  C   UNL     1      36.828 -25.788 -13.474  0.00  0.00    +0.252 C 
ATOM      5  H   UNL     1      35.833 -24.432 -14.644  0.00  0.00    +0.150 HD
BRANCH   3   6
ATOM      6  C   UNL     1      34.833 -24.466 -12.796  0.00  0.00    +0.089 C 
BRANCH   6   7
ATOM      7  C   UNL     1      33.528 -24.050 -13.463  0.00  0.00    +0.021 C 
ATOM      8  C   UNL     1      33.720 -23.608 -14.906  0.00  0.00    +0.002 C 
ENDBRANCH   6   7
ENDBRANCH   3   6
ENDBRANCH   1   4
BRANCH   1   9
ATOM      9  O   UNL     1      38.164 -27.365 -14.680  0.00  0.00    -0.374 OA
ATOM     10  H   UNL     1      38.877 -27.519 -14.041  0.00  0.00    +0.211 HD
ENDBRANCH   1   9
BRANCH   1  11
ATOM     11  C   UNL     1      39.021 -25.100 -14.533  0.00  0.00    +0.246 C 
BRANCH  11  12
ATOM     12  O   UNL     1      39.076 -24.543 -13.225  0.00  0.00    -0.372 OA
ATOM     13  H   UNL     1      38.667 -25.156 -12.595  0.00  0.00    +0.211 HD
ENDBRANCH  11  12
BRANCH  11  15
ATOM     14  O   UNL     1      40.987 -26.375 -13.879  0.00  0.00    -0.247 OA
ATOM     15  C   UNL     1      40.296 -25.888 -14.765  0.00  0.00    +0.344 C 
BRANCH  15  16
ATOM     16  O   UNL     1      40.587 -26.016 -16.086  0.00  0.00    -0.478 OA
ATOM     17  H   UNL     1      39.900 -26.162 -16.704  0.00  0.00    +0.295 HD
ENDBRANCH  15  16
ENDBRANCH  11  15
ENDBRANCH   1  11
TORSDOF 8
ENDMDL
MODEL 3
REMARK VINA RESULT:      -6.1      2.640      3.622
REMARK  Name = 449346
REMARK  8 active torsions:
REMARK  status: ('A' for Active; 'I' for Inactive)
REMARK    1  A    between atoms: C_1  and  C_4
REMARK    2  A    between atoms: C_1  and  O_9
REMARK    3  A    between atoms: C_1  and  C_11
REMARK    4  A    between atoms: N_3  and  C_6
REMARK    5  A    between atoms: C_6  and  C_7
REMARK    6  A    between atoms: C_11  and  O_12
REMARK    7  A    between atoms: C_11  and  C_15
REMARK    8  A    between atoms: C_15  and  O_16
REMARK                            x       y       z     vdW  Elec       q    Type
REMARK                         _______ _______ _______ _____ _____    ______ ____
ROOT
ATOM      1  C   UNL     1      37.805 -26.037 -14.475  0.00  0.00    +0.225 C 
ENDROOT
BRANCH   1   4
ATOM      2  O   UNL     1      37.147 -26.659 -12.234  0.00  0.00    -0.272 OA
ATOM      3  N   UNL     1      36.098 -24.846 -13.236  0.00  0.00    -0.302 N 
ATOM      4  C   UNL     1      36.992 -25.906 -13.192  0.00  0.00    +0.252 C 
ATOM      5  H   UNL     1      36.053 -24.302 -14.056  0.00  0.00    +0.150 HD
BRANCH   3   6
ATOM      6  C   UNL     1      35.232 -24.505 -12.131  0.00  0.00    +0.089 C 
BRANCH   6   7
ATOM      7  C   UNL     1      35.991 -23.873 -10.971  0.00  0.00    +0.021 C 
ATOM      8  C   UNL     1      37.028 -22.859 -11.430  0.00  0.00    +0.002 C 
ENDBRANCH   6   7
ENDBRANCH   3   6
ENDBRANCH   1   4
BRANCH   1   9
ATOM      9  O   UNL     1      38.163 -27.401 -14.648  0.00  0.00    -0.374 OA
ATOM     10  H   UNL     1      39.125 -27.470 -14.756  0.00  0.00    +0.211 HD
ENDBRANCH   1   9
BRANCH   1  11
ATOM     11  C   UNL     1      39.056 -25.153 -14.448  0.00  0.00    +0.246 C 
BRANCH  11  12
ATOM     12  O   UNL     1      39.257 -24.672 -13.125  0.00  0.00    -0.372 OA
ATOM     13  H   UNL     1      39.358 -23.709 -13.143  0.00  0.00    +0.211 HD
ENDBRANCH  11  12
BRANCH  11  15
ATOM     14  O   UNL     1      40.667 -26.083 -16.016  0.00  0.00    -0.247 OA
ATOM     15  C   UNL     1      40.290 -25.932 -14.861  0.00  0.00    +0.344 C 
BRANCH  15  16
ATOM     16  O   UNL     1      40.959 -26.437 -13.792  0.00  0.00    -0.478 OA
ATOM     17  H   UNL     1      41.728 -26.007 -13.475  0.00  0.00    +0.295 HD
ENDBRANCH  15  16
ENDBRANCH  11  15
ENDBRANCH   1  11
TORSDOF 8
ENDMDL
MODEL 4
REMARK VINA RESULT:      -5.9      1.431      2.204
REMARK  Name = 449346
REMARK  8 active torsions:
REMARK  status: ('A' for Active; 'I' for Inactive)
REMARK    1  A    between atoms: C_1  and  C_4
REMARK    2  A    between atoms: C_1  and  O_9
REMARK    3  A    between atoms: C_1  and  C_11
REMARK    4  A    between atoms: N_3  and  C_6
REMARK    5  A    between atoms: C_6  and  C_7
REMARK    6  A    between atoms: C_11  and  O_12
REMARK    7  A    between atoms: C_11  and  C_15
REMARK    8  A    between atoms: C_15  and  O_16
REMARK                            x       y       z     vdW  Elec       q    Type
REMARK                         _______ _______ _______ _____ _____    ______ ____
ROOT
ATOM      1  C   UNL     1      37.864 -26.393 -14.307  0.00  0.00    +0.225 C 
ENDROOT
BRANCH   1   4
ATOM      2  O   UNL     1      36.034 -26.670 -15.863  0.00  0.00    -0.272 OA
ATOM      3  N   UNL     1      36.168 -24.698 -14.644  0.00  0.00    -0.302 N 
ATOM      4  C   UNL     1      36.599 -25.956 -15.036  0.00  0.00    +0.252 C 
ATOM      5  H   UNL     1      36.695 -24.208 -13.972  0.00  0.00    +0.150 HD
BRANCH   3   6
ATOM      6  C   UNL     1      34.978 -24.075 -15.177  0.00  0.00    +0.089 C 
BRANCH   6   7
ATOM      7  C   UNL     1      35.297 -22.984 -16.191  0.00  0.00    +0.021 C 
ATOM      8  C   UNL     1      36.698 -22.413 -16.020  0.00  0.00    +0.002 C 
ENDBRANCH   6   7
ENDBRANCH   3   6
ENDBRANCH   1   4
BRANCH   1   9
ATOM      9  O   UNL     1      37.545 -26.624 -12.942  0.00  0.00    -0.374 OA
ATOM     10  H   UNL     1      36.704 -26.191 -12.730  0.00  0.00    +0.211 HD
ENDBRANCH   1   9
BRANCH   1  11
ATOM     11  C   UNL     1      38.979 -25.349 -14.427  0.00  0.00    +0.246 C 
BRANCH  11  12
ATOM     12  O   UNL     1      39.107 -24.662 -13.189  0.00  0.00    -0.372 OA
ATOM     13  H   UNL     1      40.042 -24.465 -13.023  0.00  0.00    +0.211 HD
ENDBRANCH  11  12
BRANCH  11  15
ATOM     14  O   UNL     1      41.072 -26.479 -13.917  0.00  0.00    -0.247 OA
ATOM     15  C   UNL     1      40.311 -25.999 -14.748  0.00  0.00    +0.344 C 
BRANCH  15  16
ATOM     16  O   UNL     1      40.570 -26.010 -16.081  0.00  0.00    -0.478 OA
ATOM     17  H   UNL     1      41.453 -26.074 -16.386  0.00  0.00    +0.295 HD
ENDBRANCH  15  16
ENDBRANCH  11  15
ENDBRANCH   1  11
TORSDOF 8
ENDMDL
MODEL 5
REMARK VINA RESULT:      -5.9      2.168      2.594
REMARK  Name = 449346
REMARK  8 active torsions:
REMARK  status: ('A' for Active; 'I' for Inactive)
REMARK    1  A    between atoms: C_1  and  C_4
REMARK    2  A    between atoms: C_1  and  O_9
REMARK    3  A    between atoms: C_1  and  C_11
REMARK    4  A    between atoms: N_3  and  C_6
REMARK    5  A    between atoms: C_6  and  C_7
REMARK    6  A    between atoms: C_11  and  O_12
REMARK    7  A    between atoms: C_11  and  C_15
REMARK    8  A    between atoms: C_15  and  O_16
REMARK                            x       y       z     vdW  Elec       q    Type
REMARK                         _______ _______ _______ _____ _____    ______ ____
ROOT
ATOM      1  C   UNL     1      36.842 -23.702 -14.174  0.00  0.00    +0.225 C 
ENDROOT
BRANCH   1   4
ATOM      2  O   UNL     1      38.652 -23.350 -15.738  0.00  0.00    -0.272 OA
ATOM      3  N   UNL     1      36.563 -22.471 -16.242  0.00  0.00    -0.302 N 
ATOM      4  C   UNL     1      37.471 -23.162 -15.454  0.00  0.00    +0.252 C 
ATOM      5  H   UNL     1      35.637 -22.378 -15.920  0.00  0.00    +0.150 HD
BRANCH   3   6
ATOM      6  C   UNL     1      36.916 -21.885 -17.514  0.00  0.00    +0.089 C 
BRANCH   6   7
ATOM      7  C   UNL     1      35.751 -21.883 -18.496  0.00  0.00    +0.021 C 
ATOM      8  C   UNL     1      36.091 -21.196 -19.811  0.00  0.00    +0.002 C 
ENDBRANCH   6   7
ENDBRANCH   3   6
ENDBRANCH   1   4
BRANCH   1   9
ATOM      9  O   UNL     1      37.727 -23.450 -13.092  0.00  0.00    -0.374 OA
ATOM     10  H   UNL     1      38.530 -23.982 -13.202  0.00  0.00    +0.211 HD
ENDBRANCH   1   9
BRANCH   1  11
ATOM     11  C   UNL     1      36.537 -25.199 -14.279  0.00  0.00    +0.246 C 
BRANCH  11  12
ATOM     12  O   UNL     1      36.886 -25.655 -15.581  0.00  0.00    -0.372 OA
ATOM     13  H   UNL     1      36.673 -26.597 -15.662  0.00  0.00    +0.211 HD
ENDBRANCH  11  12
BRANCH  11  15
ATOM     14  O   UNL     1      36.934 -26.322 -12.158  0.00  0.00    -0.247 OA
ATOM     15  C   UNL     1      37.337 -25.998 -13.268  0.00  0.00    +0.344 C 
BRANCH  15  16
ATOM     16  O   UNL     1      38.564 -26.340 -13.740  0.00  0.00    -0.478 OA
ATOM     17  H   UNL     1      39.073 -26.986 -13.293  0.00  0.00    +0.295 HD
ENDBRANCH  15  16
ENDBRANCH  11  15
ENDBRANCH   1  11
TORSDOF 8
ENDMDL
MODEL 6
REMARK VINA RESULT:      -5.9      2.589      3.914
REMARK  Name = 449346
REMARK  8 active torsions:
REMARK  status: ('A' for Active; 'I' for Inactive)
REMARK    1  A    between atoms: C_1  and  C_4
REMARK    2  A    between atoms: C_1  and  O_9
REMARK    3  A    between atoms: C_1  and  C_11
REMARK    4  A    between atoms: N_3  and  C_6
REMARK    5  A    between atoms: C_6  and  C_7
REMARK    6  A    between atoms: C_11  and  O_12
REMARK    7  A    between atoms: C_11  and  C_15
REMARK    8  A    between atoms: C_15  and  O_16
REMARK                            x       y       z     vdW  Elec       q    Type
REMARK                         _______ _______ _______ _____ _____    ______ ____
ROOT
ATOM      1  C   UNL     1      37.350 -25.035 -12.827  0.00  0.00    +0.225 C 
ENDROOT
BRANCH   1   4
ATOM      2  O   UNL     1      38.511 -23.958 -14.654  0.00  0.00    -0.272 OA
ATOM      3  N   UNL     1      36.194 -23.833 -14.584  0.00  0.00    -0.302 N 
ATOM      4  C   UNL     1      37.440 -24.218 -14.111  0.00  0.00    +0.252 C 
ATOM      5  H   UNL     1      35.395 -24.094 -14.071  0.00  0.00    +0.150 HD
BRANCH   3   6
ATOM      6  C   UNL     1      36.017 -23.069 -15.797  0.00  0.00    +0.089 C 
BRANCH   6   7
ATOM      7  C   UNL     1      34.582 -23.111 -16.307  0.00  0.00    +0.021 C 
ATOM      8  C   UNL     1      33.593 -23.562 -15.242  0.00  0.00    +0.002 C 
ENDBRANCH   6   7
ENDBRANCH   3   6
ENDBRANCH   1   4
BRANCH   1   9
ATOM      9  O   UNL     1      36.331 -26.014 -12.982  0.00  0.00    -0.374 OA
ATOM     10  H   UNL     1      35.509 -25.582 -13.263  0.00  0.00    +0.211 HD
ENDBRANCH   1   9
BRANCH   1  11
ATOM     11  C   UNL     1      37.063 -24.152 -11.609  0.00  0.00    +0.246 C 
BRANCH  11  12
ATOM     12  O   UNL     1      37.253 -22.788 -11.969  0.00  0.00    -0.372 OA
ATOM     13  H   UNL     1      37.251 -22.240 -11.170  0.00  0.00    +0.211 HD
ENDBRANCH  11  12
BRANCH  11  15
ATOM     14  O   UNL     1      35.292 -25.014 -10.181  0.00  0.00    -0.247 OA
ATOM     15  C   UNL     1      35.634 -24.319 -11.130  0.00  0.00    +0.344 C 
BRANCH  15  16
ATOM     16  O   UNL     1      34.756 -23.589 -11.865  0.00  0.00    -0.478 OA
ATOM     17  H   UNL     1      35.072 -22.993 -12.515  0.00  0.00    +0.295 HD
ENDBRANCH  15  16
ENDBRANCH  11  15
ENDBRANCH   1  11
TORSDOF 8
ENDMDL
MODEL 7
REMARK VINA RESULT:      -5.8      1.498      2.062
REMARK  Name = 449346
REMARK  8 active torsions:
REMARK  status: ('A' for Active; 'I' for Inactive)
REMARK    1  A    between atoms: C_1  and  C_4
REMARK    2  A    between atoms: C_1  and  O_9
REMARK    3  A    between atoms: C_1  and  C_11
REMARK    4  A    between atoms: N_3  and  C_6
REMARK    5  A    between atoms: C_6  and  C_7
REMARK    6  A    between atoms: C_11  and  O_12
REMARK    7  A    between atoms: C_11  and  C_15
REMARK    8  A    between atoms: C_15  and  O_16
REMARK                            x       y       z     vdW  Elec       q    Type
REMARK                         _______ _______ _______ _____ _____    ______ ____
ROOT
ATOM      1  C   UNL     1      37.818 -24.053 -14.421  0.00  0.00    +0.225 C 
ENDROOT
BRANCH   1   4
ATOM      2  O   UNL     1      36.339 -25.561 -15.597  0.00  0.00    -0.272 OA
ATOM      3  N   UNL     1      35.411 -23.990 -14.162  0.00  0.00    -0.302 N 
ATOM      4  C   UNL     1      36.460 -24.626 -14.809  0.00  0.00    +0.252 C 
ATOM      5  H   UNL     1      35.617 -23.249 -13.548  0.00  0.00    +0.150 HD
BRANCH   3   6
ATOM      6  C   UNL     1      34.029 -24.369 -14.348  0.00  0.00    +0.089 C 
BRANCH   6   7
ATOM      7  C   UNL     1      33.258 -23.359 -15.189  0.00  0.00    +0.021 C 
ATOM      8  C   UNL     1      31.905 -23.006 -14.590  0.00  0.00    +0.002 C 
ENDBRANCH   6   7
ENDBRANCH   3   6
ENDBRANCH   1   4
BRANCH   1   9
ATOM      9  O   UNL     1      38.557 -23.795 -15.607  0.00  0.00    -0.374 OA
ATOM     10  H   UNL     1      38.967 -24.617 -15.918  0.00  0.00    +0.211 HD
ENDBRANCH   1   9
BRANCH   1  11
ATOM     11  C   UNL     1      38.594 -25.002 -13.503  0.00  0.00    +0.246 C 
BRANCH  11  12
ATOM     12  O   UNL     1      37.729 -26.050 -13.081  0.00  0.00    -0.372 OA
ATOM     13  H   UNL     1      37.217 -26.372 -13.838  0.00  0.00    +0.211 HD
ENDBRANCH  11  12
BRANCH  11  15
ATOM     14  O   UNL     1      39.746 -26.695 -14.816  0.00  0.00    -0.247 OA
ATOM     15  C   UNL     1      39.775 -25.625 -14.222  0.00  0.00    +0.344 C 
BRANCH  15  16
ATOM     16  O   UNL     1      40.886 -24.846 -14.155  0.00  0.00    -0.478 OA
ATOM     17  H   UNL     1      40.890 -24.002 -14.559  0.00  0.00    +0.295 HD
ENDBRANCH  15  16
ENDBRANCH  11  15
ENDBRANCH   1  11
TORSDOF 8
ENDMDL
MODEL 8
REMARK VINA RESULT:      -5.7      8.676     11.183
REMARK  Name = 449346
REMARK  8 active torsions:
REMARK  status: ('A' for Active; 'I' for Inactive)
REMARK    1  A    between atoms: C_1  and  C_4
REMARK    2  A    between atoms: C_1  and  O_9
REMARK    3  A    between atoms: C_1  and  C_11
REMARK    4  A    between atoms: N_3  and  C_6
REMARK    5  A    between atoms: C_6  and  C_7
REMARK    6  A    between atoms: C_11  and  O_12
REMARK    7  A    between atoms: C_11  and  C_15
REMARK    8  A    between atoms: C_15  and  O_16
REMARK                            x       y       z     vdW  Elec       q    Type
REMARK                         _______ _______ _______ _____ _____    ______ ____
ROOT
ATOM      1  C   UNL     1      35.040 -18.256 -23.128  0.00  0.00    +0.225 C 
ENDROOT
BRANCH   1   4
ATOM      2  O   UNL     1      34.828 -17.680 -20.789  0.00  0.00    -0.272 OA
ATOM      3  N   UNL     1      33.716 -19.561 -21.574  0.00  0.00    -0.302 N 
ATOM      4  C   UNL     1      34.537 -18.450 -21.702  0.00  0.00    +0.252 C 
ATOM      5  H   UNL     1      33.545 -20.113 -22.372  0.00  0.00    +0.150 HD
BRANCH   3   6
ATOM      6  C   UNL     1      33.098 -19.941 -20.325  0.00  0.00    +0.089 C 
BRANCH   6   7
ATOM      7  C   UNL     1      33.555 -21.313 -19.844  0.00  0.00    +0.021 C 
ATOM      8  C   UNL     1      35.051 -21.372 -19.571  0.00  0.00    +0.002 C 
ENDBRANCH   6   7
ENDBRANCH   3   6
ENDBRANCH   1   4
BRANCH   1   9
ATOM      9  O   UNL     1      36.457 -18.352 -23.127  0.00  0.00    -0.374 OA
ATOM     10  H   UNL     1      36.820 -17.776 -23.817  0.00  0.00    +0.211 HD
ENDBRANCH   1   9
BRANCH   1  11
ATOM     11  C   UNL     1      34.595 -16.910 -23.709  0.00  0.00    +0.246 C 
BRANCH  11  12
ATOM     12  O   UNL     1      35.588 -15.932 -23.429  0.00  0.00    -0.372 OA
ATOM     13  H   UNL     1      36.451 -16.364 -23.335  0.00  0.00    +0.211 HD
ENDBRANCH  11  12
BRANCH  11  15
ATOM     14  O   UNL     1      34.171 -16.034 -25.939  0.00  0.00    -0.247 OA
ATOM     15  C   UNL     1      34.420 -16.989 -25.213  0.00  0.00    +0.344 C 
BRANCH  15  16
ATOM     16  O   UNL     1      34.590 -18.252 -25.684  0.00  0.00    -0.478 OA
ATOM     17  H   UNL     1      34.978 -18.389 -26.525  0.00  0.00    +0.295 HD
ENDBRANCH  15  16
ENDBRANCH  11  15
ENDBRANCH   1  11
TORSDOF 8
ENDMDL
MODEL 9
REMARK VINA RESULT:      -5.7      2.169      3.475
REMARK  Name = 449346
REMARK  8 active torsions:
REMARK  status: ('A' for Active; 'I' for Inactive)
REMARK    1  A    between atoms: C_1  and  C_4
REMARK    2  A    between atoms: C_1  and  O_9
REMARK    3  A    between atoms: C_1  and  C_11
REMARK    4  A    between atoms: N_3  and  C_6
REMARK    5  A    between atoms: C_6  and  C_7
REMARK    6  A    between atoms: C_11  and  O_12
REMARK    7  A    between atoms: C_11  and  C_15
REMARK    8  A    between atoms: C_15  and  O_16
REMARK                            x       y       z     vdW  Elec       q    Type
REMARK                         _______ _______ _______ _____ _____    ______ ____
ROOT
ATOM      1  C   UNL     1      36.773 -25.549 -13.087  0.00  0.00    +0.225 C 
ENDROOT
BRANCH   1   4
ATOM      2  O   UNL     1      36.748 -25.754 -15.496  0.00  0.00    -0.272 OA
ATOM      3  N   UNL     1      36.153 -23.720 -14.548  0.00  0.00    -0.302 N 
ATOM      4  C   UNL     1      36.571 -25.042 -14.510  0.00  0.00    +0.252 C 
ATOM      5  H   UNL     1      36.041 -23.237 -13.697  0.00  0.00    +0.150 HD
BRANCH   3   6
ATOM      6  C   UNL     1      35.872 -23.022 -15.782  0.00  0.00    +0.089 C 
BRANCH   6   7
ATOM      7  C   UNL     1      37.085 -22.266 -16.310  0.00  0.00    +0.021 C 
ATOM      8  C   UNL     1      36.839 -21.640 -17.675  0.00  0.00    +0.002 C 
ENDBRANCH   6   7
ENDBRANCH   3   6
ENDBRANCH   1   4
BRANCH   1   9
ATOM      9  O   UNL     1      35.596 -25.283 -12.338  0.00  0.00    -0.374 OA
ATOM     10  H   UNL     1      35.705 -25.619 -11.435  0.00  0.00    +0.211 HD
ENDBRANCH   1   9
BRANCH   1  11
ATOM     11  C   UNL     1      37.990 -24.900 -12.420  0.00  0.00    +0.246 C 
BRANCH  11  12
ATOM     12  O   UNL     1      38.881 -24.438 -13.428  0.00  0.00    -0.372 OA
ATOM     13  H   UNL     1      39.671 -25.000 -13.444  0.00  0.00    +0.211 HD
ENDBRANCH  11  12
BRANCH  11  15
ATOM     14  O   UNL     1      36.938 -23.786 -10.530  0.00  0.00    -0.247 OA
ATOM     15  C   UNL     1      37.585 -23.713 -11.567  0.00  0.00    +0.344 C 
BRANCH  15  16
ATOM     16  O   UNL     1      38.040 -22.538 -12.074  0.00  0.00    -0.478 OA
ATOM     17  H   UNL     1      38.222 -21.820 -11.501  0.00  0.00    +0.295 HD
ENDBRANCH  15  16
ENDBRANCH  11  15
ENDBRANCH   1  11
TORSDOF 8
ENDMDL
