MODEL 1
REMARK VINA RESULT:      -3.8      0.000      0.000
REMARK  Name = 76008
REMARK  3 active torsions:
REMARK  status: ('A' for Active; 'I' for Inactive)
REMARK    1  A    between atoms: C_1  and  C_2
REMARK    2  A    between atoms: C_1  and  C_4
REMARK    3  A    between atoms: C_4  and  N_5
REMARK                            x       y       z     vdW  Elec       q    Type
REMARK                         _______ _______ _______ _____ _____    ______ ____
ROOT
ATOM      1  C   UNL     1      34.590 -19.625 -21.627  0.00  0.00    +0.042 C 
ENDROOT
BRANCH   1   2
ATOM      2  C   UNL     1      33.297 -19.663 -20.809  0.00  0.00    +0.003 C 
ATOM      3  C   UNL     1      33.264 -20.868 -19.880  0.00  0.00    +0.000 C 
ENDBRANCH   1   2
BRANCH   1   4
ATOM      4  C   UNL     1      35.642 -18.719 -21.002  0.00  0.00    +0.200 C 
BRANCH   4   5
ATOM      5  N   UNL     1      35.168 -17.373 -20.923  0.00  0.00    -0.374 NA
ATOM      6  C   UNL     1      34.781 -16.272 -20.858  0.00  0.00    +0.129 C 
ENDBRANCH   4   5
ENDBRANCH   1   4
TORSDOF 3
ENDMDL
MODEL 2
REMARK VINA RESULT:      -3.7      1.680      2.303
REMARK  Name = 76008
REMARK  3 active torsions:
REMARK  status: ('A' for Active; 'I' for Inactive)
REMARK    1  A    between atoms: C_1  and  C_2
REMARK    2  A    between atoms: C_1  and  C_4
REMARK    3  A    between atoms: C_4  and  N_5
REMARK                            x       y       z     vdW  Elec       q    Type
REMARK                         _______ _______ _______ _____ _____    ______ ____
ROOT
ATOM      1  C   UNL     1      33.107 -19.922 -20.715  0.00  0.00    +0.042 C 
ENDROOT
BRANCH   1   2
ATOM      2  C   UNL     1      33.327 -21.082 -19.742  0.00  0.00    +0.003 C 
ATOM      3  C   UNL     1      34.806 -21.396 -19.578  0.00  0.00    +0.000 C 
ENDBRANCH   1   2
BRANCH   1   4
ATOM      4  C   UNL     1      34.403 -19.192 -21.045  0.00  0.00    +0.200 C 
BRANCH   4   5
ATOM      5  N   UNL     1      34.594 -19.115 -22.458  0.00  0.00    -0.374 NA
ATOM      6  C   UNL     1      34.751 -19.052 -23.615  0.00  0.00    +0.129 C 
ENDBRANCH   4   5
ENDBRANCH   1   4
TORSDOF 3
ENDMDL
MODEL 3
REMARK VINA RESULT:      -3.6      2.037      2.755
REMARK  Name = 76008
REMARK  3 active torsions:
REMARK  status: ('A' for Active; 'I' for Inactive)
REMARK    1  A    between atoms: C_1  and  C_2
REMARK    2  A    between atoms: C_1  and  C_4
REMARK    3  A    between atoms: C_4  and  N_5
REMARK                            x       y       z     vdW  Elec       q    Type
REMARK                         _______ _______ _______ _____ _____    ______ ____
ROOT
ATOM      1  C   UNL     1      35.046 -19.540 -21.704  0.00  0.00    +0.042 C 
ENDROOT
BRANCH   1   2
ATOM      2  C   UNL     1      33.768 -19.041 -21.026  0.00  0.00    +0.003 C 
ATOM      3  C   UNL     1      32.902 -20.199 -20.555  0.00  0.00    +0.000 C 
ENDBRANCH   1   2
BRANCH   1   4
ATOM      4  C   UNL     1      36.276 -19.356 -20.824  0.00  0.00    +0.200 C 
BRANCH   4   5
ATOM      5  N   UNL     1      36.376 -20.411 -19.867  0.00  0.00    -0.374 NA
ATOM      6  C   UNL     1      36.457 -21.274 -19.083  0.00  0.00    +0.129 C 
ENDBRANCH   4   5
ENDBRANCH   1   4
TORSDOF 3
ENDMDL
MODEL 4
REMARK VINA RESULT:      -3.6      2.366      2.434
REMARK  Name = 76008
REMARK  3 active torsions:
REMARK  status: ('A' for Active; 'I' for Inactive)
REMARK    1  A    between atoms: C_1  and  C_2
REMARK    2  A    between atoms: C_1  and  C_4
REMARK    3  A    between atoms: C_4  and  N_5
REMARK                            x       y       z     vdW  Elec       q    Type
REMARK                         _______ _______ _______ _____ _____    ______ ____
ROOT
ATOM      1  C   UNL     1      34.547 -19.346 -22.460  0.00  0.00    +0.042 C 
ENDROOT
BRANCH   1   2
ATOM      2  C   UNL     1      34.320 -19.433 -20.950  0.00  0.00    +0.003 C 
ATOM      3  C   UNL     1      32.959 -20.032 -20.627  0.00  0.00    +0.000 C 
ENDBRANCH   1   2
BRANCH   1   4
ATOM      4  C   UNL     1      35.451 -18.181 -22.841  0.00  0.00    +0.200 C 
BRANCH   4   5
ATOM      5  N   UNL     1      35.031 -17.597 -24.075  0.00  0.00    -0.374 NA
ATOM      6  C   UNL     1      34.688 -17.120 -25.086  0.00  0.00    +0.129 C 
ENDBRANCH   4   5
ENDBRANCH   1   4
TORSDOF 3
ENDMDL
MODEL 5
REMARK VINA RESULT:      -3.5      1.533      1.610
REMARK  Name = 76008
REMARK  3 active torsions:
REMARK  status: ('A' for Active; 'I' for Inactive)
REMARK    1  A    between atoms: C_1  and  C_2
REMARK    2  A    between atoms: C_1  and  C_4
REMARK    3  A    between atoms: C_4  and  N_5
REMARK                            x       y       z     vdW  Elec       q    Type
REMARK                         _______ _______ _______ _____ _____    ______ ____
ROOT
ATOM      1  C   UNL     1      34.536 -19.276 -22.431  0.00  0.00    +0.042 C 
ENDROOT
BRANCH   1   2
ATOM      2  C   UNL     1      34.266 -19.427 -20.932  0.00  0.00    +0.003 C 
ATOM      3  C   UNL     1      32.911 -20.069 -20.673  0.00  0.00    +0.000 C 
ENDBRANCH   1   2
BRANCH   1   4
ATOM      4  C   UNL     1      35.712 -18.352 -22.715  0.00  0.00    +0.200 C 
BRANCH   4   5
ATOM      5  N   UNL     1      35.265 -17.012 -22.925  0.00  0.00    -0.374 NA
ATOM      6  C   UNL     1      34.898 -15.915 -23.097  0.00  0.00    +0.129 C 
ENDBRANCH   4   5
ENDBRANCH   1   4
TORSDOF 3
ENDMDL
MODEL 6
REMARK VINA RESULT:      -3.5      3.276      4.233
REMARK  Name = 76008
REMARK  3 active torsions:
REMARK  status: ('A' for Active; 'I' for Inactive)
REMARK    1  A    between atoms: C_1  and  C_2
REMARK    2  A    between atoms: C_1  and  C_4
REMARK    3  A    between atoms: C_4  and  N_5
REMARK                            x       y       z     vdW  Elec       q    Type
REMARK                         _______ _______ _______ _____ _____    ______ ____
ROOT
ATOM      1  C   UNL     1      34.620 -22.256 -19.486  0.00  0.00    +0.042 C 
ENDROOT
BRANCH   1   2
ATOM      2  C   UNL     1      33.351 -21.408 -19.376  0.00  0.00    +0.003 C 
ATOM      3  C   UNL     1      33.327 -20.308 -20.427  0.00  0.00    +0.000 C 
ENDBRANCH   1   2
BRANCH   1   4
ATOM      4  C   UNL     1      35.885 -21.425 -19.314  0.00  0.00    +0.200 C 
BRANCH   4   5
ATOM      5  N   UNL     1      36.496 -21.689 -18.050  0.00  0.00    -0.374 NA
ATOM      6  C   UNL     1      36.997 -21.905 -17.016  0.00  0.00    +0.129 C 
ENDBRANCH   4   5
ENDBRANCH   1   4
TORSDOF 3
ENDMDL
MODEL 7
REMARK VINA RESULT:      -3.5      2.314      3.847
REMARK  Name = 76008
REMARK  3 active torsions:
REMARK  status: ('A' for Active; 'I' for Inactive)
REMARK    1  A    between atoms: C_1  and  C_2
REMARK    2  A    between atoms: C_1  and  C_4
REMARK    3  A    between atoms: C_4  and  N_5
REMARK                            x       y       z     vdW  Elec       q    Type
REMARK                         _______ _______ _______ _____ _____    ______ ____
ROOT
ATOM      1  C   UNL     1      33.945 -19.091 -20.950  0.00  0.00    +0.042 C 
ENDROOT
BRANCH   1   2
ATOM      2  C   UNL     1      35.011 -19.596 -21.925  0.00  0.00    +0.003 C 
ATOM      3  C   UNL     1      34.753 -19.093 -23.338  0.00  0.00    +0.000 C 
ENDBRANCH   1   2
BRANCH   1   4
ATOM      4  C   UNL     1      32.805 -20.086 -20.777  0.00  0.00    +0.200 C 
BRANCH   4   5
ATOM      5  N   UNL     1      33.157 -21.103 -19.838  0.00  0.00    -0.374 NA
ATOM      6  C   UNL     1      33.445 -21.935 -19.069  0.00  0.00    +0.129 C 
ENDBRANCH   4   5
ENDBRANCH   1   4
TORSDOF 3
ENDMDL
MODEL 8
REMARK VINA RESULT:      -3.5      8.256      8.865
REMARK  Name = 76008
REMARK  3 active torsions:
REMARK  status: ('A' for Active; 'I' for Inactive)
REMARK    1  A    between atoms: C_1  and  C_2
REMARK    2  A    between atoms: C_1  and  C_4
REMARK    3  A    between atoms: C_4  and  N_5
REMARK                            x       y       z     vdW  Elec       q    Type
REMARK                         _______ _______ _______ _____ _____    ______ ____
ROOT
ATOM      1  C   UNL     1      28.871 -22.482 -16.457  0.00  0.00    +0.042 C 
ENDROOT
BRANCH   1   2
ATOM      2  C   UNL     1      29.763 -22.805 -15.256  0.00  0.00    +0.003 C 
ATOM      3  C   UNL     1      31.052 -23.487 -15.690  0.00  0.00    +0.000 C 
ENDBRANCH   1   2
BRANCH   1   4
ATOM      4  C   UNL     1      27.396 -22.427 -16.082  0.00  0.00    +0.200 C 
BRANCH   4   5
ATOM      5  N   UNL     1      26.647 -21.727 -17.076  0.00  0.00    -0.374 NA
ATOM      6  C   UNL     1      26.033 -21.154 -17.889  0.00  0.00    +0.129 C 
ENDBRANCH   4   5
ENDBRANCH   1   4
TORSDOF 3
ENDMDL
MODEL 9
REMARK VINA RESULT:      -3.5      1.827      2.850
REMARK  Name = 76008
REMARK  3 active torsions:
REMARK  status: ('A' for Active; 'I' for Inactive)
REMARK    1  A    between atoms: C_1  and  C_2
REMARK    2  A    between atoms: C_1  and  C_4
REMARK    3  A    between atoms: C_4  and  N_5
REMARK                            x       y       z     vdW  Elec       q    Type
REMARK                         _______ _______ _______ _____ _____    ______ ____
ROOT
ATOM      1  C   UNL     1      34.585 -19.091 -22.486  0.00  0.00    +0.042 C 
ENDROOT
BRANCH   1   2
ATOM      2  C   UNL     1      34.969 -19.177 -23.965  0.00  0.00    +0.003 C 
ATOM      3  C   UNL     1      34.626 -17.891 -24.703  0.00  0.00    +0.000 C 
ENDBRANCH   1   2
BRANCH   1   4
ATOM      4  C   UNL     1      35.640 -18.370 -21.658  0.00  0.00    +0.200 C 
BRANCH   4   5
ATOM      5  N   UNL     1      35.148 -17.111 -21.196  0.00  0.00    -0.374 NA
ATOM      6  C   UNL     1      34.744 -16.081 -20.817  0.00  0.00    +0.129 C 
ENDBRANCH   4   5
ENDBRANCH   1   4
TORSDOF 3
ENDMDL
