MODEL 1
REMARK VINA RESULT:      -9.4      0.000      0.000
REMARK  Name = 25113126
REMARK  6 active torsions:
REMARK  status: ('A' for Active; 'I' for Inactive)
REMARK    1  A    between atoms: C_3  and  C_10
REMARK    2  A    between atoms: C_7  and  C_20
REMARK    3  A    between atoms: N_9  and  C_12
REMARK    4  A    between atoms: C_12  and  C_14
REMARK    5  A    between atoms: C_20  and  N_21
REMARK    6  A    between atoms: C_20  and  C_25
REMARK                            x       y       z     vdW  Elec       q    Type
REMARK                         _______ _______ _______ _____ _____    ______ ____
ROOT
ATOM      1  O   UNL     1      34.806 -15.812 -24.986  0.00  0.00    -0.277 OA
ATOM      2  N   UNL     1      33.835 -15.445 -22.918  0.00  0.00    -0.275 N 
ATOM      3  C   UNL     1      34.785 -16.233 -22.145  0.00  0.00    +0.152 C 
ATOM      4  C   UNL     1      34.542 -15.823 -20.697  0.00  0.00    +0.031 C 
ATOM      5  C   UNL     1      33.067 -15.431 -20.682  0.00  0.00    +0.024 C 
ATOM      6  C   UNL     1      32.861 -14.790 -22.047  0.00  0.00    +0.094 C 
ATOM      7  C   UNL     1      33.972 -15.241 -24.282  0.00  0.00    +0.205 C 
ENDROOT
BRANCH   3  10
ATOM      8  O   UNL     1      34.718 -18.240 -23.436  0.00  0.00    -0.273 OA
ATOM      9  N   UNL     1      33.817 -18.250 -21.289  0.00  0.00    -0.299 N 
ATOM     10  C   UNL     1      34.454 -17.676 -22.378  0.00  0.00    +0.241 C 
ATOM     11  H   UNL     1      33.660 -17.693 -20.492  0.00  0.00    +0.150 HD
BRANCH   9  12
ATOM     12  C   UNL     1      33.373 -19.624 -21.268  0.00  0.00    +0.116 C 
BRANCH  12  14
ATOM     13 CL   UNL     1      33.584 -23.300 -17.583  0.00  0.00    -0.082 Cl
ATOM     14  C   UNL     1      34.201 -20.469 -20.342  0.00  0.00    -0.002 C 
ATOM     15  C   UNL     1      33.580 -21.384 -19.492  0.00  0.00    +0.009 C 
ATOM     16  C   UNL     1      35.588 -20.336 -20.331  0.00  0.00    -0.003 C 
ATOM     17  C   UNL     1      34.349 -22.168 -18.632  0.00  0.00    +0.057 C 
ATOM     18  C   UNL     1      36.357 -21.120 -19.471  0.00  0.00    +0.001 C 
ATOM     19  C   UNL     1      35.737 -22.036 -18.622  0.00  0.00    +0.011 C 
ENDBRANCH  12  14
ENDBRANCH   9  12
ENDBRANCH   3  10
BRANCH   7  20
ATOM     20  C   UNL     1      33.005 -14.259 -24.893  0.00  0.00    +0.013 C 
BRANCH  20  21
ATOM     21  N   UNL     1      32.534 -14.893 -26.117  0.00  0.00    +0.387 N 
ATOM     22  H   UNL     1      32.358 -14.179 -26.824  0.00  0.00    -0.089 HD
ATOM     23  H   UNL     1      31.671 -15.401 -25.926  0.00  0.00    -0.089 HD
ATOM     24  H   UNL     1      33.243 -15.542 -26.458  0.00  0.00    -0.089 HD
ENDBRANCH  20  21
BRANCH  20  25
ATOM     25  C   UNL     1      33.685 -12.924 -25.183  0.00  0.00    -0.013 C 
ATOM     26  C   UNL     1      33.598 -11.960 -24.006  0.00  0.00    -0.002 C 
ENDBRANCH  20  25
ENDBRANCH   7  20
TORSDOF 6
ENDMDL
MODEL 2
REMARK VINA RESULT:      -9.3      5.814      9.454
REMARK  Name = 25113126
REMARK  6 active torsions:
REMARK  status: ('A' for Active; 'I' for Inactive)
REMARK    1  A    between atoms: C_3  and  C_10
REMARK    2  A    between atoms: C_7  and  C_20
REMARK    3  A    between atoms: N_9  and  C_12
REMARK    4  A    between atoms: C_12  and  C_14
REMARK    5  A    between atoms: C_20  and  N_21
REMARK    6  A    between atoms: C_20  and  C_25
REMARK                            x       y       z     vdW  Elec       q    Type
REMARK                         _______ _______ _______ _____ _____    ______ ____
ROOT
ATOM      1  O   UNL     1      30.486 -22.067 -17.120  0.00  0.00    -0.277 OA
ATOM      2  N   UNL     1      31.132 -23.557 -15.472  0.00  0.00    -0.275 N 
ATOM      3  C   UNL     1      32.472 -23.021 -15.278  0.00  0.00    +0.152 C 
ATOM      4  C   UNL     1      32.947 -23.631 -13.964  0.00  0.00    +0.031 C 
ATOM      5  C   UNL     1      32.203 -24.962 -13.901  0.00  0.00    +0.024 C 
ATOM      6  C   UNL     1      30.856 -24.639 -14.531  0.00  0.00    +0.094 C 
ATOM      7  C   UNL     1      30.217 -22.980 -16.339  0.00  0.00    +0.205 C 
ENDROOT
BRANCH   3  10
ATOM      8  O   UNL     1      34.052 -24.450 -16.354  0.00  0.00    -0.273 OA
ATOM      9  N   UNL     1      33.133 -22.680 -17.555  0.00  0.00    -0.299 N 
ATOM     10  C   UNL     1      33.304 -23.480 -16.438  0.00  0.00    +0.241 C 
ATOM     11  H   UNL     1      32.501 -21.926 -17.500  0.00  0.00    +0.150 HD
BRANCH   9  12
ATOM     12  C   UNL     1      33.839 -22.897 -18.797  0.00  0.00    +0.116 C 
BRANCH  12  14
ATOM     13 CL   UNL     1      37.045 -19.346 -20.858  0.00  0.00    -0.082 Cl
ATOM     14  C   UNL     1      34.017 -21.623 -19.573  0.00  0.00    -0.002 C 
ATOM     15  C   UNL     1      35.298 -21.133 -19.824  0.00  0.00    +0.009 C 
ATOM     16  C   UNL     1      32.901 -20.929 -20.039  0.00  0.00    -0.003 C 
ATOM     17  C   UNL     1      35.463 -19.951 -20.545  0.00  0.00    +0.057 C 
ATOM     18  C   UNL     1      33.066 -19.746 -20.759  0.00  0.00    +0.001 C 
ATOM     19  C   UNL     1      34.347 -19.257 -21.012  0.00  0.00    +0.011 C 
ENDBRANCH  12  14
ENDBRANCH   9  12
ENDBRANCH   3  10
BRANCH   7  20
ATOM     20  C   UNL     1      28.823 -23.552 -16.288  0.00  0.00    +0.013 C 
BRANCH  20  21
ATOM     21  N   UNL     1      28.368 -23.580 -17.671  0.00  0.00    +0.387 N 
ATOM     22  H   UNL     1      29.106 -23.956 -18.265  0.00  0.00    -0.089 HD
ATOM     23  H   UNL     1      28.140 -22.632 -17.973  0.00  0.00    -0.089 HD
ATOM     24  H   UNL     1      27.537 -24.168 -17.744  0.00  0.00    -0.089 HD
ENDBRANCH  20  21
BRANCH  20  25
ATOM     25  C   UNL     1      27.908 -22.696 -15.417  0.00  0.00    -0.013 C 
ATOM     26  C   UNL     1      26.738 -22.114 -16.200  0.00  0.00    -0.002 C 
ENDBRANCH  20  25
ENDBRANCH   7  20
TORSDOF 6
ENDMDL
MODEL 3
REMARK VINA RESULT:      -9.3      3.787      8.309
REMARK  Name = 25113126
REMARK  6 active torsions:
REMARK  status: ('A' for Active; 'I' for Inactive)
REMARK    1  A    between atoms: C_3  and  C_10
REMARK    2  A    between atoms: C_7  and  C_20
REMARK    3  A    between atoms: N_9  and  C_12
REMARK    4  A    between atoms: C_12  and  C_14
REMARK    5  A    between atoms: C_20  and  N_21
REMARK    6  A    between atoms: C_20  and  C_25
REMARK                            x       y       z     vdW  Elec       q    Type
REMARK                         _______ _______ _______ _____ _____    ______ ____
ROOT
ATOM      1  O   UNL     1      35.656 -17.563 -20.585  0.00  0.00    -0.277 OA
ATOM      2  N   UNL     1      34.990 -17.958 -22.766  0.00  0.00    -0.275 N 
ATOM      3  C   UNL     1      35.100 -16.580 -23.225  0.00  0.00    +0.152 C 
ATOM      4  C   UNL     1      35.060 -16.675 -24.747  0.00  0.00    +0.031 C 
ATOM      5  C   UNL     1      34.224 -17.926 -25.002  0.00  0.00    +0.024 C 
ATOM      6  C   UNL     1      34.622 -18.851 -23.861  0.00  0.00    +0.094 C 
ATOM      7  C   UNL     1      35.352 -18.347 -21.485  0.00  0.00    +0.205 C 
ENDROOT
BRANCH   3  10
ATOM      8  O   UNL     1      33.274 -16.253 -21.723  0.00  0.00    -0.273 OA
ATOM      9  N   UNL     1      33.651 -14.681 -23.398  0.00  0.00    -0.299 N 
ATOM     10  C   UNL     1      33.917 -15.837 -22.683  0.00  0.00    +0.241 C 
ATOM     11  H   UNL     1      34.241 -14.450 -24.152  0.00  0.00    +0.150 HD
BRANCH   9  12
ATOM     12  C   UNL     1      32.550 -13.798 -23.091  0.00  0.00    +0.116 C 
BRANCH  12  14
ATOM     13 CL   UNL     1      35.437 -10.280 -25.624  0.00  0.00    -0.082 Cl
ATOM     14  C   UNL     1      32.899 -12.357 -23.334  0.00  0.00    -0.002 C 
ATOM     15  C   UNL     1      33.890 -12.027 -24.257  0.00  0.00    +0.009 C 
ATOM     16  C   UNL     1      32.233 -11.351 -22.635  0.00  0.00    -0.003 C 
ATOM     17  C   UNL     1      34.215 -10.689 -24.483  0.00  0.00    +0.057 C 
ATOM     18  C   UNL     1      32.558 -10.014 -22.860  0.00  0.00    +0.001 C 
ATOM     19  C   UNL     1      33.549  -9.683 -23.784  0.00  0.00    +0.011 C 
ENDBRANCH  12  14
ENDBRANCH   9  12
ENDBRANCH   3  10
BRANCH   7  20
ATOM     20  C   UNL     1      35.343 -19.832 -21.230  0.00  0.00    +0.013 C 
BRANCH  20  21
ATOM     21  N   UNL     1      34.051 -20.110 -20.616  0.00  0.00    +0.387 N 
ATOM     22  H   UNL     1      33.947 -19.546 -19.773  0.00  0.00    -0.089 HD
ATOM     23  H   UNL     1      33.997 -21.099 -20.371  0.00  0.00    -0.089 HD
ATOM     24  H   UNL     1      33.305 -19.881 -21.274  0.00  0.00    -0.089 HD
ENDBRANCH  20  21
BRANCH  20  25
ATOM     25  C   UNL     1      36.494 -20.241 -20.317  0.00  0.00    -0.013 C 
ATOM     26  C   UNL     1      36.130 -21.413 -19.412  0.00  0.00    -0.002 C 
ENDBRANCH  20  25
ENDBRANCH   7  20
TORSDOF 6
ENDMDL
MODEL 4
REMARK VINA RESULT:      -9.1      3.573      8.142
REMARK  Name = 25113126
REMARK  6 active torsions:
REMARK  status: ('A' for Active; 'I' for Inactive)
REMARK    1  A    between atoms: C_3  and  C_10
REMARK    2  A    between atoms: C_7  and  C_20
REMARK    3  A    between atoms: N_9  and  C_12
REMARK    4  A    between atoms: C_12  and  C_14
REMARK    5  A    between atoms: C_20  and  N_21
REMARK    6  A    between atoms: C_20  and  C_25
REMARK                            x       y       z     vdW  Elec       q    Type
REMARK                         _______ _______ _______ _____ _____    ______ ____
ROOT
ATOM      1  O   UNL     1      34.360 -17.959 -23.605  0.00  0.00    -0.277 OA
ATOM      2  N   UNL     1      34.240 -16.379 -21.919  0.00  0.00    -0.275 N 
ATOM      3  C   UNL     1      33.228 -15.541 -22.547  0.00  0.00    +0.152 C 
ATOM      4  C   UNL     1      32.730 -14.632 -21.429  0.00  0.00    +0.031 C 
ATOM      5  C   UNL     1      33.940 -14.506 -20.508  0.00  0.00    +0.024 C 
ATOM      6  C   UNL     1      34.585 -15.882 -20.589  0.00  0.00    +0.094 C 
ATOM      7  C   UNL     1      34.672 -17.572 -22.479  0.00  0.00    +0.205 C 
ENDROOT
BRANCH   3  10
ATOM      8  O   UNL     1      35.105 -14.904 -23.877  0.00  0.00    -0.273 OA
ATOM      9  N   UNL     1      33.045 -13.895 -24.277  0.00  0.00    -0.299 N 
ATOM     10  C   UNL     1      33.909 -14.765 -23.634  0.00  0.00    +0.241 C 
ATOM     11  H   UNL     1      32.102 -13.874 -23.991  0.00  0.00    +0.150 HD
BRANCH   9  12
ATOM     12  C   UNL     1      33.459 -13.017 -25.347  0.00  0.00    +0.116 C 
BRANCH  12  14
ATOM     13 CL   UNL     1      32.483  -9.103 -22.053  0.00  0.00    -0.082 Cl
ATOM     14  C   UNL     1      33.804 -11.644 -24.846  0.00  0.00    -0.002 C 
ATOM     15  C   UNL     1      33.068 -11.077 -23.805  0.00  0.00    +0.009 C 
ATOM     16  C   UNL     1      34.857 -10.935 -25.423  0.00  0.00    -0.003 C 
ATOM     17  C   UNL     1      33.388  -9.802 -23.339  0.00  0.00    +0.057 C 
ATOM     18  C   UNL     1      35.176  -9.659 -24.957  0.00  0.00    +0.001 C 
ATOM     19  C   UNL     1      34.442  -9.093 -23.915  0.00  0.00    +0.011 C 
ENDBRANCH  12  14
ENDBRANCH   9  12
ENDBRANCH   3  10
BRANCH   7  20
ATOM     20  C   UNL     1      35.589 -18.400 -21.616  0.00  0.00    +0.013 C 
BRANCH  20  21
ATOM     21  N   UNL     1      36.873 -18.396 -22.305  0.00  0.00    +0.387 N 
ATOM     22  H   UNL     1      37.490 -19.087 -21.879  0.00  0.00    -0.089 HD
ATOM     23  H   UNL     1      37.296 -17.471 -22.230  0.00  0.00    -0.089 HD
ATOM     24  H   UNL     1      36.732 -18.627 -23.289  0.00  0.00    -0.089 HD
ENDBRANCH  20  21
BRANCH  20  25
ATOM     25  C   UNL     1      35.053 -19.818 -21.445  0.00  0.00    -0.013 C 
ATOM     26  C   UNL     1      33.707 -19.848 -20.730  0.00  0.00    -0.002 C 
ENDBRANCH  20  25
ENDBRANCH   7  20
TORSDOF 6
ENDMDL
MODEL 5
REMARK VINA RESULT:      -9.1      3.759      8.276
REMARK  Name = 25113126
REMARK  6 active torsions:
REMARK  status: ('A' for Active; 'I' for Inactive)
REMARK    1  A    between atoms: C_3  and  C_10
REMARK    2  A    between atoms: C_7  and  C_20
REMARK    3  A    between atoms: N_9  and  C_12
REMARK    4  A    between atoms: C_12  and  C_14
REMARK    5  A    between atoms: C_20  and  N_21
REMARK    6  A    between atoms: C_20  and  C_25
REMARK                            x       y       z     vdW  Elec       q    Type
REMARK                         _______ _______ _______ _____ _____    ______ ____
ROOT
ATOM      1  O   UNL     1      35.473 -17.477 -20.565  0.00  0.00    -0.277 OA
ATOM      2  N   UNL     1      34.903 -17.857 -22.776  0.00  0.00    -0.275 N 
ATOM      3  C   UNL     1      35.056 -16.481 -23.227  0.00  0.00    +0.152 C 
ATOM      4  C   UNL     1      35.086 -16.572 -24.749  0.00  0.00    +0.031 C 
ATOM      5  C   UNL     1      34.244 -17.810 -25.046  0.00  0.00    +0.024 C 
ATOM      6  C   UNL     1      34.574 -18.743 -23.890  0.00  0.00    +0.094 C 
ATOM      7  C   UNL     1      35.199 -18.254 -21.481  0.00  0.00    +0.205 C 
ENDROOT
BRANCH   3  10
ATOM      8  O   UNL     1      33.180 -16.118 -21.796  0.00  0.00    -0.273 OA
ATOM      9  N   UNL     1      33.630 -14.573 -23.480  0.00  0.00    -0.299 N 
ATOM     10  C   UNL     1      33.860 -15.720 -22.738  0.00  0.00    +0.241 C 
ATOM     11  H   UNL     1      34.248 -14.358 -24.215  0.00  0.00    +0.150 HD
BRANCH   9  12
ATOM     12  C   UNL     1      32.525 -13.678 -23.225  0.00  0.00    +0.116 C 
BRANCH  12  14
ATOM     13 CL   UNL     1      31.842  -8.683 -21.914  0.00  0.00    -0.082 Cl
ATOM     14  C   UNL     1      32.916 -12.238 -23.402  0.00  0.00    -0.002 C 
ATOM     15  C   UNL     1      32.271 -11.246 -22.663  0.00  0.00    +0.009 C 
ATOM     16  C   UNL     1      33.922 -11.895 -24.304  0.00  0.00    -0.003 C 
ATOM     17  C   UNL     1      32.635  -9.909 -22.827  0.00  0.00    +0.057 C 
ATOM     18  C   UNL     1      34.285 -10.558 -24.467  0.00  0.00    +0.001 C 
ATOM     19  C   UNL     1      33.642  -9.565 -23.729  0.00  0.00    +0.011 C 
ENDBRANCH  12  14
ENDBRANCH   9  12
ENDBRANCH   3  10
BRANCH   7  20
ATOM     20  C   UNL     1      35.156 -19.740 -21.231  0.00  0.00    +0.013 C 
BRANCH  20  21
ATOM     21  N   UNL     1      33.896 -19.977 -20.540  0.00  0.00    +0.387 N 
ATOM     22  H   UNL     1      34.082 -20.271 -19.582  0.00  0.00    -0.089 HD
ATOM     23  H   UNL     1      33.376 -20.709 -21.024  0.00  0.00    -0.089 HD
ATOM     24  H   UNL     1      33.345 -19.118 -20.532  0.00  0.00    -0.089 HD
ENDBRANCH  20  21
BRANCH  20  25
ATOM     25  C   UNL     1      36.346 -20.191 -20.390  0.00  0.00    -0.013 C 
ATOM     26  C   UNL     1      35.974 -21.287 -19.397  0.00  0.00    -0.002 C 
ENDBRANCH  20  25
ENDBRANCH   7  20
TORSDOF 6
ENDMDL
MODEL 6
REMARK VINA RESULT:      -9.0      4.496      8.369
REMARK  Name = 25113126
REMARK  6 active torsions:
REMARK  status: ('A' for Active; 'I' for Inactive)
REMARK    1  A    between atoms: C_3  and  C_10
REMARK    2  A    between atoms: C_7  and  C_20
REMARK    3  A    between atoms: N_9  and  C_12
REMARK    4  A    between atoms: C_12  and  C_14
REMARK    5  A    between atoms: C_20  and  N_21
REMARK    6  A    between atoms: C_20  and  C_25
REMARK                            x       y       z     vdW  Elec       q    Type
REMARK                         _______ _______ _______ _____ _____    ______ ____
ROOT
ATOM      1  O   UNL     1      35.071 -16.599 -20.357  0.00  0.00    -0.277 OA
ATOM      2  N   UNL     1      34.560 -16.422 -22.607  0.00  0.00    -0.275 N 
ATOM      3  C   UNL     1      34.398 -14.975 -22.628  0.00  0.00    +0.152 C 
ATOM      4  C   UNL     1      34.420 -14.604 -24.107  0.00  0.00    +0.031 C 
ATOM      5  C   UNL     1      33.866 -15.849 -24.793  0.00  0.00    +0.024 C 
ATOM      6  C   UNL     1      34.413 -16.988 -23.946  0.00  0.00    +0.094 C 
ATOM      7  C   UNL     1      34.958 -17.111 -21.472  0.00  0.00    +0.205 C 
ENDROOT
BRANCH   3  10
ATOM      8  O   UNL     1      32.340 -15.555 -21.567  0.00  0.00    -0.273 OA
ATOM      9  N   UNL     1      32.798 -13.311 -21.990  0.00  0.00    -0.299 N 
ATOM     10  C   UNL     1      33.074 -14.669 -21.997  0.00  0.00    +0.241 C 
ATOM     11  H   UNL     1      33.468 -12.695 -22.365  0.00  0.00    +0.150 HD
BRANCH   9  12
ATOM     12  C   UNL     1      31.574 -12.757 -21.458  0.00  0.00    +0.116 C 
BRANCH  12  14
ATOM     13 CL   UNL     1      32.475  -7.774 -22.677  0.00  0.00    -0.082 Cl
ATOM     14  C   UNL     1      31.751 -11.335 -21.006  0.00  0.00    -0.002 C 
ATOM     15  C   UNL     1      32.002 -10.333 -21.942  0.00  0.00    +0.009 C 
ATOM     16  C   UNL     1      31.665 -11.020 -19.651  0.00  0.00    -0.003 C 
ATOM     17  C   UNL     1      32.166  -9.013 -21.522  0.00  0.00    +0.057 C 
ATOM     18  C   UNL     1      31.829  -9.699 -19.231  0.00  0.00    +0.001 C 
ATOM     19  C   UNL     1      32.079  -8.696 -20.166  0.00  0.00    +0.011 C 
ENDBRANCH  12  14
ENDBRANCH   9  12
ENDBRANCH   3  10
BRANCH   7  20
ATOM     20  C   UNL     1      35.247 -18.577 -21.669  0.00  0.00    +0.013 C 
BRANCH  20  21
ATOM     21  N   UNL     1      34.088 -19.273 -21.126  0.00  0.00    +0.387 N 
ATOM     22  H   UNL     1      33.741 -19.943 -21.812  0.00  0.00    -0.089 HD
ATOM     23  H   UNL     1      33.355 -18.597 -20.912  0.00  0.00    -0.089 HD
ATOM     24  H   UNL     1      34.355 -19.766 -20.274  0.00  0.00    -0.089 HD
ENDBRANCH  20  21
BRANCH  20  25
ATOM     25  C   UNL     1      36.529 -18.987 -20.952  0.00  0.00    -0.013 C 
ATOM     26  C   UNL     1      36.374 -20.294 -20.184  0.00  0.00    -0.002 C 
ENDBRANCH  20  25
ENDBRANCH   7  20
TORSDOF 6
ENDMDL
MODEL 7
REMARK VINA RESULT:      -8.9      5.773     10.583
REMARK  Name = 25113126
REMARK  6 active torsions:
REMARK  status: ('A' for Active; 'I' for Inactive)
REMARK    1  A    between atoms: C_3  and  C_10
REMARK    2  A    between atoms: C_7  and  C_20
REMARK    3  A    between atoms: N_9  and  C_12
REMARK    4  A    between atoms: C_12  and  C_14
REMARK    5  A    between atoms: C_20  and  N_21
REMARK    6  A    between atoms: C_20  and  C_25
REMARK                            x       y       z     vdW  Elec       q    Type
REMARK                         _______ _______ _______ _____ _____    ______ ____
ROOT
ATOM      1  O   UNL     1      34.862 -24.948 -14.049  0.00  0.00    -0.277 OA
ATOM      2  N   UNL     1      36.562 -23.853 -15.175  0.00  0.00    -0.275 N 
ATOM      3  C   UNL     1      35.787 -22.676 -15.543  0.00  0.00    +0.152 C 
ATOM      4  C   UNL     1      36.827 -21.649 -15.979  0.00  0.00    +0.031 C 
ATOM      5  C   UNL     1      37.970 -22.507 -16.514  0.00  0.00    +0.024 C 
ATOM      6  C   UNL     1      37.954 -23.721 -15.598  0.00  0.00    +0.094 C 
ATOM      7  C   UNL     1      36.044 -24.869 -14.387  0.00  0.00    +0.205 C 
ENDROOT
BRANCH   3  10
ATOM      8  O   UNL     1      34.110 -24.018 -16.583  0.00  0.00    -0.273 OA
ATOM      9  N   UNL     1      35.072 -22.278 -17.794  0.00  0.00    -0.299 N 
ATOM     10  C   UNL     1      34.889 -23.074 -16.675  0.00  0.00    +0.241 C 
ATOM     11  H   UNL     1      35.730 -21.547 -17.746  0.00  0.00    +0.150 HD
BRANCH   9  12
ATOM     12  C   UNL     1      34.343 -22.469 -19.027  0.00  0.00    +0.116 C 
BRANCH  12  14
ATOM     13 CL   UNL     1      36.686 -18.632 -21.658  0.00  0.00    -0.082 Cl
ATOM     14  C   UNL     1      34.229 -21.196 -19.816  0.00  0.00    -0.002 C 
ATOM     15  C   UNL     1      35.377 -20.578 -20.311  0.00  0.00    +0.009 C 
ATOM     16  C   UNL     1      32.975 -20.633 -20.051  0.00  0.00    -0.003 C 
ATOM     17  C   UNL     1      35.270 -19.396 -21.044  0.00  0.00    +0.057 C 
ATOM     18  C   UNL     1      32.869 -19.450 -20.784  0.00  0.00    +0.001 C 
ATOM     19  C   UNL     1      34.016 -18.832 -21.280  0.00  0.00    +0.011 C 
ENDBRANCH  12  14
ENDBRANCH   9  12
ENDBRANCH   3  10
BRANCH   7  20
ATOM     20  C   UNL     1      37.031 -25.923 -13.955  0.00  0.00    +0.013 C 
BRANCH  20  21
ATOM     21  N   UNL     1      36.463 -27.188 -14.403  0.00  0.00    +0.387 N 
ATOM     22  H   UNL     1      36.253 -27.773 -13.594  0.00  0.00    -0.089 HD
ATOM     23  H   UNL     1      37.135 -27.668 -15.003  0.00  0.00    -0.089 HD
ATOM     24  H   UNL     1      35.606 -27.010 -14.927  0.00  0.00    -0.089 HD
ENDBRANCH  20  21
BRANCH  20  25
ATOM     25  C   UNL     1      37.228 -25.906 -12.442  0.00  0.00    -0.013 C 
ATOM     26  C   UNL     1      37.907 -24.630 -11.959  0.00  0.00    -0.002 C 
ENDBRANCH  20  25
ENDBRANCH   7  20
TORSDOF 6
ENDMDL
MODEL 8
REMARK VINA RESULT:      -8.8      5.816      8.374
REMARK  Name = 25113126
REMARK  6 active torsions:
REMARK  status: ('A' for Active; 'I' for Inactive)
REMARK    1  A    between atoms: C_3  and  C_10
REMARK    2  A    between atoms: C_7  and  C_20
REMARK    3  A    between atoms: N_9  and  C_12
REMARK    4  A    between atoms: C_12  and  C_14
REMARK    5  A    between atoms: C_20  and  N_21
REMARK    6  A    between atoms: C_20  and  C_25
REMARK                            x       y       z     vdW  Elec       q    Type
REMARK                         _______ _______ _______ _____ _____    ______ ____
ROOT
ATOM      1  O   UNL     1      30.219  -7.553 -23.603  0.00  0.00    -0.277 OA
ATOM      2  N   UNL     1      32.532  -7.593 -23.535  0.00  0.00    -0.275 N 
ATOM      3  C   UNL     1      32.680  -9.025 -23.759  0.00  0.00    +0.152 C 
ATOM      4  C   UNL     1      34.150  -9.210 -24.120  0.00  0.00    +0.031 C 
ATOM      5  C   UNL     1      34.843  -8.066 -23.384  0.00  0.00    +0.024 C 
ATOM      6  C   UNL     1      33.833  -6.932 -23.470  0.00  0.00    +0.094 C 
ATOM      7  C   UNL     1      31.298  -6.962 -23.548  0.00  0.00    +0.205 C 
ENDROOT
BRANCH   3  10
ATOM      8  O   UNL     1      32.384  -9.130 -21.393  0.00  0.00    -0.273 OA
ATOM      9  N   UNL     1      31.986 -11.039 -22.665  0.00  0.00    -0.299 N 
ATOM     10  C   UNL     1      32.333  -9.712 -22.473  0.00  0.00    +0.241 C 
ATOM     11  H   UNL     1      31.982 -11.394 -23.584  0.00  0.00    +0.150 HD
BRANCH   9  12
ATOM     12  C   UNL     1      31.630 -11.927 -21.582  0.00  0.00    +0.116 C 
BRANCH  12  14
ATOM     13 CL   UNL     1      33.803 -15.596 -24.574  0.00  0.00    -0.082 Cl
ATOM     14  C   UNL     1      32.335 -13.250 -21.685  0.00  0.00    -0.002 C 
ATOM     15  C   UNL     1      32.698 -13.750 -22.935  0.00  0.00    +0.009 C 
ATOM     16  C   UNL     1      32.623 -13.977 -20.531  0.00  0.00    -0.003 C 
ATOM     17  C   UNL     1      33.352 -14.978 -23.031  0.00  0.00    +0.057 C 
ATOM     18  C   UNL     1      33.277 -15.206 -20.628  0.00  0.00    +0.001 C 
ATOM     19  C   UNL     1      33.642 -15.706 -21.877  0.00  0.00    +0.011 C 
ENDBRANCH  12  14
ENDBRANCH   9  12
ENDBRANCH   3  10
BRANCH   7  20
ATOM     20  C   UNL     1      31.337  -5.456 -23.476  0.00  0.00    +0.013 C 
BRANCH  20  21
ATOM     21  N   UNL     1      30.381  -5.096 -22.438  0.00  0.00    +0.387 N 
ATOM     22  H   UNL     1      30.672  -4.225 -21.995  0.00  0.00    -0.089 HD
ATOM     23  H   UNL     1      30.345  -5.836 -21.737  0.00  0.00    -0.089 HD
ATOM     24  H   UNL     1      29.457  -4.975 -22.853  0.00  0.00    -0.089 HD
ENDBRANCH  20  21
BRANCH  20  25
ATOM     25  C   UNL     1      30.966  -4.831 -24.817  0.00  0.00    -0.013 C 
ATOM     26  C   UNL     1      32.181  -4.601 -25.707  0.00  0.00    -0.002 C 
ENDBRANCH  20  25
ENDBRANCH   7  20
TORSDOF 6
ENDMDL
MODEL 9
REMARK VINA RESULT:      -8.7      0.866      1.457
REMARK  Name = 25113126
REMARK  6 active torsions:
REMARK  status: ('A' for Active; 'I' for Inactive)
REMARK    1  A    between atoms: C_3  and  C_10
REMARK    2  A    between atoms: C_7  and  C_20
REMARK    3  A    between atoms: N_9  and  C_12
REMARK    4  A    between atoms: C_12  and  C_14
REMARK    5  A    between atoms: C_20  and  N_21
REMARK    6  A    between atoms: C_20  and  C_25
REMARK                            x       y       z     vdW  Elec       q    Type
REMARK                         _______ _______ _______ _____ _____    ______ ____
ROOT
ATOM      1  O   UNL     1      35.249 -15.048 -24.373  0.00  0.00    -0.277 OA
ATOM      2  N   UNL     1      33.830 -15.207 -22.551  0.00  0.00    -0.275 N 
ATOM      3  C   UNL     1      34.801 -15.787 -21.633  0.00  0.00    +0.152 C 
ATOM      4  C   UNL     1      34.171 -15.631 -20.254  0.00  0.00    +0.031 C 
ATOM      5  C   UNL     1      32.673 -15.666 -20.542  0.00  0.00    +0.024 C 
ATOM      6  C   UNL     1      32.557 -14.953 -21.881  0.00  0.00    +0.094 C 
ATOM      7  C   UNL     1      34.164 -14.816 -23.839  0.00  0.00    +0.205 C 
ENDROOT
BRANCH   3  10
ATOM      8  O   UNL     1      34.447 -17.693 -23.026  0.00  0.00    -0.273 OA
ATOM      9  N   UNL     1      35.716 -17.932 -21.088  0.00  0.00    -0.299 N 
ATOM     10  C   UNL     1      34.961 -17.228 -22.012  0.00  0.00    +0.241 C 
ATOM     11  H   UNL     1      36.077 -17.447 -20.311  0.00  0.00    +0.150 HD
BRANCH   9  12
ATOM     12  C   UNL     1      35.998 -19.344 -21.210  0.00  0.00    +0.116 C 
BRANCH  12  14
ATOM     13 CL   UNL     1      35.092 -22.916 -17.529  0.00  0.00    -0.082 Cl
ATOM     14  C   UNL     1      35.011 -20.182 -20.448  0.00  0.00    -0.002 C 
ATOM     15  C   UNL     1      35.458 -21.058 -19.459  0.00  0.00    +0.009 C 
ATOM     16  C   UNL     1      33.649 -20.086 -20.732  0.00  0.00    -0.003 C 
ATOM     17  C   UNL     1      34.542 -21.836 -18.752  0.00  0.00    +0.057 C 
ATOM     18  C   UNL     1      32.733 -20.865 -20.024  0.00  0.00    +0.001 C 
ATOM     19  C   UNL     1      33.180 -21.739 -19.034  0.00  0.00    +0.011 C 
ENDBRANCH  12  14
ENDBRANCH   9  12
ENDBRANCH   3  10
BRANCH   7  20
ATOM     20  C   UNL     1      33.089 -14.075 -24.592  0.00  0.00    +0.013 C 
BRANCH  20  21
ATOM     21  N   UNL     1      32.835 -14.871 -25.785  0.00  0.00    +0.387 N 
ATOM     22  H   UNL     1      33.681 -14.914 -26.352  0.00  0.00    -0.089 HD
ATOM     23  H   UNL     1      32.085 -14.443 -26.327  0.00  0.00    -0.089 HD
ATOM     24  H   UNL     1      32.560 -15.815 -25.512  0.00  0.00    -0.089 HD
ENDBRANCH  20  21
BRANCH  20  25
ATOM     25  C   UNL     1      33.541 -12.663 -24.951  0.00  0.00    -0.013 C 
ATOM     26  C   UNL     1      33.488 -11.714 -23.759  0.00  0.00    -0.002 C 
ENDBRANCH  20  25
ENDBRANCH   7  20
TORSDOF 6
ENDMDL
