MODEL 1
REMARK VINA RESULT:     -11.2      0.000      0.000
REMARK  Name = 5287994
REMARK  8 active torsions:
REMARK  status: ('A' for Active; 'I' for Inactive)
REMARK    1  A    between atoms: C_5  and  O_19
REMARK    2  A    between atoms: C_5  and  C_21
REMARK    3  A    between atoms: C_8  and  C_30
REMARK    4  A    between atoms: C_10  and  C_11
REMARK    5  A    between atoms: C_16  and  O_17
REMARK    6  A    between atoms: C_21  and  C_22
REMARK    7  A    between atoms: C_27  and  O_28
REMARK    8  A    between atoms: C_30  and  C_31
REMARK                            x       y       z     vdW  Elec       q    Type
REMARK                         _______ _______ _______ _____ _____    ______ ____
ROOT
ATOM      1  O   UNL     1      33.551 -23.521 -12.539  0.00  0.00    -0.270 OA
ATOM      2  N   UNL     1      33.002 -23.457 -14.807  0.00  0.00    -0.232 N 
ATOM      3  N   UNL     1      34.999 -23.872 -15.787  0.00  0.00    -0.222 NA
ATOM      4  N   UNL     1      31.742 -23.203 -17.251  0.00  0.00    -0.406 NA
ATOM      5  C   UNL     1      35.201 -23.913 -14.307  0.00  0.00    +0.249 C 
ATOM      6  C   UNL     1      33.741 -23.613 -15.921  0.00  0.00    +0.162 C 
ATOM      7  C   UNL     1      33.818 -23.613 -13.727  0.00  0.00    +0.278 C 
ATOM      8  C   UNL     1      33.015 -23.465 -17.215  0.00  0.00    +0.144 C 
ATOM      9  C   UNL     1      31.671 -23.180 -14.849  0.00  0.00    +0.159 C 
ATOM     10  C   UNL     1      31.067 -23.065 -16.049  0.00  0.00    +0.129 C 
ENDROOT
BRANCH  10  11
ATOM     11  C   UNL     1      29.622 -22.752 -16.115  0.00  0.00    +0.027 C 
ATOM     12  C   UNL     1      28.915 -22.965 -17.299  0.00  0.00    +0.005 C 
ATOM     13  C   UNL     1      28.966 -22.243 -14.994  0.00  0.00    +0.005 C 
ATOM     14  C   UNL     1      27.553 -22.669 -17.361  0.00  0.00    +0.037 C 
ATOM     15  C   UNL     1      27.604 -21.948 -15.056  0.00  0.00    +0.037 C 
ATOM     16  C   UNL     1      26.898 -22.160 -16.239  0.00  0.00    +0.134 C 
BRANCH  16  17
ATOM     17  O   UNL     1      25.569 -21.874 -16.300  0.00  0.00    -0.506 OA
ATOM     18  H   UNL     1      25.103 -21.978 -17.107  0.00  0.00    +0.292 HD
ENDBRANCH  16  17
ENDBRANCH  10  11
BRANCH   5  19
ATOM     19  O   UNL     1      36.102 -22.954 -13.772  0.00  0.00    -0.361 OA
ATOM     20  H   UNL     1      36.976 -23.359 -13.659  0.00  0.00    +0.213 HD
ENDBRANCH   5  19
BRANCH   5  21
ATOM     21  C   UNL     1      35.654 -25.315 -13.920  0.00  0.00    +0.086 C 
BRANCH  21  22
ATOM     22  C   UNL     1      37.151 -25.454 -13.982  0.00  0.00    -0.017 C 
ATOM     23  C   UNL     1      37.901 -25.292 -12.825  0.00  0.00    -0.001 C 
ATOM     24  C   UNL     1      37.762 -25.744 -15.195  0.00  0.00    -0.001 C 
ATOM     25  C   UNL     1      39.289 -25.422 -12.882  0.00  0.00    +0.036 C 
ATOM     26  C   UNL     1      39.149 -25.874 -15.251  0.00  0.00    +0.036 C 
ATOM     27  C   UNL     1      39.912 -25.713 -14.095  0.00  0.00    +0.134 C 
BRANCH  27  28
ATOM     28  O   UNL     1      41.267 -25.839 -14.151  0.00  0.00    -0.506 OA
ATOM     29  H   UNL     1      41.654 -26.510 -14.678  0.00  0.00    +0.292 HD
ENDBRANCH  27  28
ENDBRANCH  21  22
ENDBRANCH   5  21
BRANCH   8  30
ATOM     30  C   UNL     1      33.805 -23.628 -18.478  0.00  0.00    +0.088 C 
BRANCH  30  31
ATOM     31  C   UNL     1      33.988 -22.310 -19.171  0.00  0.00    -0.015 C 
ATOM     32  C   UNL     1      35.271 -21.848 -19.444  0.00  0.00    -0.004 C 
ATOM     33  C   UNL     1      32.874 -21.563 -19.535  0.00  0.00    -0.004 C 
ATOM     34  C   UNL     1      35.441 -20.623 -20.090  0.00  0.00    -0.000 C 
ATOM     35  C   UNL     1      33.043 -20.338 -20.180  0.00  0.00    -0.000 C 
ATOM     36  C   UNL     1      34.327 -19.868 -20.457  0.00  0.00    -0.000 C 
ENDBRANCH  30  31
ENDBRANCH   8  30
TORSDOF 8
ENDMDL
MODEL 2
REMARK VINA RESULT:     -11.1      1.772      2.682
REMARK  Name = 5287994
REMARK  8 active torsions:
REMARK  status: ('A' for Active; 'I' for Inactive)
REMARK    1  A    between atoms: C_5  and  O_19
REMARK    2  A    between atoms: C_5  and  C_21
REMARK    3  A    between atoms: C_8  and  C_30
REMARK    4  A    between atoms: C_10  and  C_11
REMARK    5  A    between atoms: C_16  and  O_17
REMARK    6  A    between atoms: C_21  and  C_22
REMARK    7  A    between atoms: C_27  and  O_28
REMARK    8  A    between atoms: C_30  and  C_31
REMARK                            x       y       z     vdW  Elec       q    Type
REMARK                         _______ _______ _______ _____ _____    ______ ____
ROOT
ATOM      1  O   UNL     1      34.913 -24.422 -10.709  0.00  0.00    -0.270 OA
ATOM      2  N   UNL     1      34.880 -23.802 -12.959  0.00  0.00    -0.232 N 
ATOM      3  N   UNL     1      37.040 -23.234 -13.324  0.00  0.00    -0.222 NA
ATOM      4  N   UNL     1      34.173 -23.176 -15.554  0.00  0.00    -0.406 NA
ATOM      5  C   UNL     1      36.921 -23.687 -11.904  0.00  0.00    +0.249 C 
ATOM      6  C   UNL     1      35.840 -23.351 -13.787  0.00  0.00    +0.162 C 
ATOM      7  C   UNL     1      35.441 -24.037 -11.740  0.00  0.00    +0.278 C 
ATOM      8  C   UNL     1      35.409 -23.026 -15.177  0.00  0.00    +0.144 C 
ATOM      9  C   UNL     1      33.588 -23.955 -13.358  0.00  0.00    +0.159 C 
ATOM     10  C   UNL     1      33.258 -23.652 -14.629  0.00  0.00    +0.129 C 
ENDROOT
BRANCH  10  11
ATOM     11  C   UNL     1      31.856 -23.801 -15.077  0.00  0.00    +0.027 C 
ATOM     12  C   UNL     1      31.338 -22.942 -16.048  0.00  0.00    +0.005 C 
ATOM     13  C   UNL     1      31.050 -24.799 -14.531  0.00  0.00    +0.005 C 
ATOM     14  C   UNL     1      30.016 -23.081 -16.469  0.00  0.00    +0.037 C 
ATOM     15  C   UNL     1      29.728 -24.940 -14.953  0.00  0.00    +0.037 C 
ATOM     16  C   UNL     1      29.211 -24.081 -15.922  0.00  0.00    +0.134 C 
BRANCH  16  17
ATOM     17  O   UNL     1      27.922 -24.217 -16.336  0.00  0.00    -0.506 OA
ATOM     18  H   UNL     1      27.418 -23.460 -16.563  0.00  0.00    +0.292 HD
ENDBRANCH  16  17
ENDBRANCH  10  11
BRANCH   5  19
ATOM     19  O   UNL     1      37.241 -22.722 -10.911  0.00  0.00    -0.361 OA
ATOM     20  H   UNL     1      38.095 -22.314 -11.121  0.00  0.00    +0.213 HD
ENDBRANCH   5  19
BRANCH   5  21
ATOM     21  C   UNL     1      37.790 -24.924 -11.717  0.00  0.00    +0.086 C 
BRANCH  21  22
ATOM     22  C   UNL     1      38.545 -25.269 -12.972  0.00  0.00    -0.017 C 
ATOM     23  C   UNL     1      37.976 -26.134 -13.897  0.00  0.00    -0.001 C 
ATOM     24  C   UNL     1      39.800 -24.715 -13.190  0.00  0.00    -0.001 C 
ATOM     25  C   UNL     1      38.675 -26.453 -15.061  0.00  0.00    +0.036 C 
ATOM     26  C   UNL     1      40.499 -25.034 -14.354  0.00  0.00    +0.036 C 
ATOM     27  C   UNL     1      39.936 -25.903 -15.289  0.00  0.00    +0.134 C 
BRANCH  27  28
ATOM     28  O   UNL     1      40.618 -26.215 -16.425  0.00  0.00    -0.506 OA
ATOM     29  H   UNL     1      40.242 -26.802 -17.052  0.00  0.00    +0.292 HD
ENDBRANCH  27  28
ENDBRANCH  21  22
ENDBRANCH   5  21
BRANCH   8  30
ATOM     30  C   UNL     1      36.449 -22.517 -16.127  0.00  0.00    +0.088 C 
BRANCH  30  31
ATOM     31  C   UNL     1      35.841 -22.169 -17.454  0.00  0.00    -0.015 C 
ATOM     32  C   UNL     1      36.567 -21.410 -18.366  0.00  0.00    -0.004 C 
ATOM     33  C   UNL     1      34.559 -22.610 -17.760  0.00  0.00    -0.004 C 
ATOM     34  C   UNL     1      36.002 -21.088 -19.600  0.00  0.00    -0.000 C 
ATOM     35  C   UNL     1      33.994 -22.288 -18.995  0.00  0.00    -0.000 C 
ATOM     36  C   UNL     1      34.716 -21.526 -19.914  0.00  0.00    -0.000 C 
ENDBRANCH  30  31
ENDBRANCH   8  30
TORSDOF 8
ENDMDL
MODEL 3
REMARK VINA RESULT:     -10.1      1.492      8.199
REMARK  Name = 5287994
REMARK  8 active torsions:
REMARK  status: ('A' for Active; 'I' for Inactive)
REMARK    1  A    between atoms: C_5  and  O_19
REMARK    2  A    between atoms: C_5  and  C_21
REMARK    3  A    between atoms: C_8  and  C_30
REMARK    4  A    between atoms: C_10  and  C_11
REMARK    5  A    between atoms: C_16  and  O_17
REMARK    6  A    between atoms: C_21  and  C_22
REMARK    7  A    between atoms: C_27  and  O_28
REMARK    8  A    between atoms: C_30  and  C_31
REMARK                            x       y       z     vdW  Elec       q    Type
REMARK                         _______ _______ _______ _____ _____    ______ ____
ROOT
ATOM      1  O   UNL     1      31.641 -25.086 -13.052  0.00  0.00    -0.270 OA
ATOM      2  N   UNL     1      32.913 -24.349 -14.866  0.00  0.00    -0.232 N 
ATOM      3  N   UNL     1      31.314 -23.745 -16.349  0.00  0.00    -0.222 NA
ATOM      4  N   UNL     1      34.936 -23.692 -16.626  0.00  0.00    -0.406 NA
ATOM      5  C   UNL     1      30.629 -24.218 -15.107  0.00  0.00    +0.249 C 
ATOM      6  C   UNL     1      32.571 -23.870 -16.075  0.00  0.00    +0.162 C 
ATOM      7  C   UNL     1      31.771 -24.615 -14.171  0.00  0.00    +0.278 C 
ATOM      8  C   UNL     1      33.698 -23.531 -16.990  0.00  0.00    +0.144 C 
ATOM      9  C   UNL     1      34.210 -24.518 -14.490  0.00  0.00    +0.159 C 
ATOM     10  C   UNL     1      35.187 -24.187 -15.357  0.00  0.00    +0.129 C 
ENDROOT
BRANCH  10  11
ATOM     11  C   UNL     1      36.604 -24.375 -14.971  0.00  0.00    +0.027 C 
ATOM     12  C   UNL     1      36.936 -25.259 -13.944  0.00  0.00    +0.005 C 
ATOM     13  C   UNL     1      37.608 -23.669 -15.633  0.00  0.00    +0.005 C 
ATOM     14  C   UNL     1      38.271 -25.436 -13.579  0.00  0.00    +0.037 C 
ATOM     15  C   UNL     1      38.943 -23.846 -15.269  0.00  0.00    +0.037 C 
ATOM     16  C   UNL     1      39.274 -24.729 -14.242  0.00  0.00    +0.134 C 
BRANCH  16  17
ATOM     17  O   UNL     1      40.576 -24.903 -13.887  0.00  0.00    -0.506 OA
ATOM     18  H   UNL     1      41.069 -24.185 -13.543  0.00  0.00    +0.292 HD
ENDBRANCH  16  17
ENDBRANCH  10  11
BRANCH   5  19
ATOM     19  O   UNL     1      29.785 -25.351 -15.252  0.00  0.00    -0.361 OA
ATOM     20  H   UNL     1      29.386 -25.568 -14.395  0.00  0.00    +0.213 HD
ENDBRANCH   5  19
BRANCH   5  21
ATOM     21  C   UNL     1      29.834 -23.056 -14.523  0.00  0.00    +0.086 C 
BRANCH  21  22
ATOM     22  C   UNL     1      28.697 -22.652 -15.422  0.00  0.00    -0.017 C 
ATOM     23  C   UNL     1      28.832 -22.784 -16.798  0.00  0.00    -0.001 C 
ATOM     24  C   UNL     1      27.527 -22.154 -14.864  0.00  0.00    -0.001 C 
ATOM     25  C   UNL     1      27.777 -22.411 -17.631  0.00  0.00    +0.036 C 
ATOM     26  C   UNL     1      26.473 -21.780 -15.697  0.00  0.00    +0.036 C 
ATOM     27  C   UNL     1      26.598 -21.909 -17.081  0.00  0.00    +0.134 C 
BRANCH  27  28
ATOM     28  O   UNL     1      25.570 -21.543 -17.894  0.00  0.00    -0.506 OA
ATOM     29  H   UNL     1      25.747 -21.150 -18.726  0.00  0.00    +0.292 HD
ENDBRANCH  27  28
ENDBRANCH  21  22
ENDBRANCH   5  21
BRANCH   8  30
ATOM     30  C   UNL     1      33.356 -22.998 -18.348  0.00  0.00    +0.088 C 
BRANCH  30  31
ATOM     31  C   UNL     1      34.446 -22.108 -18.867  0.00  0.00    -0.015 C 
ATOM     32  C   UNL     1      34.193 -21.266 -19.944  0.00  0.00    -0.004 C 
ATOM     33  C   UNL     1      35.699 -22.130 -18.264  0.00  0.00    -0.004 C 
ATOM     34  C   UNL     1      35.207 -20.437 -20.426  0.00  0.00    -0.000 C 
ATOM     35  C   UNL     1      36.713 -21.302 -18.745  0.00  0.00    -0.000 C 
ATOM     36  C   UNL     1      36.466 -20.455 -19.826  0.00  0.00    -0.000 C 
ENDBRANCH  30  31
ENDBRANCH   8  30
TORSDOF 8
ENDMDL
MODEL 4
REMARK VINA RESULT:      -9.9      1.753      2.465
REMARK  Name = 5287994
REMARK  8 active torsions:
REMARK  status: ('A' for Active; 'I' for Inactive)
REMARK    1  A    between atoms: C_5  and  O_19
REMARK    2  A    between atoms: C_5  and  C_21
REMARK    3  A    between atoms: C_8  and  C_30
REMARK    4  A    between atoms: C_10  and  C_11
REMARK    5  A    between atoms: C_16  and  O_17
REMARK    6  A    between atoms: C_21  and  C_22
REMARK    7  A    between atoms: C_27  and  O_28
REMARK    8  A    between atoms: C_30  and  C_31
REMARK                            x       y       z     vdW  Elec       q    Type
REMARK                         _______ _______ _______ _____ _____    ______ ____
ROOT
ATOM      1  O   UNL     1      36.141 -22.752 -13.911  0.00  0.00    -0.270 OA
ATOM      2  N   UNL     1      35.023 -22.786 -15.960  0.00  0.00    -0.232 N 
ATOM      3  N   UNL     1      36.707 -22.406 -17.423  0.00  0.00    -0.222 NA
ATOM      4  N   UNL     1      33.151 -22.890 -17.987  0.00  0.00    -0.406 NA
ATOM      5  C   UNL     1      37.295 -22.439 -16.049  0.00  0.00    +0.249 C 
ATOM      6  C   UNL     1      35.447 -22.613 -17.225  0.00  0.00    +0.162 C 
ATOM      7  C   UNL     1      36.098 -22.686 -15.130  0.00  0.00    +0.278 C 
ATOM      8  C   UNL     1      34.399 -22.677 -18.284  0.00  0.00    +0.144 C 
ATOM      9  C   UNL     1      33.715 -23.006 -15.654  0.00  0.00    +0.159 C 
ATOM     10  C   UNL     1      32.813 -23.061 -16.654  0.00  0.00    +0.129 C 
ENDROOT
BRANCH  10  11
ATOM     11  C   UNL     1      31.385 -23.287 -16.341  0.00  0.00    +0.027 C 
ATOM     12  C   UNL     1      31.013 -24.333 -15.495  0.00  0.00    +0.005 C 
ATOM     13  C   UNL     1      30.408 -22.456 -16.889  0.00  0.00    +0.005 C 
ATOM     14  C   UNL     1      29.666 -24.548 -15.200  0.00  0.00    +0.037 C 
ATOM     15  C   UNL     1      29.062 -22.669 -16.594  0.00  0.00    +0.037 C 
ATOM     16  C   UNL     1      28.691 -23.715 -15.750  0.00  0.00    +0.134 C 
BRANCH  16  17
ATOM     17  O   UNL     1      27.378 -23.924 -15.460  0.00  0.00    -0.506 OA
ATOM     18  H   UNL     1      26.730 -23.310 -15.747  0.00  0.00    +0.292 HD
ENDBRANCH  16  17
ENDBRANCH  10  11
BRANCH   5  19
ATOM     19  O   UNL     1      37.928 -21.246 -15.611  0.00  0.00    -0.361 OA
ATOM     20  H   UNL     1      38.883 -21.398 -15.528  0.00  0.00    +0.213 HD
ENDBRANCH   5  19
BRANCH   5  21
ATOM     21  C   UNL     1      38.280 -23.600 -15.974  0.00  0.00    +0.086 C 
BRANCH  21  22
ATOM     22  C   UNL     1      37.976 -24.515 -14.819  0.00  0.00    -0.017 C 
ATOM     23  C   UNL     1      38.547 -24.264 -13.579  0.00  0.00    -0.001 C 
ATOM     24  C   UNL     1      37.125 -25.596 -15.008  0.00  0.00    -0.001 C 
ATOM     25  C   UNL     1      38.265 -25.111 -12.507  0.00  0.00    +0.036 C 
ATOM     26  C   UNL     1      36.843 -26.443 -13.936  0.00  0.00    +0.036 C 
ATOM     27  C   UNL     1      37.412 -26.200 -12.686  0.00  0.00    +0.134 C 
BRANCH  27  28
ATOM     28  O   UNL     1      37.137 -27.028 -11.640  0.00  0.00    -0.506 OA
ATOM     29  H   UNL     1      36.591 -26.730 -10.940  0.00  0.00    +0.292 HD
ENDBRANCH  27  28
ENDBRANCH  21  22
ENDBRANCH   5  21
BRANCH   8  30
ATOM     30  C   UNL     1      34.833 -22.485 -19.705  0.00  0.00    +0.088 C 
BRANCH  30  31
ATOM     31  C   UNL     1      34.513 -21.099 -20.181  0.00  0.00    -0.015 C 
ATOM     32  C   UNL     1      35.544 -20.251 -20.574  0.00  0.00    -0.004 C 
ATOM     33  C   UNL     1      33.190 -20.675 -20.228  0.00  0.00    -0.004 C 
ATOM     34  C   UNL     1      35.246 -18.963 -21.018  0.00  0.00    -0.000 C 
ATOM     35  C   UNL     1      32.892 -19.386 -20.672  0.00  0.00    -0.000 C 
ATOM     36  C   UNL     1      33.921 -18.530 -21.067  0.00  0.00    -0.000 C 
ENDBRANCH  30  31
ENDBRANCH   8  30
TORSDOF 8
ENDMDL
MODEL 5
REMARK VINA RESULT:      -9.6      3.395      7.433
REMARK  Name = 5287994
REMARK  8 active torsions:
REMARK  status: ('A' for Active; 'I' for Inactive)
REMARK    1  A    between atoms: C_5  and  O_19
REMARK    2  A    between atoms: C_5  and  C_21
REMARK    3  A    between atoms: C_8  and  C_30
REMARK    4  A    between atoms: C_10  and  C_11
REMARK    5  A    between atoms: C_16  and  O_17
REMARK    6  A    between atoms: C_21  and  C_22
REMARK    7  A    between atoms: C_27  and  O_28
REMARK    8  A    between atoms: C_30  and  C_31
REMARK                            x       y       z     vdW  Elec       q    Type
REMARK                         _______ _______ _______ _____ _____    ______ ____
ROOT
ATOM      1  O   UNL     1      33.782 -21.574 -20.251  0.00  0.00    -0.270 OA
ATOM      2  N   UNL     1      34.446 -22.287 -18.130  0.00  0.00    -0.232 N 
ATOM      3  N   UNL     1      36.653 -21.790 -18.134  0.00  0.00    -0.222 NA
ATOM      4  N   UNL     1      34.587 -23.347 -15.584  0.00  0.00    -0.406 NA
ATOM      5  C   UNL     1      36.084 -21.352 -19.446  0.00  0.00    +0.249 C 
ATOM      6  C   UNL     1      35.638 -22.286 -17.507  0.00  0.00    +0.162 C 
ATOM      7  C   UNL     1      34.605 -21.733 -19.364  0.00  0.00    +0.278 C 
ATOM      8  C   UNL     1      35.663 -22.870 -16.136  0.00  0.00    +0.144 C 
ATOM      9  C   UNL     1      33.322 -22.790 -17.550  0.00  0.00    +0.159 C 
ATOM     10  C   UNL     1      33.405 -23.299 -16.305  0.00  0.00    +0.129 C 
ENDROOT
BRANCH  10  11
ATOM     11  C   UNL     1      32.196 -23.862 -15.662  0.00  0.00    +0.027 C 
ATOM     12  C   UNL     1      30.948 -23.708 -16.266  0.00  0.00    +0.005 C 
ATOM     13  C   UNL     1      32.303 -24.546 -14.451  0.00  0.00    +0.005 C 
ATOM     14  C   UNL     1      29.808 -24.237 -15.660  0.00  0.00    +0.037 C 
ATOM     15  C   UNL     1      31.164 -25.077 -13.845  0.00  0.00    +0.037 C 
ATOM     16  C   UNL     1      29.917 -24.922 -14.449  0.00  0.00    +0.134 C 
BRANCH  16  17
ATOM     17  O   UNL     1      28.805 -25.440 -13.860  0.00  0.00    -0.506 OA
ATOM     18  H   UNL     1      28.799 -25.612 -12.938  0.00  0.00    +0.292 HD
ENDBRANCH  16  17
ENDBRANCH  10  11
BRANCH   5  19
ATOM     19  O   UNL     1      36.621 -21.981 -20.601  0.00  0.00    -0.361 OA
ATOM     20  H   UNL     1      36.920 -21.304 -21.228  0.00  0.00    +0.213 HD
ENDBRANCH   5  19
BRANCH   5  21
ATOM     21  C   UNL     1      36.246 -19.842 -19.561  0.00  0.00    +0.086 C 
BRANCH  21  22
ATOM     22  C   UNL     1      35.888 -19.347 -20.936  0.00  0.00    -0.017 C 
ATOM     23  C   UNL     1      34.567 -19.400 -21.360  0.00  0.00    -0.001 C 
ATOM     24  C   UNL     1      36.883 -18.841 -21.763  0.00  0.00    -0.001 C 
ATOM     25  C   UNL     1      34.234 -18.940 -22.634  0.00  0.00    +0.036 C 
ATOM     26  C   UNL     1      36.550 -18.381 -23.037  0.00  0.00    +0.036 C 
ATOM     27  C   UNL     1      35.226 -18.431 -23.472  0.00  0.00    +0.134 C 
BRANCH  27  28
ATOM     28  O   UNL     1      34.901 -17.982 -24.716  0.00  0.00    -0.506 OA
ATOM     29  H   UNL     1      34.428 -18.536 -25.305  0.00  0.00    +0.292 HD
ENDBRANCH  27  28
ENDBRANCH  21  22
ENDBRANCH   5  21
BRANCH   8  30
ATOM     30  C   UNL     1      36.975 -22.890 -15.412  0.00  0.00    +0.088 C 
BRANCH  30  31
ATOM     31  C   UNL     1      37.051 -24.053 -14.468  0.00  0.00    -0.015 C 
ATOM     32  C   UNL     1      37.193 -25.342 -14.973  0.00  0.00    -0.004 C 
ATOM     33  C   UNL     1      36.979 -23.834 -13.097  0.00  0.00    -0.004 C 
ATOM     34  C   UNL     1      37.264 -26.423 -14.095  0.00  0.00    -0.000 C 
ATOM     35  C   UNL     1      37.051 -24.915 -12.219  0.00  0.00    -0.000 C 
ATOM     36  C   UNL     1      37.193 -26.210 -12.719  0.00  0.00    -0.000 C 
ENDBRANCH  30  31
ENDBRANCH   8  30
TORSDOF 8
ENDMDL
MODEL 6
REMARK VINA RESULT:      -9.5     10.081     14.813
REMARK  Name = 5287994
REMARK  8 active torsions:
REMARK  status: ('A' for Active; 'I' for Inactive)
REMARK    1  A    between atoms: C_5  and  O_19
REMARK    2  A    between atoms: C_5  and  C_21
REMARK    3  A    between atoms: C_8  and  C_30
REMARK    4  A    between atoms: C_10  and  C_11
REMARK    5  A    between atoms: C_16  and  O_17
REMARK    6  A    between atoms: C_21  and  C_22
REMARK    7  A    between atoms: C_27  and  O_28
REMARK    8  A    between atoms: C_30  and  C_31
REMARK                            x       y       z     vdW  Elec       q    Type
REMARK                         _______ _______ _______ _____ _____    ______ ____
ROOT
ATOM      1  O   UNL     1      31.881 -12.454 -19.295  0.00  0.00    -0.270 OA
ATOM      2  N   UNL     1      32.561 -13.079 -21.439  0.00  0.00    -0.232 N 
ATOM      3  N   UNL     1      31.756 -11.383 -22.702  0.00  0.00    -0.222 NA
ATOM      4  N   UNL     1      33.581 -14.376 -23.652  0.00  0.00    -0.406 NA
ATOM      5  C   UNL     1      31.412 -11.093 -21.276  0.00  0.00    +0.249 C 
ATOM      6  C   UNL     1      32.389 -12.507 -22.644  0.00  0.00    +0.162 C 
ATOM      7  C   UNL     1      31.976 -12.284 -20.500  0.00  0.00    +0.278 C 
ATOM      8  C   UNL     1      32.957 -13.246 -23.808  0.00  0.00    +0.144 C 
ATOM      9  C   UNL     1      33.212 -14.263 -21.281  0.00  0.00    +0.159 C 
ATOM     10  C   UNL     1      33.710 -14.882 -22.369  0.00  0.00    +0.129 C 
ENDROOT
BRANCH  10  11
ATOM     11  C   UNL     1      34.412 -16.177 -22.219  0.00  0.00    +0.027 C 
ATOM     12  C   UNL     1      34.758 -16.640 -20.949  0.00  0.00    +0.005 C 
ATOM     13  C   UNL     1      34.728 -16.936 -23.346  0.00  0.00    +0.005 C 
ATOM     14  C   UNL     1      35.419 -17.860 -20.807  0.00  0.00    +0.037 C 
ATOM     15  C   UNL     1      35.388 -18.156 -23.205  0.00  0.00    +0.037 C 
ATOM     16  C   UNL     1      35.734 -18.618 -21.936  0.00  0.00    +0.134 C 
BRANCH  16  17
ATOM     17  O   UNL     1      36.378 -19.809 -21.796  0.00  0.00    -0.506 OA
ATOM     18  H   UNL     1      36.705 -20.071 -20.958  0.00  0.00    +0.292 HD
ENDBRANCH  16  17
ENDBRANCH  10  11
BRANCH   5  19
ATOM     19  O   UNL     1      30.027 -11.006 -20.972  0.00  0.00    -0.361 OA
ATOM     20  H   UNL     1      29.872 -10.253 -20.381  0.00  0.00    +0.213 HD
ENDBRANCH   5  19
BRANCH   5  21
ATOM     21  C   UNL     1      32.110  -9.802 -20.864  0.00  0.00    +0.086 C 
BRANCH  21  22
ATOM     22  C   UNL     1      32.153  -8.808 -21.992  0.00  0.00    -0.017 C 
ATOM     23  C   UNL     1      31.053  -8.673 -22.828  0.00  0.00    -0.001 C 
ATOM     24  C   UNL     1      33.292  -8.036 -22.181  0.00  0.00    -0.001 C 
ATOM     25  C   UNL     1      31.092  -7.750 -23.873  0.00  0.00    +0.036 C 
ATOM     26  C   UNL     1      33.332  -7.114 -23.226  0.00  0.00    +0.036 C 
ATOM     27  C   UNL     1      32.232  -6.971 -24.072  0.00  0.00    +0.134 C 
BRANCH  27  28
ATOM     28  O   UNL     1      32.271  -6.071 -25.093  0.00  0.00    -0.506 OA
ATOM     29  H   UNL     1      32.227  -5.153 -24.910  0.00  0.00    +0.292 HD
ENDBRANCH  27  28
ENDBRANCH  21  22
ENDBRANCH   5  21
BRANCH   8  30
ATOM     30  C   UNL     1      32.782 -12.642 -25.168  0.00  0.00    +0.088 C 
BRANCH  30  31
ATOM     31  C   UNL     1      33.894 -11.684 -25.477  0.00  0.00    -0.015 C 
ATOM     32  C   UNL     1      34.569 -11.780 -26.690  0.00  0.00    -0.004 C 
ATOM     33  C   UNL     1      34.239 -10.707 -24.550  0.00  0.00    -0.004 C 
ATOM     34  C   UNL     1      35.602 -10.888 -26.977  0.00  0.00    -0.000 C 
ATOM     35  C   UNL     1      35.273  -9.815 -24.838  0.00  0.00    -0.000 C 
ATOM     36  C   UNL     1      35.954  -9.906 -26.051  0.00  0.00    -0.000 C 
ENDBRANCH  30  31
ENDBRANCH   8  30
TORSDOF 8
ENDMDL
MODEL 7
REMARK VINA RESULT:      -9.0      4.000      8.074
REMARK  Name = 5287994
REMARK  8 active torsions:
REMARK  status: ('A' for Active; 'I' for Inactive)
REMARK    1  A    between atoms: C_5  and  O_19
REMARK    2  A    between atoms: C_5  and  C_21
REMARK    3  A    between atoms: C_8  and  C_30
REMARK    4  A    between atoms: C_10  and  C_11
REMARK    5  A    between atoms: C_16  and  O_17
REMARK    6  A    between atoms: C_21  and  C_22
REMARK    7  A    between atoms: C_27  and  O_28
REMARK    8  A    between atoms: C_30  and  C_31
REMARK                            x       y       z     vdW  Elec       q    Type
REMARK                         _______ _______ _______ _____ _____    ______ ____
ROOT
ATOM      1  O   UNL     1      32.524 -20.480 -20.794  0.00  0.00    -0.270 OA
ATOM      2  N   UNL     1      33.761 -21.423 -19.054  0.00  0.00    -0.232 N 
ATOM      3  N   UNL     1      35.877 -20.845 -19.612  0.00  0.00    -0.222 NA
ATOM      4  N   UNL     1      34.619 -22.784 -16.810  0.00  0.00    -0.406 NA
ATOM      5  C   UNL     1      34.960 -20.271 -20.644  0.00  0.00    +0.249 C 
ATOM      6  C   UNL     1      35.081 -21.453 -18.796  0.00  0.00    +0.162 C 
ATOM      7  C   UNL     1      33.565 -20.715 -20.201  0.00  0.00    +0.278 C 
ATOM      8  C   UNL     1      35.494 -22.201 -17.573  0.00  0.00    +0.144 C 
ATOM      9  C   UNL     1      32.849 -22.037 -18.253  0.00  0.00    +0.159 C 
ATOM     10  C   UNL     1      33.281 -22.693 -17.157  0.00  0.00    +0.129 C 
ENDROOT
BRANCH  10  11
ATOM     11  C   UNL     1      32.304 -23.377 -16.280  0.00  0.00    +0.027 C 
ATOM     12  C   UNL     1      30.940 -23.308 -16.567  0.00  0.00    +0.005 C 
ATOM     13  C   UNL     1      32.745 -24.091 -15.166  0.00  0.00    +0.005 C 
ATOM     14  C   UNL     1      30.020 -23.951 -15.740  0.00  0.00    +0.037 C 
ATOM     15  C   UNL     1      31.825 -24.735 -14.340  0.00  0.00    +0.037 C 
ATOM     16  C   UNL     1      30.463 -24.666 -14.626  0.00  0.00    +0.134 C 
BRANCH  16  17
ATOM     17  O   UNL     1      29.564 -25.295 -13.821  0.00  0.00    -0.506 OA
ATOM     18  H   UNL     1      29.409 -24.978 -12.953  0.00  0.00    +0.292 HD
ENDBRANCH  16  17
ENDBRANCH  10  11
BRANCH   5  19
ATOM     19  O   UNL     1      35.150 -20.731 -21.974  0.00  0.00    -0.361 OA
ATOM     20  H   UNL     1      34.341 -21.169 -22.283  0.00  0.00    +0.213 HD
ENDBRANCH   5  19
BRANCH   5  21
ATOM     21  C   UNL     1      35.079 -18.752 -20.603  0.00  0.00    +0.086 C 
BRANCH  21  22
ATOM     22  C   UNL     1      34.908 -18.144 -21.968  0.00  0.00    -0.017 C 
ATOM     23  C   UNL     1      35.170 -18.909 -23.097  0.00  0.00    -0.001 C 
ATOM     24  C   UNL     1      34.489 -16.825 -22.082  0.00  0.00    -0.001 C 
ATOM     25  C   UNL     1      35.011 -18.345 -24.362  0.00  0.00    +0.036 C 
ATOM     26  C   UNL     1      34.329 -16.261 -23.348  0.00  0.00    +0.036 C 
ATOM     27  C   UNL     1      34.591 -17.021 -24.487  0.00  0.00    +0.134 C 
BRANCH  27  28
ATOM     28  O   UNL     1      34.436 -16.471 -25.723  0.00  0.00    -0.506 OA
ATOM     29  H   UNL     1      34.627 -16.976 -26.488  0.00  0.00    +0.292 HD
ENDBRANCH  27  28
ENDBRANCH  21  22
ENDBRANCH   5  21
BRANCH   8  30
ATOM     30  C   UNL     1      36.957 -22.260 -17.255  0.00  0.00    +0.088 C 
BRANCH  30  31
ATOM     31  C   UNL     1      37.195 -22.954 -15.947  0.00  0.00    -0.015 C 
ATOM     32  C   UNL     1      36.333 -22.725 -14.880  0.00  0.00    -0.004 C 
ATOM     33  C   UNL     1      38.274 -23.820 -15.813  0.00  0.00    -0.004 C 
ATOM     34  C   UNL     1      36.554 -23.371 -13.663  0.00  0.00    -0.000 C 
ATOM     35  C   UNL     1      38.495 -24.467 -14.596  0.00  0.00    -0.000 C 
ATOM     36  C   UNL     1      37.634 -24.242 -13.521  0.00  0.00    -0.000 C 
ENDBRANCH  30  31
ENDBRANCH   8  30
TORSDOF 8
ENDMDL
MODEL 8
REMARK VINA RESULT:      -8.8      7.030     11.714
REMARK  Name = 5287994
REMARK  8 active torsions:
REMARK  status: ('A' for Active; 'I' for Inactive)
REMARK    1  A    between atoms: C_5  and  O_19
REMARK    2  A    between atoms: C_5  and  C_21
REMARK    3  A    between atoms: C_8  and  C_30
REMARK    4  A    between atoms: C_10  and  C_11
REMARK    5  A    between atoms: C_16  and  O_17
REMARK    6  A    between atoms: C_21  and  C_22
REMARK    7  A    between atoms: C_27  and  O_28
REMARK    8  A    between atoms: C_30  and  C_31
REMARK                            x       y       z     vdW  Elec       q    Type
REMARK                         _______ _______ _______ _____ _____    ______ ____
ROOT
ATOM      1  O   UNL     1      34.113 -19.447 -25.438  0.00  0.00    -0.270 OA
ATOM      2  N   UNL     1      34.518 -18.537 -23.327  0.00  0.00    -0.232 N 
ATOM      3  N   UNL     1      34.888 -16.359 -23.815  0.00  0.00    -0.222 NA
ATOM      4  N   UNL     1      34.946 -18.110 -20.633  0.00  0.00    -0.406 NA
ATOM      5  C   UNL     1      34.582 -17.068 -25.096  0.00  0.00    +0.249 C 
ATOM      6  C   UNL     1      34.816 -17.290 -22.922  0.00  0.00    +0.162 C 
ATOM      7  C   UNL     1      34.359 -18.523 -24.680  0.00  0.00    +0.278 C 
ATOM      8  C   UNL     1      35.040 -17.110 -21.459  0.00  0.00    +0.144 C 
ATOM      9  C   UNL     1      34.424 -19.581 -22.460  0.00  0.00    +0.159 C 
ATOM     10  C   UNL     1      34.629 -19.357 -21.147  0.00  0.00    +0.129 C 
ENDROOT
BRANCH  10  11
ATOM     11  C   UNL     1      34.543 -20.483 -20.189  0.00  0.00    +0.027 C 
ATOM     12  C   UNL     1      35.706 -21.024 -19.641  0.00  0.00    +0.005 C 
ATOM     13  C   UNL     1      33.299 -21.003 -19.834  0.00  0.00    +0.005 C 
ATOM     14  C   UNL     1      35.625 -22.085 -18.739  0.00  0.00    +0.037 C 
ATOM     15  C   UNL     1      33.217 -22.064 -18.931  0.00  0.00    +0.037 C 
ATOM     16  C   UNL     1      34.380 -22.605 -18.384  0.00  0.00    +0.134 C 
BRANCH  16  17
ATOM     17  O   UNL     1      34.301 -23.638 -17.503  0.00  0.00    -0.506 OA
ATOM     18  H   UNL     1      33.555 -23.722 -16.942  0.00  0.00    +0.292 HD
ENDBRANCH  16  17
ENDBRANCH  10  11
BRANCH   5  19
ATOM     19  O   UNL     1      35.610 -17.059 -26.076  0.00  0.00    -0.361 OA
ATOM     20  H   UNL     1      35.403 -17.707 -26.767  0.00  0.00    +0.213 HD
ENDBRANCH   5  19
BRANCH   5  21
ATOM     21  C   UNL     1      33.307 -16.474 -25.682  0.00  0.00    +0.086 C 
BRANCH  21  22
ATOM     22  C   UNL     1      33.366 -14.972 -25.737  0.00  0.00    -0.017 C 
ATOM     23  C   UNL     1      33.385 -14.244 -24.555  0.00  0.00    -0.001 C 
ATOM     24  C   UNL     1      33.402 -14.333 -26.970  0.00  0.00    -0.001 C 
ATOM     25  C   UNL     1      33.441 -12.851 -24.606  0.00  0.00    +0.036 C 
ATOM     26  C   UNL     1      33.458 -12.940 -27.021  0.00  0.00    +0.036 C 
ATOM     27  C   UNL     1      33.477 -12.200 -25.839  0.00  0.00    +0.134 C 
BRANCH  27  28
ATOM     28  O   UNL     1      33.530 -10.840 -25.888  0.00  0.00    -0.506 OA
ATOM     29  H   UNL     1      33.427 -10.397 -26.707  0.00  0.00    +0.292 HD
ENDBRANCH  27  28
ENDBRANCH  21  22
ENDBRANCH   5  21
BRANCH   8  30
ATOM     30  C   UNL     1      35.379 -15.735 -20.971  0.00  0.00    +0.088 C 
BRANCH  30  31
ATOM     31  C   UNL     1      34.146 -14.887 -20.856  0.00  0.00    -0.015 C 
ATOM     32  C   UNL     1      34.185 -13.558 -21.264  0.00  0.00    -0.004 C 
ATOM     33  C   UNL     1      32.977 -15.437 -20.345  0.00  0.00    -0.004 C 
ATOM     34  C   UNL     1      33.039 -12.770 -21.158  0.00  0.00    -0.000 C 
ATOM     35  C   UNL     1      31.830 -14.649 -20.239  0.00  0.00    -0.000 C 
ATOM     36  C   UNL     1      31.862 -13.315 -20.645  0.00  0.00    -0.000 C 
ENDBRANCH  30  31
ENDBRANCH   8  30
TORSDOF 8
ENDMDL
MODEL 9
REMARK VINA RESULT:      -8.8     12.180     16.849
REMARK  Name = 5287994
REMARK  8 active torsions:
REMARK  status: ('A' for Active; 'I' for Inactive)
REMARK    1  A    between atoms: C_5  and  O_19
REMARK    2  A    between atoms: C_5  and  C_21
REMARK    3  A    between atoms: C_8  and  C_30
REMARK    4  A    between atoms: C_10  and  C_11
REMARK    5  A    between atoms: C_16  and  O_17
REMARK    6  A    between atoms: C_21  and  C_22
REMARK    7  A    between atoms: C_27  and  O_28
REMARK    8  A    between atoms: C_30  and  C_31
REMARK                            x       y       z     vdW  Elec       q    Type
REMARK                         _______ _______ _______ _____ _____    ______ ____
ROOT
ATOM      1  O   UNL     1      35.798  -9.410 -25.045  0.00  0.00    -0.270 OA
ATOM      2  N   UNL     1      34.031 -10.636 -24.138  0.00  0.00    -0.232 N 
ATOM      3  N   UNL     1      32.824  -9.028 -23.100  0.00  0.00    -0.222 NA
ATOM      4  N   UNL     1      32.290 -12.615 -23.314  0.00  0.00    -0.406 NA
ATOM      5  C   UNL     1      33.992  -8.368 -23.759  0.00  0.00    +0.249 C 
ATOM      6  C   UNL     1      32.971 -10.278 -23.392  0.00  0.00    +0.162 C 
ATOM      7  C   UNL     1      34.754  -9.517 -24.421  0.00  0.00    +0.278 C 
ATOM      8  C   UNL     1      32.061 -11.382 -22.971  0.00  0.00    +0.144 C 
ATOM      9  C   UNL     1      34.268 -11.928 -24.493  0.00  0.00    +0.159 C 
ATOM     10  C   UNL     1      33.407 -12.883 -24.089  0.00  0.00    +0.129 C 
ENDROOT
BRANCH  10  11
ATOM     11  C   UNL     1      33.654 -14.296 -24.455  0.00  0.00    +0.027 C 
ATOM     12  C   UNL     1      34.378 -15.123 -23.596  0.00  0.00    +0.005 C 
ATOM     13  C   UNL     1      33.165 -14.801 -25.659  0.00  0.00    +0.005 C 
ATOM     14  C   UNL     1      34.612 -16.454 -23.941  0.00  0.00    +0.037 C 
ATOM     15  C   UNL     1      33.398 -16.133 -26.004  0.00  0.00    +0.037 C 
ATOM     16  C   UNL     1      34.122 -16.959 -25.146  0.00  0.00    +0.134 C 
BRANCH  16  17
ATOM     17  O   UNL     1      34.349 -18.258 -25.481  0.00  0.00    -0.506 OA
ATOM     18  H   UNL     1      34.698 -18.852 -24.846  0.00  0.00    +0.292 HD
ENDBRANCH  16  17
ENDBRANCH  10  11
BRANCH   5  19
ATOM     19  O   UNL     1      34.901  -7.697 -22.898  0.00  0.00    -0.361 OA
ATOM     20  H   UNL     1      34.679  -6.753 -22.866  0.00  0.00    +0.213 HD
ENDBRANCH   5  19
BRANCH   5  21
ATOM     21  C   UNL     1      33.467  -7.395 -24.809  0.00  0.00    +0.086 C 
BRANCH  21  22
ATOM     22  C   UNL     1      32.656  -6.290 -24.188  0.00  0.00    -0.017 C 
ATOM     23  C   UNL     1      32.407  -5.134 -24.915  0.00  0.00    -0.001 C 
ATOM     24  C   UNL     1      32.167  -6.442 -22.897  0.00  0.00    -0.001 C 
ATOM     25  C   UNL     1      31.654  -4.110 -24.340  0.00  0.00    +0.036 C 
ATOM     26  C   UNL     1      31.414  -5.418 -22.322  0.00  0.00    +0.036 C 
ATOM     27  C   UNL     1      31.158  -4.252 -23.044  0.00  0.00    +0.134 C 
BRANCH  27  28
ATOM     28  O   UNL     1      30.425  -3.252 -22.483  0.00  0.00    -0.506 OA
ATOM     29  H   UNL     1      30.719  -2.842 -21.693  0.00  0.00    +0.292 HD
ENDBRANCH  27  28
ENDBRANCH  21  22
ENDBRANCH   5  21
BRANCH   8  30
ATOM     30  C   UNL     1      30.871 -11.022 -22.135  0.00  0.00    +0.088 C 
BRANCH  30  31
ATOM     31  C   UNL     1      31.290 -10.597 -20.758  0.00  0.00    -0.015 C 
ATOM     32  C   UNL     1      31.707  -9.289 -20.539  0.00  0.00    -0.004 C 
ATOM     33  C   UNL     1      31.256 -11.515 -19.715  0.00  0.00    -0.004 C 
ATOM     34  C   UNL     1      32.096  -8.894 -19.258  0.00  0.00    -0.000 C 
ATOM     35  C   UNL     1      31.645 -11.120 -18.434  0.00  0.00    -0.000 C 
ATOM     36  C   UNL     1      32.065  -9.809 -18.207  0.00  0.00    -0.000 C 
ENDBRANCH  30  31
ENDBRANCH   8  30
TORSDOF 8
ENDMDL
