MODEL 1
REMARK VINA RESULT:      -5.6      0.000      0.000
REMARK  Name = 6918961
REMARK  2 active torsions:
REMARK  status: ('A' for Active; 'I' for Inactive)
REMARK    1  A    between atoms: C_1  and  N_6
REMARK    2  A    between atoms: C_1  and  C_12
REMARK                            x       y       z     vdW  Elec       q    Type
REMARK                         _______ _______ _______ _____ _____    ______ ____
ROOT
ATOM      1  C   UNL     1      29.589 -23.237 -16.256  0.00  0.00    +0.047 C 
ATOM      2  C   UNL     1      29.583 -22.601 -14.870  0.00  0.00    -0.009 C 
ATOM      3  C   UNL     1      29.762 -24.720 -15.951  0.00  0.00    -0.009 C 
ATOM      4  C   UNL     1      30.579 -23.418 -14.050  0.00  0.00    -0.002 C 
ATOM      5  C   UNL     1      30.701 -24.773 -14.747  0.00  0.00    -0.002 C 
ENDROOT
BRANCH   1   6
ATOM      6  N   UNL     1      30.772 -22.743 -17.019  0.00  0.00    +0.390 N 
ATOM      7  H   UNL     1      31.523 -23.430 -16.964  0.00  0.00    -0.088 HD
ATOM      8  H   UNL     1      31.089 -21.860 -16.620  0.00  0.00    -0.088 HD
ATOM      9  H   UNL     1      30.511 -22.602 -17.995  0.00  0.00    -0.088 HD
ENDBRANCH   1   6
BRANCH   1  12
ATOM     10  O   UNL     1      27.881 -21.750 -16.883  0.00  0.00    -0.248 OA
ATOM     11  O   UNL     1      27.743 -23.945 -17.515  0.00  0.00    -0.248 OA
ATOM     12  C   UNL     1      28.275 -22.947 -16.953  0.00  0.00    +0.346 C 
ENDBRANCH   1  12
TORSDOF 2
ENDMDL
MODEL 2
REMARK VINA RESULT:      -5.5      9.526     10.294
REMARK  Name = 6918961
REMARK  2 active torsions:
REMARK  status: ('A' for Active; 'I' for Inactive)
REMARK    1  A    between atoms: C_1  and  N_6
REMARK    2  A    between atoms: C_1  and  C_12
REMARK                            x       y       z     vdW  Elec       q    Type
REMARK                         _______ _______ _______ _____ _____    ______ ____
ROOT
ATOM      1  C   UNL     1      38.836 -25.258 -14.513  0.00  0.00    +0.047 C 
ATOM      2  C   UNL     1      38.212 -26.641 -14.662  0.00  0.00    -0.009 C 
ATOM      3  C   UNL     1      38.682 -24.973 -13.024  0.00  0.00    -0.009 C 
ATOM      4  C   UNL     1      37.041 -26.660 -13.682  0.00  0.00    -0.002 C 
ATOM      5  C   UNL     1      37.337 -25.585 -12.637  0.00  0.00    -0.002 C 
ENDROOT
BRANCH   1   6
ATOM      6  N   UNL     1      38.038 -24.271 -15.296  0.00  0.00    +0.390 N 
ATOM      7  H   UNL     1      38.178 -24.434 -16.293  0.00  0.00    -0.088 HD
ATOM      8  H   UNL     1      38.340 -23.326 -15.061  0.00  0.00    -0.088 HD
ATOM      9  H   UNL     1      37.049 -24.378 -15.070  0.00  0.00    -0.088 HD
ENDBRANCH   1   6
BRANCH   1  12
ATOM     10  O   UNL     1      40.540 -26.074 -15.910  0.00  0.00    -0.248 OA
ATOM     11  O   UNL     1      41.065 -24.578 -14.261  0.00  0.00    -0.248 OA
ATOM     12  C   UNL     1      40.290 -25.310 -14.938  0.00  0.00    +0.346 C 
ENDBRANCH   1  12
TORSDOF 2
ENDMDL
MODEL 3
REMARK VINA RESULT:      -5.4      1.373      2.064
REMARK  Name = 6918961
REMARK  2 active torsions:
REMARK  status: ('A' for Active; 'I' for Inactive)
REMARK    1  A    between atoms: C_1  and  N_6
REMARK    2  A    between atoms: C_1  and  C_12
REMARK                            x       y       z     vdW  Elec       q    Type
REMARK                         _______ _______ _______ _____ _____    ______ ____
ROOT
ATOM      1  C   UNL     1      29.795 -23.635 -16.027  0.00  0.00    +0.047 C 
ATOM      2  C   UNL     1      31.094 -23.174 -16.678  0.00  0.00    -0.009 C 
ATOM      3  C   UNL     1      29.823 -22.935 -14.674  0.00  0.00    -0.009 C 
ATOM      4  C   UNL     1      32.105 -23.088 -15.537  0.00  0.00    -0.002 C 
ATOM      5  C   UNL     1      31.291 -22.943 -14.251  0.00  0.00    -0.002 C 
ENDROOT
BRANCH   1   6
ATOM      6  N   UNL     1      29.842 -25.113 -15.826  0.00  0.00    +0.390 N 
ATOM      7  H   UNL     1      29.782 -25.322 -14.829  0.00  0.00    -0.088 HD
ATOM      8  H   UNL     1      30.717 -25.479 -16.199  0.00  0.00    -0.088 HD
ATOM      9  H   UNL     1      29.057 -25.547 -16.311  0.00  0.00    -0.088 HD
ENDBRANCH   1   6
BRANCH   1  12
ATOM     10  O   UNL     1      27.904 -24.126 -17.334  0.00  0.00    -0.248 OA
ATOM     11  O   UNL     1      28.506 -21.943 -17.011  0.00  0.00    -0.248 OA
ATOM     12  C   UNL     1      28.619 -23.193 -16.874  0.00  0.00    +0.346 C 
ENDBRANCH   1  12
TORSDOF 2
ENDMDL
MODEL 4
REMARK VINA RESULT:      -5.4      8.566      9.117
REMARK  Name = 6918961
REMARK  2 active torsions:
REMARK  status: ('A' for Active; 'I' for Inactive)
REMARK    1  A    between atoms: C_1  and  N_6
REMARK    2  A    between atoms: C_1  and  C_12
REMARK                            x       y       z     vdW  Elec       q    Type
REMARK                         _______ _______ _______ _____ _____    ______ ____
ROOT
ATOM      1  C   UNL     1      34.857 -18.800 -21.574  0.00  0.00    +0.047 C 
ATOM      2  C   UNL     1      35.875 -19.541 -20.713  0.00  0.00    -0.009 C 
ATOM      3  C   UNL     1      33.540 -19.079 -20.861  0.00  0.00    -0.009 C 
ATOM      4  C   UNL     1      35.158 -20.804 -20.243  0.00  0.00    -0.002 C 
ATOM      5  C   UNL     1      33.661 -20.512 -20.345  0.00  0.00    -0.002 C 
ENDROOT
BRANCH   1   6
ATOM      6  N   UNL     1      34.827 -19.409 -22.935  0.00  0.00    +0.390 N 
ATOM      7  H   UNL     1      34.519 -20.379 -22.867  0.00  0.00    -0.088 HD
ATOM      8  H   UNL     1      35.761 -19.377 -23.343  0.00  0.00    -0.088 HD
ATOM      9  H   UNL     1      34.180 -18.887 -23.526  0.00  0.00    -0.088 HD
ENDBRANCH   1   6
BRANCH   1  12
ATOM     10  O   UNL     1      35.401 -16.834 -22.741  0.00  0.00    -0.248 OA
ATOM     11  O   UNL     1      35.220 -16.769 -20.461  0.00  0.00    -0.248 OA
ATOM     12  C   UNL     1      35.193 -17.323 -21.596  0.00  0.00    +0.346 C 
ENDBRANCH   1  12
TORSDOF 2
ENDMDL
MODEL 5
REMARK VINA RESULT:      -5.3      9.980     10.705
REMARK  Name = 6918961
REMARK  2 active torsions:
REMARK  status: ('A' for Active; 'I' for Inactive)
REMARK    1  A    between atoms: C_1  and  N_6
REMARK    2  A    between atoms: C_1  and  C_12
REMARK                            x       y       z     vdW  Elec       q    Type
REMARK                         _______ _______ _______ _____ _____    ______ ____
ROOT
ATOM      1  C   UNL     1      35.435 -18.009 -22.556  0.00  0.00    +0.047 C 
ATOM      2  C   UNL     1      34.632 -19.117 -23.231  0.00  0.00    -0.009 C 
ATOM      3  C   UNL     1      34.981 -16.758 -23.297  0.00  0.00    -0.009 C 
ATOM      4  C   UNL     1      34.549 -18.712 -24.701  0.00  0.00    -0.002 C 
ATOM      5  C   UNL     1      34.781 -17.202 -24.746  0.00  0.00    -0.002 C 
ENDROOT
BRANCH   1   6
ATOM      6  N   UNL     1      36.889 -18.236 -22.803  0.00  0.00    +0.390 N 
ATOM      7  H   UNL     1      37.233 -17.543 -23.467  0.00  0.00    -0.088 HD
ATOM      8  H   UNL     1      37.028 -19.171 -23.184  0.00  0.00    -0.088 HD
ATOM      9  H   UNL     1      37.400 -18.148 -21.924  0.00  0.00    -0.088 HD
ENDBRANCH   1   6
BRANCH   1  12
ATOM     10  O   UNL     1      35.246 -16.835 -20.530  0.00  0.00    -0.248 OA
ATOM     11  O   UNL     1      34.682 -19.051 -20.596  0.00  0.00    -0.248 OA
ATOM     12  C   UNL     1      35.088 -17.958 -21.083  0.00  0.00    +0.346 C 
ENDBRANCH   1  12
TORSDOF 2
ENDMDL
MODEL 6
REMARK VINA RESULT:      -5.2     14.868     15.399
REMARK  Name = 6918961
REMARK  2 active torsions:
REMARK  status: ('A' for Active; 'I' for Inactive)
REMARK    1  A    between atoms: C_1  and  N_6
REMARK    2  A    between atoms: C_1  and  C_12
REMARK                            x       y       z     vdW  Elec       q    Type
REMARK                         _______ _______ _______ _____ _____    ______ ____
ROOT
ATOM      1  C   UNL     1      41.971 -15.334 -17.071  0.00  0.00    +0.047 C 
ATOM      2  C   UNL     1      43.388 -14.796 -16.903  0.00  0.00    -0.009 C 
ATOM      3  C   UNL     1      41.315 -14.292 -17.970  0.00  0.00    -0.009 C 
ATOM      4  C   UNL     1      43.236 -13.277 -16.850  0.00  0.00    -0.002 C 
ATOM      5  C   UNL     1      41.904 -12.954 -17.527  0.00  0.00    -0.002 C 
ENDROOT
BRANCH   1   6
ATOM      6  N   UNL     1      41.289 -15.349 -15.744  0.00  0.00    +0.390 N 
ATOM      7  H   UNL     1      41.754 -14.694 -15.116  0.00  0.00    -0.088 HD
ATOM      8  H   UNL     1      41.333 -16.288 -15.350  0.00  0.00    -0.088 HD
ATOM      9  H   UNL     1      40.313 -15.073 -15.861  0.00  0.00    -0.088 HD
ENDBRANCH   1   6
BRANCH   1  12
ATOM     10  O   UNL     1      41.544 -17.644 -17.035  0.00  0.00    -0.248 OA
ATOM     11  O   UNL     1      42.537 -16.718 -18.876  0.00  0.00    -0.248 OA
ATOM     12  C   UNL     1      42.022 -16.700 -17.723  0.00  0.00    +0.346 C 
ENDBRANCH   1  12
TORSDOF 2
ENDMDL
MODEL 7
REMARK VINA RESULT:      -5.2      7.754      8.636
REMARK  Name = 6918961
REMARK  2 active torsions:
REMARK  status: ('A' for Active; 'I' for Inactive)
REMARK    1  A    between atoms: C_1  and  N_6
REMARK    2  A    between atoms: C_1  and  C_12
REMARK                            x       y       z     vdW  Elec       q    Type
REMARK                         _______ _______ _______ _____ _____    ______ ____
ROOT
ATOM      1  C   UNL     1      36.848 -24.537 -12.244  0.00  0.00    +0.047 C 
ATOM      2  C   UNL     1      37.286 -25.973 -12.517  0.00  0.00    -0.009 C 
ATOM      3  C   UNL     1      36.832 -23.915 -13.634  0.00  0.00    -0.009 C 
ATOM      4  C   UNL     1      38.295 -25.873 -13.659  0.00  0.00    -0.002 C 
ATOM      5  C   UNL     1      38.010 -24.550 -14.371  0.00  0.00    -0.002 C 
ENDROOT
BRANCH   1   6
ATOM      6  N   UNL     1      37.879 -23.860 -11.405  0.00  0.00    +0.390 N 
ATOM      7  H   UNL     1      37.491 -23.662 -10.483  0.00  0.00    -0.088 HD
ATOM      8  H   UNL     1      38.161 -22.987 -11.850  0.00  0.00    -0.088 HD
ATOM      9  H   UNL     1      38.692 -24.470 -11.308  0.00  0.00    -0.088 HD
ENDBRANCH   1   6
BRANCH   1  12
ATOM     10  O   UNL     1      35.410 -25.095 -10.472  0.00  0.00    -0.248 OA
ATOM     11  O   UNL     1      34.572 -23.982 -12.286  0.00  0.00    -0.248 OA
ATOM     12  C   UNL     1      35.476 -24.540 -11.603  0.00  0.00    +0.346 C 
ENDBRANCH   1  12
TORSDOF 2
ENDMDL
MODEL 8
REMARK VINA RESULT:      -5.2      9.513      9.958
REMARK  Name = 6918961
REMARK  2 active torsions:
REMARK  status: ('A' for Active; 'I' for Inactive)
REMARK    1  A    between atoms: C_1  and  N_6
REMARK    2  A    between atoms: C_1  and  C_12
REMARK                            x       y       z     vdW  Elec       q    Type
REMARK                         _______ _______ _______ _____ _____    ______ ____
ROOT
ATOM      1  C   UNL     1      35.295 -17.964 -21.795  0.00  0.00    +0.047 C 
ATOM      2  C   UNL     1      34.242 -19.066 -21.743  0.00  0.00    -0.009 C 
ATOM      3  C   UNL     1      36.595 -18.723 -21.560  0.00  0.00    -0.009 C 
ATOM      4  C   UNL     1      34.736 -20.043 -20.679  0.00  0.00    -0.002 C 
ATOM      5  C   UNL     1      36.243 -19.818 -20.555  0.00  0.00    -0.002 C 
ENDROOT
BRANCH   1   6
ATOM      6  N   UNL     1      35.064 -17.010 -20.671  0.00  0.00    +0.390 N 
ATOM      7  H   UNL     1      34.905 -17.532 -19.809  0.00  0.00    -0.088 HD
ATOM      8  H   UNL     1      34.248 -16.435 -20.876  0.00  0.00    -0.088 HD
ATOM      9  H   UNL     1      35.883 -16.412 -20.560  0.00  0.00    -0.088 HD
ENDBRANCH   1   6
BRANCH   1  12
ATOM     10  O   UNL     1      35.418 -16.042 -23.141  0.00  0.00    -0.248 OA
ATOM     11  O   UNL     1      35.082 -18.079 -24.126  0.00  0.00    -0.248 OA
ATOM     12  C   UNL     1      35.262 -17.294 -23.153  0.00  0.00    +0.346 C 
ENDBRANCH   1  12
TORSDOF 2
ENDMDL
MODEL 9
REMARK VINA RESULT:      -5.1      8.496      9.181
REMARK  Name = 6918961
REMARK  2 active torsions:
REMARK  status: ('A' for Active; 'I' for Inactive)
REMARK    1  A    between atoms: C_1  and  N_6
REMARK    2  A    between atoms: C_1  and  C_12
REMARK                            x       y       z     vdW  Elec       q    Type
REMARK                         _______ _______ _______ _____ _____    ______ ____
ROOT
ATOM      1  C   UNL     1      34.805 -19.035 -21.269  0.00  0.00    +0.047 C 
ATOM      2  C   UNL     1      34.891 -19.348 -22.760  0.00  0.00    -0.009 C 
ATOM      3  C   UNL     1      34.243 -17.620 -21.249  0.00  0.00    -0.009 C 
ATOM      4  C   UNL     1      35.282 -18.029 -23.423  0.00  0.00    -0.002 C 
ATOM      5  C   UNL     1      34.874 -16.921 -22.452  0.00  0.00    -0.002 C 
ENDROOT
BRANCH   1   6
ATOM      6  N   UNL     1      36.179 -19.036 -20.687  0.00  0.00    +0.390 N 
ATOM      7  H   UNL     1      36.116 -19.064 -19.669  0.00  0.00    -0.088 HD
ATOM      8  H   UNL     1      36.670 -18.190 -20.974  0.00  0.00    -0.088 HD
ATOM      9  H   UNL     1      36.688 -19.855 -21.018  0.00  0.00    -0.088 HD
ENDBRANCH   1   6
BRANCH   1  12
ATOM     10  O   UNL     1      32.653 -19.884 -20.858  0.00  0.00    -0.248 OA
ATOM     11  O   UNL     1      34.457 -20.875 -19.859  0.00  0.00    -0.248 OA
ATOM     12  C   UNL     1      33.880 -20.028 -20.597  0.00  0.00    +0.346 C 
ENDBRANCH   1  12
TORSDOF 2
ENDMDL
