MODEL 1
REMARK VINA RESULT:      -6.8      0.000      0.000
REMARK  Name = 5288331
REMARK  4 active torsions:
REMARK  status: ('A' for Active; 'I' for Inactive)
REMARK    1  A    between atoms: C_2  and  O_7
REMARK    2  A    between atoms: C_3  and  O_9
REMARK    3  A    between atoms: C_6  and  C_12
REMARK    4  A    between atoms: C_12  and  O_13
REMARK                            x       y       z     vdW  Elec       q    Type
REMARK                         _______ _______ _______ _____ _____    ______ ____
ROOT
ATOM      1  O   UNL     1      38.747 -24.050 -14.702  0.00  0.00    -0.467 OA
ATOM      2  C   UNL     1      37.270 -23.644 -12.767  0.00  0.00    +0.185 C 
ATOM      3  C   UNL     1      37.530 -25.055 -12.233  0.00  0.00    +0.166 C 
ATOM      4  C   UNL     1      37.452 -23.593 -14.283  0.00  0.00    +0.238 C 
ATOM      5  C   UNL     1      38.644 -25.728 -12.976  0.00  0.00    +0.049 C 
ATOM      6  C   UNL     1      39.174 -25.204 -14.090  0.00  0.00    +0.212 C 
ENDROOT
BRANCH   2   7
ATOM      7  O   UNL     1      38.187 -22.725 -12.177  0.00  0.00    -0.378 OA
ATOM      8  H   UNL     1      38.772 -23.198 -11.566  0.00  0.00    +0.211 HD
ENDBRANCH   2   7
BRANCH   3   9
ATOM      9  O   UNL     1      36.364 -25.857 -12.393  0.00  0.00    -0.377 OA
ATOM     10  H   UNL     1      36.322 -26.514 -11.681  0.00  0.00    +0.211 HD
ENDBRANCH   3   9
BRANCH   6  12
ATOM     11  O   UNL     1      41.148 -26.527 -14.089  0.00  0.00    -0.242 OA
ATOM     12  C   UNL     1      40.302 -25.905 -14.705  0.00  0.00    +0.372 C 
BRANCH  12  13
ATOM     13  O   UNL     1      40.255 -25.752 -16.047  0.00  0.00    -0.475 OA
ATOM     14  H   UNL     1      40.231 -26.506 -16.602  0.00  0.00    +0.296 HD
ENDBRANCH  12  13
ENDBRANCH   6  12
TORSDOF 4
ENDMDL
MODEL 2
REMARK VINA RESULT:      -6.6      1.501      1.962
REMARK  Name = 5288331
REMARK  4 active torsions:
REMARK  status: ('A' for Active; 'I' for Inactive)
REMARK    1  A    between atoms: C_2  and  O_7
REMARK    2  A    between atoms: C_3  and  O_9
REMARK    3  A    between atoms: C_6  and  C_12
REMARK    4  A    between atoms: C_12  and  O_13
REMARK                            x       y       z     vdW  Elec       q    Type
REMARK                         _______ _______ _______ _____ _____    ______ ____
ROOT
ATOM      1  O   UNL     1      38.961 -24.769 -13.237  0.00  0.00    -0.467 OA
ATOM      2  C   UNL     1      36.527 -25.154 -13.108  0.00  0.00    +0.185 C 
ATOM      3  C   UNL     1      36.548 -25.924 -14.431  0.00  0.00    +0.166 C 
ATOM      4  C   UNL     1      37.679 -24.153 -13.043  0.00  0.00    +0.238 C 
ATOM      5  C   UNL     1      37.948 -26.214 -14.878  0.00  0.00    +0.049 C 
ATOM      6  C   UNL     1      39.014 -25.669 -14.274  0.00  0.00    +0.212 C 
ENDROOT
BRANCH   2   7
ATOM      7  O   UNL     1      36.662 -26.062 -12.016  0.00  0.00    -0.378 OA
ATOM      8  H   UNL     1      36.537 -26.969 -12.332  0.00  0.00    +0.211 HD
ENDBRANCH   2   7
BRANCH   3   9
ATOM      9  O   UNL     1      35.925 -25.151 -15.452  0.00  0.00    -0.377 OA
ATOM     10  H   UNL     1      34.965 -25.145 -15.313  0.00  0.00    +0.211 HD
ENDBRANCH   3   9
BRANCH   6  12
ATOM     11  O   UNL     1      41.213 -26.538 -14.035  0.00  0.00    -0.242 OA
ATOM     12  C   UNL     1      40.342 -26.066 -14.744  0.00  0.00    +0.372 C 
BRANCH  12  13
ATOM     13  O   UNL     1      40.445 -25.828 -16.069  0.00  0.00    -0.475 OA
ATOM     14  H   UNL     1      39.675 -25.658 -16.575  0.00  0.00    +0.296 HD
ENDBRANCH  12  13
ENDBRANCH   6  12
TORSDOF 4
ENDMDL
MODEL 3
REMARK VINA RESULT:      -6.4      1.677      2.106
REMARK  Name = 5288331
REMARK  4 active torsions:
REMARK  status: ('A' for Active; 'I' for Inactive)
REMARK    1  A    between atoms: C_2  and  O_7
REMARK    2  A    between atoms: C_3  and  O_9
REMARK    3  A    between atoms: C_6  and  C_12
REMARK    4  A    between atoms: C_12  and  O_13
REMARK                            x       y       z     vdW  Elec       q    Type
REMARK                         _______ _______ _______ _____ _____    ______ ____
ROOT
ATOM      1  O   UNL     1      38.431 -26.548 -15.277  0.00  0.00    -0.467 OA
ATOM      2  C   UNL     1      36.307 -25.587 -14.469  0.00  0.00    +0.185 C 
ATOM      3  C   UNL     1      36.974 -25.121 -13.172  0.00  0.00    +0.166 C 
ATOM      4  C   UNL     1      37.036 -26.796 -15.052  0.00  0.00    +0.238 C 
ATOM      5  C   UNL     1      38.464 -25.261 -13.240  0.00  0.00    +0.049 C 
ATOM      6  C   UNL     1      39.073 -25.908 -14.243  0.00  0.00    +0.212 C 
ENDROOT
BRANCH   2   7
ATOM      7  O   UNL     1      36.338 -24.539 -15.435  0.00  0.00    -0.378 OA
ATOM      8  H   UNL     1      35.574 -23.957 -15.306  0.00  0.00    +0.211 HD
ENDBRANCH   2   7
BRANCH   3   9
ATOM      9  O   UNL     1      36.519 -25.914 -12.080  0.00  0.00    -0.377 OA
ATOM     10  H   UNL     1      37.277 -26.341 -11.653  0.00  0.00    +0.211 HD
ENDBRANCH   3   9
BRANCH   6  12
ATOM     11  O   UNL     1      41.213 -26.898 -13.941  0.00  0.00    -0.242 OA
ATOM     12  C   UNL     1      40.537 -25.934 -14.251  0.00  0.00    +0.372 C 
BRANCH  12  13
ATOM     13  O   UNL     1      41.009 -24.733 -14.652  0.00  0.00    -0.475 OA
ATOM     14  H   UNL     1      40.657 -23.946 -14.286  0.00  0.00    +0.296 HD
ENDBRANCH  12  13
ENDBRANCH   6  12
TORSDOF 4
ENDMDL
MODEL 4
REMARK VINA RESULT:      -6.1      1.380      1.515
REMARK  Name = 5288331
REMARK  4 active torsions:
REMARK  status: ('A' for Active; 'I' for Inactive)
REMARK    1  A    between atoms: C_2  and  O_7
REMARK    2  A    between atoms: C_3  and  O_9
REMARK    3  A    between atoms: C_6  and  C_12
REMARK    4  A    between atoms: C_12  and  O_13
REMARK                            x       y       z     vdW  Elec       q    Type
REMARK                         _______ _______ _______ _____ _____    ______ ____
ROOT
ATOM      1  O   UNL     1      37.851 -23.879 -14.236  0.00  0.00    -0.467 OA
ATOM      2  C   UNL     1      36.858 -23.263 -12.063  0.00  0.00    +0.185 C 
ATOM      3  C   UNL     1      36.559 -24.731 -11.747  0.00  0.00    +0.166 C 
ATOM      4  C   UNL     1      36.905 -23.029 -13.571  0.00  0.00    +0.238 C 
ATOM      5  C   UNL     1      37.223 -25.650 -12.727  0.00  0.00    +0.049 C 
ATOM      6  C   UNL     1      37.817 -25.195 -13.839  0.00  0.00    +0.212 C 
ENDROOT
BRANCH   2   7
ATOM      7  O   UNL     1      38.122 -22.896 -11.515  0.00  0.00    -0.378 OA
ATOM      8  H   UNL     1      38.250 -21.940 -11.608  0.00  0.00    +0.211 HD
ENDBRANCH   2   7
BRANCH   3   9
ATOM      9  O   UNL     1      35.157 -24.968 -11.821  0.00  0.00    -0.377 OA
ATOM     10  H   UNL     1      34.794 -24.519 -12.600  0.00  0.00    +0.211 HD
ENDBRANCH   3   9
BRANCH   6  12
ATOM     11  O   UNL     1      38.250 -27.361 -14.717  0.00  0.00    -0.242 OA
ATOM     12  C   UNL     1      38.493 -26.167 -14.699  0.00  0.00    +0.372 C 
BRANCH  12  13
ATOM     13  O   UNL     1      39.418 -25.538 -15.456  0.00  0.00    -0.475 OA
ATOM     14  H   UNL     1      39.547 -24.615 -15.366  0.00  0.00    +0.296 HD
ENDBRANCH  12  13
ENDBRANCH   6  12
TORSDOF 4
ENDMDL
MODEL 5
REMARK VINA RESULT:      -6.0      7.937      9.836
REMARK  Name = 5288331
REMARK  4 active torsions:
REMARK  status: ('A' for Active; 'I' for Inactive)
REMARK    1  A    between atoms: C_2  and  O_7
REMARK    2  A    between atoms: C_3  and  O_9
REMARK    3  A    between atoms: C_6  and  C_12
REMARK    4  A    between atoms: C_12  and  O_13
REMARK                            x       y       z     vdW  Elec       q    Type
REMARK                         _______ _______ _______ _____ _____    ______ ____
ROOT
ATOM      1  O   UNL     1      28.867 -24.709 -15.165  0.00  0.00    -0.467 OA
ATOM      2  C   UNL     1      31.028 -24.886 -13.988  0.00  0.00    +0.185 C 
ATOM      3  C   UNL     1      31.445 -23.497 -14.479  0.00  0.00    +0.166 C 
ATOM      4  C   UNL     1      30.027 -25.525 -14.948  0.00  0.00    +0.238 C 
ATOM      5  C   UNL     1      30.299 -22.771 -15.115  0.00  0.00    +0.049 C 
ATOM      6  C   UNL     1      29.135 -23.378 -15.385  0.00  0.00    +0.212 C 
ENDROOT
BRANCH   2   7
ATOM      7  O   UNL     1      30.412 -24.782 -12.705  0.00  0.00    -0.378 OA
ATOM      8  H   UNL     1      31.090 -24.617 -12.033  0.00  0.00    +0.211 HD
ENDBRANCH   2   7
BRANCH   3   9
ATOM      9  O   UNL     1      32.472 -23.617 -15.458  0.00  0.00    -0.377 OA
ATOM     10  H   UNL     1      32.553 -24.544 -15.730  0.00  0.00    +0.211 HD
ENDBRANCH   3   9
BRANCH   6  12
ATOM     11  O   UNL     1      26.943 -22.461 -15.461  0.00  0.00    -0.242 OA
ATOM     12  C   UNL     1      28.055 -22.566 -15.948  0.00  0.00    +0.372 C 
BRANCH  12  13
ATOM     13  O   UNL     1      28.484 -21.961 -17.076  0.00  0.00    -0.475 OA
ATOM     14  H   UNL     1      29.368 -22.075 -17.361  0.00  0.00    +0.296 HD
ENDBRANCH  12  13
ENDBRANCH   6  12
TORSDOF 4
ENDMDL
MODEL 6
REMARK VINA RESULT:      -6.0      1.596      4.332
REMARK  Name = 5288331
REMARK  4 active torsions:
REMARK  status: ('A' for Active; 'I' for Inactive)
REMARK    1  A    between atoms: C_2  and  O_7
REMARK    2  A    between atoms: C_3  and  O_9
REMARK    3  A    between atoms: C_6  and  C_12
REMARK    4  A    between atoms: C_12  and  O_13
REMARK                            x       y       z     vdW  Elec       q    Type
REMARK                         _______ _______ _______ _____ _____    ______ ____
ROOT
ATOM      1  O   UNL     1      36.991 -26.222 -12.435  0.00  0.00    -0.467 OA
ATOM      2  C   UNL     1      38.219 -26.070 -14.570  0.00  0.00    +0.185 C 
ATOM      3  C   UNL     1      37.942 -24.567 -14.659  0.00  0.00    +0.166 C 
ATOM      4  C   UNL     1      37.140 -26.775 -13.751  0.00  0.00    +0.238 C 
ATOM      5  C   UNL     1      37.366 -24.038 -13.381  0.00  0.00    +0.049 C 
ATOM      6  C   UNL     1      36.969 -24.849 -12.390  0.00  0.00    +0.212 C 
ENDROOT
BRANCH   2   7
ATOM      7  O   UNL     1      39.477 -26.296 -13.938  0.00  0.00    -0.378 OA
ATOM      8  H   UNL     1      39.556 -27.231 -13.698  0.00  0.00    +0.211 HD
ENDBRANCH   2   7
BRANCH   3   9
ATOM      9  O   UNL     1      36.997 -24.308 -15.693  0.00  0.00    -0.377 OA
ATOM     10  H   UNL     1      36.408 -25.072 -15.791  0.00  0.00    +0.211 HD
ENDBRANCH   3   9
BRANCH   6  12
ATOM     11  O   UNL     1      36.969 -23.242 -10.638  0.00  0.00    -0.242 OA
ATOM     12  C   UNL     1      36.481 -24.231 -11.156  0.00  0.00    +0.372 C 
BRANCH  12  13
ATOM     13  O   UNL     1      35.419 -24.924 -10.690  0.00  0.00    -0.475 OA
ATOM     14  H   UNL     1      35.515 -25.827 -10.460  0.00  0.00    +0.296 HD
ENDBRANCH  12  13
ENDBRANCH   6  12
TORSDOF 4
ENDMDL
MODEL 7
REMARK VINA RESULT:      -6.0      2.564      3.330
REMARK  Name = 5288331
REMARK  4 active torsions:
REMARK  status: ('A' for Active; 'I' for Inactive)
REMARK    1  A    between atoms: C_2  and  O_7
REMARK    2  A    between atoms: C_3  and  O_9
REMARK    3  A    between atoms: C_6  and  C_12
REMARK    4  A    between atoms: C_12  and  O_13
REMARK                            x       y       z     vdW  Elec       q    Type
REMARK                         _______ _______ _______ _____ _____    ______ ____
ROOT
ATOM      1  O   UNL     1      37.245 -25.488 -13.130  0.00  0.00    -0.467 OA
ATOM      2  C   UNL     1      35.403 -23.960 -12.530  0.00  0.00    +0.185 C 
ATOM      3  C   UNL     1      34.879 -23.976 -13.968  0.00  0.00    +0.166 C 
ATOM      4  C   UNL     1      36.903 -24.249 -12.494  0.00  0.00    +0.238 C 
ATOM      5  C   UNL     1      35.560 -25.028 -14.790  0.00  0.00    +0.049 C 
ATOM      6  C   UNL     1      36.628 -25.702 -14.340  0.00  0.00    +0.212 C 
ENDROOT
BRANCH   2   7
ATOM      7  O   UNL     1      34.738 -24.959 -11.759  0.00  0.00    -0.378 OA
ATOM      8  H   UNL     1      33.888 -25.174 -12.172  0.00  0.00    +0.211 HD
ENDBRANCH   2   7
BRANCH   3   9
ATOM      9  O   UNL     1      35.129 -22.719 -14.590  0.00  0.00    -0.377 OA
ATOM     10  H   UNL     1      34.360 -22.463 -15.122  0.00  0.00    +0.211 HD
ENDBRANCH   3   9
BRANCH   6  12
ATOM     11  O   UNL     1      36.618 -27.221 -16.167  0.00  0.00    -0.242 OA
ATOM     12  C   UNL     1      37.180 -26.755 -15.193  0.00  0.00    +0.372 C 
BRANCH  12  13
ATOM     13  O   UNL     1      38.396 -27.122 -14.732  0.00  0.00    -0.475 OA
ATOM     14  H   UNL     1      39.160 -26.960 -15.248  0.00  0.00    +0.296 HD
ENDBRANCH  12  13
ENDBRANCH   6  12
TORSDOF 4
ENDMDL
MODEL 8
REMARK VINA RESULT:      -6.0      1.992      3.758
REMARK  Name = 5288331
REMARK  4 active torsions:
REMARK  status: ('A' for Active; 'I' for Inactive)
REMARK    1  A    between atoms: C_2  and  O_7
REMARK    2  A    between atoms: C_3  and  O_9
REMARK    3  A    between atoms: C_6  and  C_12
REMARK    4  A    between atoms: C_12  and  O_13
REMARK                            x       y       z     vdW  Elec       q    Type
REMARK                         _______ _______ _______ _____ _____    ______ ____
ROOT
ATOM      1  O   UNL     1      36.944 -23.680 -13.956  0.00  0.00    -0.467 OA
ATOM      2  C   UNL     1      36.501 -25.838 -15.067  0.00  0.00    +0.185 C 
ATOM      3  C   UNL     1      37.304 -26.588 -14.001  0.00  0.00    +0.166 C 
ATOM      4  C   UNL     1      36.985 -24.395 -15.199  0.00  0.00    +0.238 C 
ATOM      5  C   UNL     1      37.646 -25.699 -12.844  0.00  0.00    +0.049 C 
ATOM      6  C   UNL     1      37.436 -24.376 -12.877  0.00  0.00    +0.212 C 
ENDROOT
BRANCH   2   7
ATOM      7  O   UNL     1      35.121 -25.814 -14.708  0.00  0.00    -0.378 OA
ATOM      8  H   UNL     1      34.577 -25.869 -15.508  0.00  0.00    +0.211 HD
ENDBRANCH   2   7
BRANCH   3   9
ATOM      9  O   UNL     1      38.529 -27.056 -14.557  0.00  0.00    -0.377 OA
ATOM     10  H   UNL     1      39.273 -26.695 -14.051  0.00  0.00    +0.211 HD
ENDBRANCH   3   9
BRANCH   6  12
ATOM     11  O   UNL     1      38.593 -22.734 -11.605  0.00  0.00    -0.242 OA
ATOM     12  C   UNL     1      37.743 -23.605 -11.671  0.00  0.00    +0.372 C 
BRANCH  12  13
ATOM     13  O   UNL     1      36.947 -24.009 -10.658  0.00  0.00    -0.475 OA
ATOM     14  H   UNL     1      36.106 -24.379 -10.843  0.00  0.00    +0.296 HD
ENDBRANCH  12  13
ENDBRANCH   6  12
TORSDOF 4
ENDMDL
MODEL 9
REMARK VINA RESULT:      -5.9      2.032      4.338
REMARK  Name = 5288331
REMARK  4 active torsions:
REMARK  status: ('A' for Active; 'I' for Inactive)
REMARK    1  A    between atoms: C_2  and  O_7
REMARK    2  A    between atoms: C_3  and  O_9
REMARK    3  A    between atoms: C_6  and  C_12
REMARK    4  A    between atoms: C_12  and  O_13
REMARK                            x       y       z     vdW  Elec       q    Type
REMARK                         _______ _______ _______ _____ _____    ______ ____
ROOT
ATOM      1  O   UNL     1      36.259 -23.805 -13.654  0.00  0.00    -0.467 OA
ATOM      2  C   UNL     1      37.760 -25.283 -14.939  0.00  0.00    +0.185 C 
ATOM      3  C   UNL     1      37.996 -26.164 -13.710  0.00  0.00    +0.166 C 
ATOM      4  C   UNL     1      37.397 -23.858 -14.526  0.00  0.00    +0.238 C 
ATOM      5  C   UNL     1      37.056 -25.818 -12.596  0.00  0.00    +0.049 C 
ATOM      6  C   UNL     1      36.269 -24.733 -12.640  0.00  0.00    +0.212 C 
ENDROOT
BRANCH   2   7
ATOM      7  O   UNL     1      36.684 -25.809 -15.715  0.00  0.00    -0.378 OA
ATOM      8  H   UNL     1      36.396 -25.147 -16.361  0.00  0.00    +0.211 HD
ENDBRANCH   2   7
BRANCH   3   9
ATOM      9  O   UNL     1      39.322 -25.975 -13.225  0.00  0.00    -0.377 OA
ATOM     10  H   UNL     1      39.907 -26.643 -13.613  0.00  0.00    +0.211 HD
ENDBRANCH   3   9
BRANCH   6  12
ATOM     11  O   UNL     1      35.380 -25.114 -10.470  0.00  0.00    -0.242 OA
ATOM     12  C   UNL     1      35.339 -24.518 -11.531  0.00  0.00    +0.372 C 
BRANCH  12  13
ATOM     13  O   UNL     1      34.441 -23.567 -11.869  0.00  0.00    -0.475 OA
ATOM     14  H   UNL     1      33.848 -23.235 -11.225  0.00  0.00    +0.296 HD
ENDBRANCH  12  13
ENDBRANCH   6  12
TORSDOF 4
ENDMDL
