MODEL 1
REMARK VINA RESULT:      -6.2      0.000      0.000
REMARK  Name = 449120
REMARK  0 active torsions:
REMARK  status: ('A' for Active; 'I' for Inactive)
REMARK                            x       y       z     vdW  Elec       q    Type
REMARK                         _______ _______ _______ _____ _____    ______ ____
ROOT
ATOM      1  O   UNL     1      33.082 -14.756 -24.520  0.00  0.00    -0.275 OA
ATOM      2  N   UNL     1      34.636 -16.318 -23.782  0.00  0.00    -0.280 N 
ATOM      3  C   UNL     1      34.656 -18.478 -22.580  0.00  0.00    +0.020 C 
ATOM      4  C   UNL     1      34.894 -19.194 -23.919  0.00  0.00    +0.003 C 
ATOM      5  C   UNL     1      35.196 -17.041 -22.633  0.00  0.00    +0.093 C 
ATOM      6  C   UNL     1      34.325 -18.383 -25.083  0.00  0.00    +0.022 C 
ATOM      7  C   UNL     1      34.866 -16.957 -25.079  0.00  0.00    +0.093 C 
ATOM      8  C   UNL     1      35.293 -19.254 -21.430  0.00  0.00    +0.002 C 
ATOM      9  C   UNL     1      33.952 -15.105 -23.718  0.00  0.00    +0.226 C 
ATOM     10  C   UNL     1      34.319 -14.181 -22.583  0.00  0.00    +0.095 C 
ENDROOT
TORSDOF 0
ENDMDL
MODEL 2
REMARK VINA RESULT:      -6.0      1.935      3.544
REMARK  Name = 449120
REMARK  0 active torsions:
REMARK  status: ('A' for Active; 'I' for Inactive)
REMARK                            x       y       z     vdW  Elec       q    Type
REMARK                         _______ _______ _______ _____ _____    ______ ____
ROOT
ATOM      1  O   UNL     1      33.863 -17.187 -25.648  0.00  0.00    -0.275 OA
ATOM      2  N   UNL     1      34.127 -15.635 -23.938  0.00  0.00    -0.280 N 
ATOM      3  C   UNL     1      33.018 -15.016 -21.817  0.00  0.00    +0.020 C 
ATOM      4  C   UNL     1      34.141 -15.731 -21.049  0.00  0.00    +0.003 C 
ATOM      5  C   UNL     1      33.524 -14.529 -23.183  0.00  0.00    +0.093 C 
ATOM      6  C   UNL     1      34.758 -16.847 -21.893  0.00  0.00    +0.022 C 
ATOM      7  C   UNL     1      35.219 -16.323 -23.249  0.00  0.00    +0.093 C 
ATOM      8  C   UNL     1      32.458 -13.854 -21.001  0.00  0.00    +0.002 C 
ATOM      9  C   UNL     1      33.756 -16.034 -25.222  0.00  0.00    +0.226 C 
ATOM     10  C   UNL     1      33.188 -14.966 -26.124  0.00  0.00    +0.095 C 
ENDROOT
TORSDOF 0
ENDMDL
MODEL 3
REMARK VINA RESULT:      -6.0      1.355      1.445
REMARK  Name = 449120
REMARK  0 active torsions:
REMARK  status: ('A' for Active; 'I' for Inactive)
REMARK                            x       y       z     vdW  Elec       q    Type
REMARK                         _______ _______ _______ _____ _____    ______ ____
ROOT
ATOM      1  O   UNL     1      33.209 -14.912 -22.843  0.00  0.00    -0.275 OA
ATOM      2  N   UNL     1      34.665 -16.637 -22.290  0.00  0.00    -0.280 N 
ATOM      3  C   UNL     1      34.548 -19.030 -21.682  0.00  0.00    +0.020 C 
ATOM      4  C   UNL     1      35.007 -19.389 -23.105  0.00  0.00    +0.003 C 
ATOM      5  C   UNL     1      35.057 -17.636 -21.288  0.00  0.00    +0.093 C 
ATOM      6  C   UNL     1      34.607 -18.301 -24.101  0.00  0.00    +0.022 C 
ATOM      7  C   UNL     1      35.108 -16.931 -23.654  0.00  0.00    +0.093 C 
ATOM      8  C   UNL     1      35.018 -20.082 -20.681  0.00  0.00    +0.002 C 
ATOM      9  C   UNL     1      33.952 -15.467 -22.029  0.00  0.00    +0.226 C 
ATOM     10  C   UNL     1      34.118 -14.867 -20.656  0.00  0.00    +0.095 C 
ENDROOT
TORSDOF 0
ENDMDL
MODEL 4
REMARK VINA RESULT:      -5.8      2.171      4.412
REMARK  Name = 449120
REMARK  0 active torsions:
REMARK  status: ('A' for Active; 'I' for Inactive)
REMARK                            x       y       z     vdW  Elec       q    Type
REMARK                         _______ _______ _______ _____ _____    ______ ____
ROOT
ATOM      1  O   UNL     1      34.078 -19.453 -21.874  0.00  0.00    -0.275 OA
ATOM      2  N   UNL     1      34.824 -17.318 -22.407  0.00  0.00    -0.280 N 
ATOM      3  C   UNL     1      33.860 -15.103 -22.936  0.00  0.00    +0.020 C 
ATOM      4  C   UNL     1      34.213 -14.637 -21.514  0.00  0.00    +0.003 C 
ATOM      5  C   UNL     1      34.809 -16.224 -23.387  0.00  0.00    +0.093 C 
ATOM      6  C   UNL     1      34.250 -15.817 -20.543  0.00  0.00    +0.022 C 
ATOM      7  C   UNL     1      35.182 -16.916 -21.046  0.00  0.00    +0.093 C 
ATOM      8  C   UNL     1      33.900 -13.933 -23.915  0.00  0.00    +0.002 C 
ATOM      9  C   UNL     1      34.554 -18.657 -22.687  0.00  0.00    +0.226 C 
ATOM     10  C   UNL     1      34.872 -19.133 -24.083  0.00  0.00    +0.095 C 
ENDROOT
TORSDOF 0
ENDMDL
MODEL 5
REMARK VINA RESULT:      -5.7      1.672      3.628
REMARK  Name = 449120
REMARK  0 active torsions:
REMARK  status: ('A' for Active; 'I' for Inactive)
REMARK                            x       y       z     vdW  Elec       q    Type
REMARK                         _______ _______ _______ _____ _____    ______ ____
ROOT
ATOM      1  O   UNL     1      35.068 -16.921 -25.876  0.00  0.00    -0.275 OA
ATOM      2  N   UNL     1      34.009 -16.282 -23.908  0.00  0.00    -0.280 N 
ATOM      3  C   UNL     1      34.591 -15.187 -21.769  0.00  0.00    +0.020 C 
ATOM      4  C   UNL     1      33.944 -13.891 -22.284  0.00  0.00    +0.003 C 
ATOM      5  C   UNL     1      33.958 -16.412 -22.446  0.00  0.00    +0.093 C 
ATOM      6  C   UNL     1      33.991 -13.824 -23.811  0.00  0.00    +0.022 C 
ATOM      7  C   UNL     1      33.378 -15.072 -24.438  0.00  0.00    +0.093 C 
ATOM      8  C   UNL     1      34.472 -15.285 -20.251  0.00  0.00    +0.002 C 
ATOM      9  C   UNL     1      34.574 -17.210 -24.782  0.00  0.00    +0.226 C 
ATOM     10  C   UNL     1      34.569 -18.650 -24.335  0.00  0.00    +0.095 C 
ENDROOT
TORSDOF 0
ENDMDL
MODEL 6
REMARK VINA RESULT:      -5.7      2.804      4.134
REMARK  Name = 449120
REMARK  0 active torsions:
REMARK  status: ('A' for Active; 'I' for Inactive)
REMARK                            x       y       z     vdW  Elec       q    Type
REMARK                         _______ _______ _______ _____ _____    ______ ____
ROOT
ATOM      1  O   UNL     1      33.266 -16.900 -20.993  0.00  0.00    -0.275 OA
ATOM      2  N   UNL     1      34.184 -19.023 -21.223  0.00  0.00    -0.280 N 
ATOM      3  C   UNL     1      35.429 -20.656 -19.847  0.00  0.00    +0.020 C 
ATOM      4  C   UNL     1      34.135 -21.469 -19.684  0.00  0.00    +0.003 C 
ATOM      5  C   UNL     1      35.397 -19.847 -21.152  0.00  0.00    +0.093 C 
ATOM      6  C   UNL     1      32.904 -20.570 -19.802  0.00  0.00    +0.022 C 
ATOM      7  C   UNL     1      32.929 -19.767 -21.098  0.00  0.00    +0.093 C 
ATOM      8  C   UNL     1      36.651 -21.570 -19.805  0.00  0.00    +0.002 C 
ATOM      9  C   UNL     1      34.156 -17.642 -21.418  0.00  0.00    +0.226 C 
ATOM     10  C   UNL     1      35.300 -17.046 -22.198  0.00  0.00    +0.095 C 
ENDROOT
TORSDOF 0
ENDMDL
MODEL 7
REMARK VINA RESULT:      -5.7      1.548      2.183
REMARK  Name = 449120
REMARK  0 active torsions:
REMARK  status: ('A' for Active; 'I' for Inactive)
REMARK                            x       y       z     vdW  Elec       q    Type
REMARK                         _______ _______ _______ _____ _____    ______ ____
ROOT
ATOM      1  O   UNL     1      32.025 -14.251 -22.140  0.00  0.00    -0.275 OA
ATOM      2  N   UNL     1      33.938 -15.356 -22.861  0.00  0.00    -0.280 N 
ATOM      3  C   UNL     1      34.563 -17.573 -23.758  0.00  0.00    +0.020 C 
ATOM      4  C   UNL     1      34.654 -16.953 -25.161  0.00  0.00    +0.003 C 
ATOM      5  C   UNL     1      34.827 -16.510 -22.680  0.00  0.00    +0.093 C 
ATOM      6  C   UNL     1      33.737 -15.736 -25.283  0.00  0.00    +0.022 C 
ATOM      7  C   UNL     1      34.016 -14.722 -24.178  0.00  0.00    +0.093 C 
ATOM      8  C   UNL     1      35.537 -18.740 -23.617  0.00  0.00    +0.002 C 
ATOM      9  C   UNL     1      33.082 -14.837 -21.890  0.00  0.00    +0.226 C 
ATOM     10  C   UNL     1      33.500 -15.020 -20.452  0.00  0.00    +0.095 C 
ENDROOT
TORSDOF 0
ENDMDL
MODEL 8
REMARK VINA RESULT:      -5.7     10.253     12.341
REMARK  Name = 449120
REMARK  0 active torsions:
REMARK  status: ('A' for Active; 'I' for Inactive)
REMARK                            x       y       z     vdW  Elec       q    Type
REMARK                         _______ _______ _______ _____ _____    ______ ____
ROOT
ATOM      1  O   UNL     1      38.145 -27.136 -14.670  0.00  0.00    -0.275 OA
ATOM      2  N   UNL     1      37.611 -24.877 -14.554  0.00  0.00    -0.280 N 
ATOM      3  C   UNL     1      36.806 -23.090 -16.061  0.00  0.00    +0.020 C 
ATOM      4  C   UNL     1      35.406 -23.232 -15.441  0.00  0.00    +0.003 C 
ATOM      5  C   UNL     1      37.886 -23.526 -15.059  0.00  0.00    +0.093 C 
ATOM      6  C   UNL     1      35.186 -24.644 -14.900  0.00  0.00    +0.022 C 
ATOM      7  C   UNL     1      36.296 -25.044 -13.933  0.00  0.00    +0.093 C 
ATOM      8  C   UNL     1      37.048 -21.658 -16.530  0.00  0.00    +0.002 C 
ATOM      9  C   UNL     1      38.495 -25.954 -14.607  0.00  0.00    +0.226 C 
ATOM     10  C   UNL     1      39.966 -25.623 -14.587  0.00  0.00    +0.095 C 
ENDROOT
TORSDOF 0
ENDMDL
MODEL 9
REMARK VINA RESULT:      -5.7      1.976      4.336
REMARK  Name = 449120
REMARK  0 active torsions:
REMARK  status: ('A' for Active; 'I' for Inactive)
REMARK                            x       y       z     vdW  Elec       q    Type
REMARK                         _______ _______ _______ _____ _____    ______ ____
ROOT
ATOM      1  O   UNL     1      34.371 -19.173 -22.457  0.00  0.00    -0.275 OA
ATOM      2  N   UNL     1      34.783 -17.352 -23.841  0.00  0.00    -0.280 N 
ATOM      3  C   UNL     1      33.504 -15.558 -24.962  0.00  0.00    +0.020 C 
ATOM      4  C   UNL     1      33.986 -14.573 -23.885  0.00  0.00    +0.003 C 
ATOM      5  C   UNL     1      34.508 -16.707 -25.131  0.00  0.00    +0.093 C 
ATOM      6  C   UNL     1      34.292 -15.300 -22.575  0.00  0.00    +0.022 C 
ATOM      7  C   UNL     1      35.270 -16.449 -22.797  0.00  0.00    +0.093 C 
ATOM      8  C   UNL     1      33.274 -14.839 -26.289  0.00  0.00    +0.002 C 
ATOM      9  C   UNL     1      34.637 -18.712 -23.570  0.00  0.00    +0.226 C 
ATOM     10  C   UNL     1      34.819 -19.656 -24.732  0.00  0.00    +0.095 C 
ENDROOT
TORSDOF 0
ENDMDL
