MODEL 1
REMARK VINA RESULT:      -8.8      0.000      0.000
REMARK  Name = 11217901
REMARK  2 active torsions:
REMARK  status: ('A' for Active; 'I' for Inactive)
REMARK    1  A    between atoms: N_2  and  C_9
REMARK    2  A    between atoms: C_14  and  O_15
REMARK                            x       y       z     vdW  Elec       q    Type
REMARK                         _______ _______ _______ _____ _____    ______ ____
ROOT
ATOM      1  O   UNL     1      35.020 -19.567 -23.755  0.00  0.00    -0.269 OA
ATOM      2  N   UNL     1      34.683 -18.418 -21.710  0.00  0.00    -0.233 N 
ATOM      3  C   UNL     1      34.602 -17.154 -21.120  0.00  0.00    +0.068 C 
ATOM      4  C   UNL     1      34.635 -16.012 -21.825  0.00  0.00    -0.006 C 
ATOM      5  C   UNL     1      34.840 -18.531 -23.114  0.00  0.00    +0.257 C 
ATOM      6  C   UNL     1      34.753 -16.077 -23.258  0.00  0.00    +0.002 C 
ATOM      7  C   UNL     1      34.839 -17.252 -23.886  0.00  0.00    +0.058 C 
ATOM      8  C   UNL     1      34.534 -14.657 -21.199  0.00  0.00    +0.032 C 
ENDROOT
BRANCH   2   9
ATOM      9  C   UNL     1      34.630 -19.615 -20.893  0.00  0.00    +0.059 C 
ATOM     10  C   UNL     1      33.398 -20.132 -20.507  0.00  0.00    +0.018 C 
ATOM     11  C   UNL     1      35.812 -20.235 -20.502  0.00  0.00    +0.018 C 
ATOM     12  C   UNL     1      33.347 -21.282 -19.719  0.00  0.00    +0.038 C 
ATOM     13  C   UNL     1      35.761 -21.386 -19.716  0.00  0.00    +0.038 C 
ATOM     14  C   UNL     1      34.529 -21.910 -19.325  0.00  0.00    +0.134 C 
BRANCH  14  15
ATOM     15  O   UNL     1      34.479 -23.034 -18.558  0.00  0.00    -0.506 OA
ATOM     16  H   UNL     1      34.749 -23.002 -17.662  0.00  0.00    +0.292 HD
ENDBRANCH  14  15
ENDBRANCH   2   9
TORSDOF 2
ENDMDL
MODEL 2
REMARK VINA RESULT:      -8.7      1.428      2.248
REMARK  Name = 11217901
REMARK  2 active torsions:
REMARK  status: ('A' for Active; 'I' for Inactive)
REMARK    1  A    between atoms: N_2  and  C_9
REMARK    2  A    between atoms: C_14  and  O_15
REMARK                            x       y       z     vdW  Elec       q    Type
REMARK                         _______ _______ _______ _____ _____    ______ ____
ROOT
ATOM      1  O   UNL     1      34.939 -16.486 -20.047  0.00  0.00    -0.269 OA
ATOM      2  N   UNL     1      34.866 -17.999 -21.870  0.00  0.00    -0.233 N 
ATOM      3  C   UNL     1      34.729 -18.097 -23.256  0.00  0.00    +0.068 C 
ATOM      4  C   UNL     1      34.671 -17.027 -24.065  0.00  0.00    -0.006 C 
ATOM      5  C   UNL     1      34.917 -16.722 -21.256  0.00  0.00    +0.257 C 
ATOM      6  C   UNL     1      34.759 -15.710 -23.491  0.00  0.00    +0.002 C 
ATOM      7  C   UNL     1      34.886 -15.544 -22.173  0.00  0.00    +0.058 C 
ATOM      8  C   UNL     1      34.539 -17.127 -25.552  0.00  0.00    +0.032 C 
ENDROOT
BRANCH   2   9
ATOM      9  C   UNL     1      34.934 -19.194 -21.052  0.00  0.00    +0.059 C 
ATOM     10  C   UNL     1      33.761 -19.834 -20.667  0.00  0.00    +0.018 C 
ATOM     11  C   UNL     1      36.172 -19.691 -20.659  0.00  0.00    +0.018 C 
ATOM     12  C   UNL     1      33.827 -20.983 -19.878  0.00  0.00    +0.038 C 
ATOM     13  C   UNL     1      36.238 -20.840 -19.872  0.00  0.00    +0.038 C 
ATOM     14  C   UNL     1      35.065 -21.487 -19.482  0.00  0.00    +0.134 C 
BRANCH  14  15
ATOM     15  O   UNL     1      35.129 -22.609 -18.714  0.00  0.00    -0.506 OA
ATOM     16  H   UNL     1      35.953 -23.026 -18.561  0.00  0.00    +0.292 HD
ENDBRANCH  14  15
ENDBRANCH   2   9
TORSDOF 2
ENDMDL
MODEL 3
REMARK VINA RESULT:      -8.3      2.142      5.542
REMARK  Name = 11217901
REMARK  2 active torsions:
REMARK  status: ('A' for Active; 'I' for Inactive)
REMARK    1  A    between atoms: N_2  and  C_9
REMARK    2  A    between atoms: C_14  and  O_15
REMARK                            x       y       z     vdW  Elec       q    Type
REMARK                         _______ _______ _______ _____ _____    ______ ____
ROOT
ATOM      1  O   UNL     1      37.716 -18.982 -21.493  0.00  0.00    -0.269 OA
ATOM      2  N   UNL     1      35.387 -19.419 -21.539  0.00  0.00    -0.233 N 
ATOM      3  C   UNL     1      34.364 -20.174 -20.959  0.00  0.00    +0.068 C 
ATOM      4  C   UNL     1      34.554 -20.977 -19.901  0.00  0.00    -0.006 C 
ATOM      5  C   UNL     1      36.706 -19.510 -21.026  0.00  0.00    +0.257 C 
ATOM      6  C   UNL     1      35.868 -21.072 -19.321  0.00  0.00    +0.002 C 
ATOM      7  C   UNL     1      36.892 -20.381 -19.828  0.00  0.00    +0.058 C 
ATOM      8  C   UNL     1      33.459 -21.776 -19.268  0.00  0.00    +0.032 C 
ENDROOT
BRANCH   2   9
ATOM      9  C   UNL     1      35.113 -18.560 -22.674  0.00  0.00    +0.059 C 
ATOM     10  C   UNL     1      35.122 -17.178 -22.511  0.00  0.00    +0.018 C 
ATOM     11  C   UNL     1      34.844 -19.125 -23.916  0.00  0.00    +0.018 C 
ATOM     12  C   UNL     1      34.857 -16.352 -23.604  0.00  0.00    +0.038 C 
ATOM     13  C   UNL     1      34.580 -18.299 -25.008  0.00  0.00    +0.038 C 
ATOM     14  C   UNL     1      34.587 -16.913 -24.853  0.00  0.00    +0.134 C 
BRANCH  14  15
ATOM     15  O   UNL     1      34.331 -16.106 -25.919  0.00  0.00    -0.506 OA
ATOM     16  H   UNL     1      35.038 -15.768 -26.432  0.00  0.00    +0.292 HD
ENDBRANCH  14  15
ENDBRANCH   2   9
TORSDOF 2
ENDMDL
MODEL 4
REMARK VINA RESULT:      -8.3      1.754      5.510
REMARK  Name = 11217901
REMARK  2 active torsions:
REMARK  status: ('A' for Active; 'I' for Inactive)
REMARK    1  A    between atoms: N_2  and  C_9
REMARK    2  A    between atoms: C_14  and  O_15
REMARK                            x       y       z     vdW  Elec       q    Type
REMARK                         _______ _______ _______ _____ _____    ______ ____
ROOT
ATOM      1  O   UNL     1      32.297 -20.223 -20.880  0.00  0.00    -0.269 OA
ATOM      2  N   UNL     1      34.650 -20.045 -20.659  0.00  0.00    -0.233 N 
ATOM      3  C   UNL     1      35.756 -20.493 -19.934  0.00  0.00    +0.068 C 
ATOM      4  C   UNL     1      35.681 -21.452 -18.997  0.00  0.00    -0.006 C 
ATOM      5  C   UNL     1      33.367 -20.587 -20.392  0.00  0.00    +0.257 C 
ATOM      6  C   UNL     1      34.407 -22.061 -18.720  0.00  0.00    +0.002 C 
ATOM      7  C   UNL     1      33.307 -21.677 -19.372  0.00  0.00    +0.058 C 
ATOM      8  C   UNL     1      36.866 -21.946 -18.230  0.00  0.00    +0.032 C 
ENDROOT
BRANCH   2   9
ATOM      9  C   UNL     1      34.800 -19.013 -21.666  0.00  0.00    +0.059 C 
ATOM     10  C   UNL     1      34.855 -17.677 -21.282  0.00  0.00    +0.018 C 
ATOM     11  C   UNL     1      34.888 -19.368 -23.008  0.00  0.00    +0.018 C 
ATOM     12  C   UNL     1      34.997 -16.685 -22.252  0.00  0.00    +0.038 C 
ATOM     13  C   UNL     1      35.032 -18.375 -23.977  0.00  0.00    +0.038 C 
ATOM     14  C   UNL     1      35.087 -17.034 -23.599  0.00  0.00    +0.134 C 
BRANCH  14  15
ATOM     15  O   UNL     1      35.228 -16.064 -24.544  0.00  0.00    -0.506 OA
ATOM     16  H   UNL     1      34.976 -15.183 -24.353  0.00  0.00    +0.292 HD
ENDBRANCH  14  15
ENDBRANCH   2   9
TORSDOF 2
ENDMDL
MODEL 5
REMARK VINA RESULT:      -8.0      5.100      7.128
REMARK  Name = 11217901
REMARK  2 active torsions:
REMARK  status: ('A' for Active; 'I' for Inactive)
REMARK    1  A    between atoms: N_2  and  C_9
REMARK    2  A    between atoms: C_14  and  O_15
REMARK                            x       y       z     vdW  Elec       q    Type
REMARK                         _______ _______ _______ _____ _____    ______ ____
ROOT
ATOM      1  O   UNL     1      34.466 -11.327 -24.986  0.00  0.00    -0.269 OA
ATOM      2  N   UNL     1      33.062 -12.605 -23.567  0.00  0.00    -0.233 N 
ATOM      3  C   UNL     1      32.159 -12.533 -22.503  0.00  0.00    +0.068 C 
ATOM      4  C   UNL     1      31.733 -11.373 -21.979  0.00  0.00    -0.006 C 
ATOM      5  C   UNL     1      33.596 -11.413 -24.119  0.00  0.00    +0.257 C 
ATOM      6  C   UNL     1      32.216 -10.135 -22.533  0.00  0.00    +0.002 C 
ATOM      7  C   UNL     1      33.085 -10.131 -23.547  0.00  0.00    +0.058 C 
ATOM      8  C   UNL     1      30.755 -11.291 -20.851  0.00  0.00    +0.032 C 
ENDROOT
BRANCH   2   9
ATOM      9  C   UNL     1      33.474 -13.890 -24.095  0.00  0.00    +0.059 C 
ATOM     10  C   UNL     1      34.326 -14.700 -23.352  0.00  0.00    +0.018 C 
ATOM     11  C   UNL     1      33.014 -14.303 -25.341  0.00  0.00    +0.018 C 
ATOM     12  C   UNL     1      34.724 -15.936 -23.862  0.00  0.00    +0.038 C 
ATOM     13  C   UNL     1      33.411 -15.539 -25.850  0.00  0.00    +0.038 C 
ATOM     14  C   UNL     1      34.266 -16.356 -25.110  0.00  0.00    +0.134 C 
BRANCH  14  15
ATOM     15  O   UNL     1      34.653 -17.563 -25.606  0.00  0.00    -0.506 OA
ATOM     16  H   UNL     1      34.320 -17.861 -26.429  0.00  0.00    +0.292 HD
ENDBRANCH  14  15
ENDBRANCH   2   9
TORSDOF 2
ENDMDL
MODEL 6
REMARK VINA RESULT:      -7.7      3.217      6.587
REMARK  Name = 11217901
REMARK  2 active torsions:
REMARK  status: ('A' for Active; 'I' for Inactive)
REMARK    1  A    between atoms: N_2  and  C_9
REMARK    2  A    between atoms: C_14  and  O_15
REMARK                            x       y       z     vdW  Elec       q    Type
REMARK                         _______ _______ _______ _____ _____    ______ ____
ROOT
ATOM      1  O   UNL     1      35.054 -16.046 -20.122  0.00  0.00    -0.269 OA
ATOM      2  N   UNL     1      34.307 -16.303 -22.357  0.00  0.00    -0.233 N 
ATOM      3  C   UNL     1      34.315 -17.158 -23.462  0.00  0.00    +0.068 C 
ATOM      4  C   UNL     1      34.838 -18.393 -23.432  0.00  0.00    -0.006 C 
ATOM      5  C   UNL     1      34.902 -16.723 -21.140  0.00  0.00    +0.257 C 
ATOM      6  C   UNL     1      35.417 -18.878 -22.206  0.00  0.00    +0.002 C 
ATOM      7  C   UNL     1      35.448 -18.113 -21.113  0.00  0.00    +0.058 C 
ATOM      8  C   UNL     1      34.834 -19.317 -24.609  0.00  0.00    +0.032 C 
ENDROOT
BRANCH   2   9
ATOM      9  C   UNL     1      33.716 -14.983 -22.452  0.00  0.00    +0.059 C 
ATOM     10  C   UNL     1      34.166 -14.095 -23.423  0.00  0.00    +0.018 C 
ATOM     11  C   UNL     1      32.704 -14.616 -21.571  0.00  0.00    +0.018 C 
ATOM     12  C   UNL     1      33.598 -12.824 -23.513  0.00  0.00    +0.038 C 
ATOM     13  C   UNL     1      32.136 -13.347 -21.662  0.00  0.00    +0.038 C 
ATOM     14  C   UNL     1      32.582 -12.450 -22.633  0.00  0.00    +0.134 C 
BRANCH  14  15
ATOM     15  O   UNL     1      32.027 -11.210 -22.723  0.00  0.00    -0.506 OA
ATOM     16  H   UNL     1      32.368 -10.506 -22.208  0.00  0.00    +0.292 HD
ENDBRANCH  14  15
ENDBRANCH   2   9
TORSDOF 2
ENDMDL
MODEL 7
REMARK VINA RESULT:      -7.6      3.648      6.649
REMARK  Name = 11217901
REMARK  2 active torsions:
REMARK  status: ('A' for Active; 'I' for Inactive)
REMARK    1  A    between atoms: N_2  and  C_9
REMARK    2  A    between atoms: C_14  and  O_15
REMARK                            x       y       z     vdW  Elec       q    Type
REMARK                         _______ _______ _______ _____ _____    ______ ____
ROOT
ATOM      1  O   UNL     1      33.557 -16.056 -25.731  0.00  0.00    -0.269 OA
ATOM      2  N   UNL     1      34.181 -15.956 -23.447  0.00  0.00    -0.233 N 
ATOM      3  C   UNL     1      34.766 -16.674 -22.401  0.00  0.00    +0.068 C 
ATOM      4  C   UNL     1      35.317 -17.887 -22.560  0.00  0.00    -0.006 C 
ATOM      5  C   UNL     1      34.123 -16.526 -24.744  0.00  0.00    +0.257 C 
ATOM      6  C   UNL     1      35.318 -18.489 -23.867  0.00  0.00    +0.002 C 
ATOM      7  C   UNL     1      34.772 -17.861 -24.911  0.00  0.00    +0.058 C 
ATOM      8  C   UNL     1      35.958 -18.652 -21.445  0.00  0.00    +0.032 C 
ENDROOT
BRANCH   2   9
ATOM      9  C   UNL     1      33.613 -14.644 -23.211  0.00  0.00    +0.059 C 
ATOM     10  C   UNL     1      34.004 -13.571 -24.005  0.00  0.00    +0.018 C 
ATOM     11  C   UNL     1      32.682 -14.469 -22.193  0.00  0.00    +0.018 C 
ATOM     12  C   UNL     1      33.458 -12.307 -23.777  0.00  0.00    +0.038 C 
ATOM     13  C   UNL     1      32.136 -13.206 -21.966  0.00  0.00    +0.038 C 
ATOM     14  C   UNL     1      32.523 -12.125 -22.758  0.00  0.00    +0.134 C 
BRANCH  14  15
ATOM     15  O   UNL     1      31.990 -10.892 -22.537  0.00  0.00    -0.506 OA
ATOM     16  H   UNL     1      32.397 -10.308 -21.928  0.00  0.00    +0.292 HD
ENDBRANCH  14  15
ENDBRANCH   2   9
TORSDOF 2
ENDMDL
MODEL 8
REMARK VINA RESULT:      -7.5      6.697      8.819
REMARK  Name = 11217901
REMARK  2 active torsions:
REMARK  status: ('A' for Active; 'I' for Inactive)
REMARK    1  A    between atoms: N_2  and  C_9
REMARK    2  A    between atoms: C_14  and  O_15
REMARK                            x       y       z     vdW  Elec       q    Type
REMARK                         _______ _______ _______ _____ _____    ______ ____
ROOT
ATOM      1  O   UNL     1      35.776 -10.269 -25.517  0.00  0.00    -0.269 OA
ATOM      2  N   UNL     1      33.773 -10.778 -24.358  0.00  0.00    -0.233 N 
ATOM      3  C   UNL     1      32.876 -10.317 -23.391  0.00  0.00    +0.068 C 
ATOM      4  C   UNL     1      32.968  -9.105 -22.822  0.00  0.00    -0.006 C 
ATOM      5  C   UNL     1      34.861  -9.959 -24.754  0.00  0.00    +0.257 C 
ATOM      6  C   UNL     1      34.033  -8.224 -23.221  0.00  0.00    +0.002 C 
ATOM      7  C   UNL     1      34.928  -8.601 -24.137  0.00  0.00    +0.058 C 
ATOM      8  C   UNL     1      32.000  -8.603 -21.797  0.00  0.00    +0.032 C 
ENDROOT
BRANCH   2   9
ATOM      9  C   UNL     1      33.612 -12.094 -24.943  0.00  0.00    +0.059 C 
ATOM     10  C   UNL     1      33.608 -13.217 -24.122  0.00  0.00    +0.018 C 
ATOM     11  C   UNL     1      33.463 -12.223 -26.319  0.00  0.00    +0.018 C 
ATOM     12  C   UNL     1      33.455 -14.484 -24.686  0.00  0.00    +0.038 C 
ATOM     13  C   UNL     1      33.308 -13.489 -26.882  0.00  0.00    +0.038 C 
ATOM     14  C   UNL     1      33.304 -14.620 -26.065  0.00  0.00    +0.134 C 
BRANCH  14  15
ATOM     15  O   UNL     1      33.153 -15.857 -26.614  0.00  0.00    -0.506 OA
ATOM     16  H   UNL     1      32.813 -15.946 -27.483  0.00  0.00    +0.292 HD
ENDBRANCH  14  15
ENDBRANCH   2   9
TORSDOF 2
ENDMDL
MODEL 9
REMARK VINA RESULT:      -7.4      2.978      6.028
REMARK  Name = 11217901
REMARK  2 active torsions:
REMARK  status: ('A' for Active; 'I' for Inactive)
REMARK    1  A    between atoms: N_2  and  C_9
REMARK    2  A    between atoms: C_14  and  O_15
REMARK                            x       y       z     vdW  Elec       q    Type
REMARK                         _______ _______ _______ _____ _____    ______ ____
ROOT
ATOM      1  O   UNL     1      35.583 -16.071 -23.519  0.00  0.00    -0.269 OA
ATOM      2  N   UNL     1      34.010 -16.743 -21.879  0.00  0.00    -0.233 N 
ATOM      3  C   UNL     1      33.529 -17.834 -21.150  0.00  0.00    +0.068 C 
ATOM      4  C   UNL     1      34.085 -19.054 -21.203  0.00  0.00    -0.006 C 
ATOM      5  C   UNL     1      35.117 -16.911 -22.749  0.00  0.00    +0.257 C 
ATOM      6  C   UNL     1      35.236 -19.263 -22.041  0.00  0.00    +0.002 C 
ATOM      7  C   UNL     1      35.744 -18.266 -22.769  0.00  0.00    +0.058 C 
ATOM      8  C   UNL     1      33.584 -20.221 -20.412  0.00  0.00    +0.032 C 
ENDROOT
BRANCH   2   9
ATOM      9  C   UNL     1      33.370 -15.447 -21.769  0.00  0.00    +0.059 C 
ATOM     10  C   UNL     1      33.023 -14.750 -22.922  0.00  0.00    +0.018 C 
ATOM     11  C   UNL     1      33.110 -14.911 -20.513  0.00  0.00    +0.018 C 
ATOM     12  C   UNL     1      32.409 -13.501 -22.816  0.00  0.00    +0.038 C 
ATOM     13  C   UNL     1      32.496 -13.663 -20.407  0.00  0.00    +0.038 C 
ATOM     14  C   UNL     1      32.145 -12.959 -21.559  0.00  0.00    +0.134 C 
BRANCH  14  15
ATOM     15  O   UNL     1      31.544 -11.741 -21.456  0.00  0.00    -0.506 OA
ATOM     16  H   UNL     1      31.682 -11.093 -22.119  0.00  0.00    +0.292 HD
ENDBRANCH  14  15
ENDBRANCH   2   9
TORSDOF 2
ENDMDL
