MODEL 1
REMARK VINA RESULT:     -10.6      0.000      0.000
REMARK  Name = 446833
REMARK  6 active torsions:
REMARK  status: ('A' for Active; 'I' for Inactive)
REMARK    1  A    between atoms: C_1  and  C_2
REMARK    2  A    between atoms: C_1  and  P_12
REMARK    3  A    between atoms: C_1  and  C_19
REMARK    4  A    between atoms: P_12  and  O_14
REMARK    5  A    between atoms: P_12  and  O_16
REMARK    6  A    between atoms: C_19  and  C_20
REMARK                            x       y       z     vdW  Elec       q    Type
REMARK                         _______ _______ _______ _____ _____    ______ ____
ROOT
ATOM      1  C   UNL     1      33.898 -16.715 -23.651  0.00  0.00    +0.188 C 
ENDROOT
BRANCH   1   2
ATOM      2  C   UNL     1      33.535 -15.246 -23.625  0.00  0.00    -0.004 C 
ATOM      3  C   UNL     1      33.066 -14.631 -22.464  0.00  0.00    -0.003 C 
ATOM      4  C   UNL     1      32.744 -13.254 -22.506  0.00  0.00    -0.000 C 
ATOM      5  C   UNL     1      33.693 -14.544 -24.812  0.00  0.00    -0.003 C 
ATOM      6  C   UNL     1      32.906 -15.337 -21.261  0.00  0.00    -0.000 C 
ATOM      7  C   UNL     1      32.903 -12.547 -23.709  0.00  0.00    -0.000 C 
ATOM      8  C   UNL     1      33.375 -13.189 -24.854  0.00  0.00    -0.000 C 
ATOM      9  C   UNL     1      32.269 -12.624 -21.343  0.00  0.00    -0.000 C 
ATOM     10  C   UNL     1      32.434 -14.696 -20.115  0.00  0.00    -0.000 C 
ATOM     11  C   UNL     1      32.117 -13.341 -20.156  0.00  0.00    -0.000 C 
ENDBRANCH   1   2
BRANCH   1  12
ATOM     12  P   UNL     1      33.990 -17.343 -25.373  0.00  0.00    +0.348 P 
ATOM     13  O   UNL     1      32.865 -16.877 -26.210  0.00  0.00    -0.257 OA
BRANCH  12  14
ATOM     14  O   UNL     1      34.117 -18.924 -25.128  0.00  0.00    -0.323 OA
ATOM     15  H   UNL     1      33.587 -19.175 -24.356  0.00  0.00    +0.220 HD
ENDBRANCH  12  14
BRANCH  12  16
ATOM     16  O   UNL     1      35.465 -16.882 -25.802  0.00  0.00    -0.323 OA
ATOM     17  H   UNL     1      35.730 -17.357 -26.606  0.00  0.00    +0.220 HD
ENDBRANCH  12  16
ENDBRANCH   1  12
BRANCH   1  19
ATOM     18  O   UNL     1      36.166 -16.225 -23.010  0.00  0.00    -0.290 OA
ATOM     19  C   UNL     1      35.198 -16.998 -22.869  0.00  0.00    +0.188 C 
BRANCH  19  20
ATOM     20  C   UNL     1      35.304 -18.149 -21.985  0.00  0.00    +0.036 C 
ATOM     21  C   UNL     1      34.149 -18.783 -21.524  0.00  0.00    +0.003 C 
ATOM     22  C   UNL     1      34.236 -19.894 -20.670  0.00  0.00    +0.000 C 
ATOM     23  C   UNL     1      36.557 -18.615 -21.599  0.00  0.00    +0.003 C 
ATOM     24  C   UNL     1      35.510 -20.369 -20.278  0.00  0.00    +0.000 C 
ATOM     25  C   UNL     1      36.660 -19.718 -20.750  0.00  0.00    +0.000 C 
ATOM     26  C   UNL     1      33.084 -20.545 -20.197  0.00  0.00    +0.000 C 
ATOM     27  C   UNL     1      35.595 -21.480 -19.423  0.00  0.00    +0.000 C 
ATOM     28  C   UNL     1      33.189 -21.649 -19.349  0.00  0.00    +0.000 C 
ATOM     29  C   UNL     1      34.441 -22.115 -18.963  0.00  0.00    +0.000 C 
ENDBRANCH  19  20
ENDBRANCH   1  19
TORSDOF 6
ENDMDL
MODEL 2
REMARK VINA RESULT:     -10.6      5.737      9.909
REMARK  Name = 446833
REMARK  6 active torsions:
REMARK  status: ('A' for Active; 'I' for Inactive)
REMARK    1  A    between atoms: C_1  and  C_2
REMARK    2  A    between atoms: C_1  and  P_12
REMARK    3  A    between atoms: C_1  and  C_19
REMARK    4  A    between atoms: P_12  and  O_14
REMARK    5  A    between atoms: P_12  and  O_16
REMARK    6  A    between atoms: C_19  and  C_20
REMARK                            x       y       z     vdW  Elec       q    Type
REMARK                         _______ _______ _______ _____ _____    ______ ____
ROOT
ATOM      1  C   UNL     1      33.919 -22.891 -16.139  0.00  0.00    +0.188 C 
ENDROOT
BRANCH   1   2
ATOM      2  C   UNL     1      32.869 -23.657 -15.364  0.00  0.00    -0.004 C 
ATOM      3  C   UNL     1      31.508 -23.499 -15.628  0.00  0.00    -0.003 C 
ATOM      4  C   UNL     1      30.576 -24.244 -14.868  0.00  0.00    -0.000 C 
ATOM      5  C   UNL     1      33.328 -24.522 -14.380  0.00  0.00    -0.003 C 
ATOM      6  C   UNL     1      31.040 -22.625 -16.624  0.00  0.00    -0.000 C 
ATOM      7  C   UNL     1      31.044 -25.118 -13.872  0.00  0.00    -0.000 C 
ATOM      8  C   UNL     1      32.411 -25.255 -13.632  0.00  0.00    -0.000 C 
ATOM      9  C   UNL     1      29.203 -24.092 -15.124  0.00  0.00    -0.000 C 
ATOM     10  C   UNL     1      29.672 -22.488 -16.865  0.00  0.00    -0.000 C 
ATOM     11  C   UNL     1      28.755 -23.221 -16.117  0.00  0.00    -0.000 C 
ENDBRANCH   1   2
BRANCH   1  12
ATOM     12  P   UNL     1      35.594 -23.181 -15.448  0.00  0.00    +0.348 P 
ATOM     13  O   UNL     1      36.115 -24.527 -15.762  0.00  0.00    -0.257 OA
BRANCH  12  14
ATOM     14  O   UNL     1      35.366 -22.825 -13.900  0.00  0.00    -0.323 OA
ATOM     15  H   UNL     1      34.979 -23.589 -13.447  0.00  0.00    +0.220 HD
ENDBRANCH  12  14
BRANCH  12  16
ATOM     16  O   UNL     1      36.403 -21.926 -16.034  0.00  0.00    -0.323 OA
ATOM     17  H   UNL     1      37.348 -22.142 -16.077  0.00  0.00    +0.220 HD
ENDBRANCH  12  16
ENDBRANCH   1  12
BRANCH   1  19
ATOM     18  O   UNL     1      33.696 -24.387 -18.011  0.00  0.00    -0.290 OA
ATOM     19  C   UNL     1      33.861 -23.206 -17.649  0.00  0.00    +0.188 C 
BRANCH  19  20
ATOM     20  C   UNL     1      34.003 -22.151 -18.640  0.00  0.00    +0.036 C 
ATOM     21  C   UNL     1      35.273 -21.690 -18.990  0.00  0.00    +0.003 C 
ATOM     22  C   UNL     1      35.426 -20.671 -19.945  0.00  0.00    +0.000 C 
ATOM     23  C   UNL     1      32.872 -21.601 -19.237  0.00  0.00    +0.003 C 
ATOM     24  C   UNL     1      34.277 -20.113 -20.553  0.00  0.00    +0.000 C 
ATOM     25  C   UNL     1      33.007 -20.588 -20.188  0.00  0.00    +0.000 C 
ATOM     26  C   UNL     1      36.697 -20.195 -20.310  0.00  0.00    +0.000 C 
ATOM     27  C   UNL     1      34.431 -19.094 -21.508  0.00  0.00    +0.000 C 
ATOM     28  C   UNL     1      36.830 -19.182 -21.261  0.00  0.00    +0.000 C 
ATOM     29  C   UNL     1      35.700 -18.634 -21.858  0.00  0.00    +0.000 C 
ENDBRANCH  19  20
ENDBRANCH   1  19
TORSDOF 6
ENDMDL
MODEL 3
REMARK VINA RESULT:     -10.5      8.149     10.607
REMARK  Name = 446833
REMARK  6 active torsions:
REMARK  status: ('A' for Active; 'I' for Inactive)
REMARK    1  A    between atoms: C_1  and  C_2
REMARK    2  A    between atoms: C_1  and  P_12
REMARK    3  A    between atoms: C_1  and  C_19
REMARK    4  A    between atoms: P_12  and  O_14
REMARK    5  A    between atoms: P_12  and  O_16
REMARK    6  A    between atoms: C_19  and  C_20
REMARK                            x       y       z     vdW  Elec       q    Type
REMARK                         _______ _______ _______ _____ _____    ______ ____
ROOT
ATOM      1  C   UNL     1      35.250 -24.487 -15.352  0.00  0.00    +0.188 C 
ENDROOT
BRANCH   1   2
ATOM      2  C   UNL     1      35.912 -23.338 -16.080  0.00  0.00    -0.004 C 
ATOM      3  C   UNL     1      35.384 -22.825 -17.265  0.00  0.00    -0.003 C 
ATOM      4  C   UNL     1      36.051 -21.750 -17.899  0.00  0.00    -0.000 C 
ATOM      5  C   UNL     1      37.068 -22.823 -15.511  0.00  0.00    -0.003 C 
ATOM      6  C   UNL     1      34.214 -23.343 -17.844  0.00  0.00    -0.000 C 
ATOM      7  C   UNL     1      37.221 -21.231 -17.320  0.00  0.00    -0.000 C 
ATOM      8  C   UNL     1      37.725 -21.765 -16.134  0.00  0.00    -0.000 C 
ATOM      9  C   UNL     1      35.530 -21.226 -19.093  0.00  0.00    -0.000 C 
ATOM     10  C   UNL     1      33.709 -22.809 -19.031  0.00  0.00    -0.000 C 
ATOM     11  C   UNL     1      34.366 -21.752 -19.654  0.00  0.00    -0.000 C 
ENDBRANCH   1   2
BRANCH   1  12
ATOM     12  P   UNL     1      36.498 -25.649 -14.674  0.00  0.00    +0.348 P 
ATOM     13  O   UNL     1      37.885 -25.199 -14.917  0.00  0.00    -0.257 OA
BRANCH  12  14
ATOM     14  O   UNL     1      36.046 -27.032 -15.350  0.00  0.00    -0.323 OA
ATOM     15  H   UNL     1      36.764 -27.679 -15.273  0.00  0.00    +0.220 HD
ENDBRANCH  12  14
BRANCH  12  16
ATOM     16  O   UNL     1      36.024 -25.772 -13.147  0.00  0.00    -0.323 OA
ATOM     17  H   UNL     1      35.313 -26.430 -13.082  0.00  0.00    +0.220 HD
ENDBRANCH  12  16
ENDBRANCH   1  12
BRANCH   1  19
ATOM     18  O   UNL     1      34.750 -23.512 -13.209  0.00  0.00    -0.290 OA
ATOM     19  C   UNL     1      34.279 -23.990 -14.260  0.00  0.00    +0.188 C 
BRANCH  19  20
ATOM     20  C   UNL     1      32.839 -24.081 -14.441  0.00  0.00    +0.036 C 
ATOM     21  C   UNL     1      32.200 -23.258 -15.369  0.00  0.00    +0.003 C 
ATOM     22  C   UNL     1      30.809 -23.334 -15.554  0.00  0.00    +0.000 C 
ATOM     23  C   UNL     1      32.099 -24.988 -13.686  0.00  0.00    +0.003 C 
ATOM     24  C   UNL     1      30.057 -24.256 -14.788  0.00  0.00    +0.000 C 
ATOM     25  C   UNL     1      30.717 -25.075 -13.858  0.00  0.00    +0.000 C 
ATOM     26  C   UNL     1      30.150 -22.514 -16.484  0.00  0.00    +0.000 C 
ATOM     27  C   UNL     1      28.667 -24.330 -14.974  0.00  0.00    +0.000 C 
ATOM     28  C   UNL     1      28.767 -22.602 -16.656  0.00  0.00    +0.000 C 
ATOM     29  C   UNL     1      28.028 -23.509 -15.902  0.00  0.00    +0.000 C 
ENDBRANCH  19  20
ENDBRANCH   1  19
TORSDOF 6
ENDMDL
MODEL 4
REMARK VINA RESULT:      -9.6      0.572      1.683
REMARK  Name = 446833
REMARK  6 active torsions:
REMARK  status: ('A' for Active; 'I' for Inactive)
REMARK    1  A    between atoms: C_1  and  C_2
REMARK    2  A    between atoms: C_1  and  P_12
REMARK    3  A    between atoms: C_1  and  C_19
REMARK    4  A    between atoms: P_12  and  O_14
REMARK    5  A    between atoms: P_12  and  O_16
REMARK    6  A    between atoms: C_19  and  C_20
REMARK                            x       y       z     vdW  Elec       q    Type
REMARK                         _______ _______ _______ _____ _____    ______ ____
ROOT
ATOM      1  C   UNL     1      33.753 -16.592 -23.728  0.00  0.00    +0.188 C 
ENDROOT
BRANCH   1   2
ATOM      2  C   UNL     1      33.522 -15.097 -23.717  0.00  0.00    -0.004 C 
ATOM      3  C   UNL     1      33.031 -14.444 -22.586  0.00  0.00    -0.003 C 
ATOM      4  C   UNL     1      32.836 -13.043 -22.639  0.00  0.00    -0.000 C 
ATOM      5  C   UNL     1      33.823 -14.410 -24.885  0.00  0.00    -0.003 C 
ATOM      6  C   UNL     1      32.726 -15.134 -21.401  0.00  0.00    -0.000 C 
ATOM      7  C   UNL     1      33.141 -12.352 -23.823  0.00  0.00    -0.000 C 
ATOM      8  C   UNL     1      33.631 -13.032 -24.938  0.00  0.00    -0.000 C 
ATOM      9  C   UNL     1      32.341 -12.375 -21.507  0.00  0.00    -0.000 C 
ATOM     10  C   UNL     1      32.236 -14.454 -20.285  0.00  0.00    -0.000 C 
ATOM     11  C   UNL     1      32.044 -13.076 -20.338  0.00  0.00    -0.000 C 
ENDBRANCH   1   2
BRANCH   1  12
ATOM     12  P   UNL     1      34.168 -17.184 -25.415  0.00  0.00    +0.348 P 
ATOM     13  O   UNL     1      35.427 -16.605 -25.928  0.00  0.00    -0.257 OA
BRANCH  12  14
ATOM     14  O   UNL     1      32.821 -16.838 -26.214  0.00  0.00    -0.323 OA
ATOM     15  H   UNL     1      32.953 -17.008 -27.159  0.00  0.00    +0.220 HD
ENDBRANCH  12  14
BRANCH  12  16
ATOM     16  O   UNL     1      34.120 -18.775 -25.215  0.00  0.00    -0.323 OA
ATOM     17  H   UNL     1      34.953 -19.164 -25.525  0.00  0.00    +0.220 HD
ENDBRANCH  12  16
ENDBRANCH   1  12
BRANCH   1  19
ATOM     18  O   UNL     1      35.863 -16.343 -22.598  0.00  0.00    -0.290 OA
ATOM     19  C   UNL     1      34.818 -17.016 -22.695  0.00  0.00    +0.188 C 
BRANCH  19  20
ATOM     20  C   UNL     1      34.619 -18.183 -21.850  0.00  0.00    +0.036 C 
ATOM     21  C   UNL     1      35.716 -18.810 -21.258  0.00  0.00    +0.003 C 
ATOM     22  C   UNL     1      35.539 -19.938 -20.440  0.00  0.00    +0.000 C 
ATOM     23  C   UNL     1      33.334 -18.675 -21.635  0.00  0.00    +0.003 C 
ATOM     24  C   UNL     1      34.233 -20.438 -20.221  0.00  0.00    +0.000 C 
ATOM     25  C   UNL     1      33.142 -19.795 -20.825  0.00  0.00    +0.000 C 
ATOM     26  C   UNL     1      36.632 -20.581 -19.835  0.00  0.00    +0.000 C 
ATOM     27  C   UNL     1      34.058 -21.566 -19.402  0.00  0.00    +0.000 C 
ATOM     28  C   UNL     1      36.438 -21.701 -19.025  0.00  0.00    +0.000 C 
ATOM     29  C   UNL     1      35.154 -22.192 -18.810  0.00  0.00    +0.000 C 
ENDBRANCH  19  20
ENDBRANCH   1  19
TORSDOF 6
ENDMDL
MODEL 5
REMARK VINA RESULT:      -9.4      5.388      7.936
REMARK  Name = 446833
REMARK  6 active torsions:
REMARK  status: ('A' for Active; 'I' for Inactive)
REMARK    1  A    between atoms: C_1  and  C_2
REMARK    2  A    between atoms: C_1  and  P_12
REMARK    3  A    between atoms: C_1  and  C_19
REMARK    4  A    between atoms: P_12  and  O_14
REMARK    5  A    between atoms: P_12  and  O_16
REMARK    6  A    between atoms: C_19  and  C_20
REMARK                            x       y       z     vdW  Elec       q    Type
REMARK                         _______ _______ _______ _____ _____    ______ ____
ROOT
ATOM      1  C   UNL     1      32.362  -9.319 -21.481  0.00  0.00    +0.188 C 
ENDROOT
BRANCH   1   2
ATOM      2  C   UNL     1      32.107  -8.029 -22.229  0.00  0.00    -0.004 C 
ATOM      3  C   UNL     1      32.965  -7.588 -23.238  0.00  0.00    -0.003 C 
ATOM      4  C   UNL     1      32.670  -6.373 -23.899  0.00  0.00    -0.000 C 
ATOM      5  C   UNL     1      30.979  -7.308 -21.862  0.00  0.00    -0.003 C 
ATOM      6  C   UNL     1      34.106  -8.315 -23.613  0.00  0.00    -0.000 C 
ATOM      7  C   UNL     1      31.529  -5.645 -23.525  0.00  0.00    -0.000 C 
ATOM      8  C   UNL     1      30.689  -6.111 -22.512  0.00  0.00    -0.000 C 
ATOM      9  C   UNL     1      33.527  -5.919 -24.916  0.00  0.00    -0.000 C 
ATOM     10  C   UNL     1      34.946  -7.850 -24.626  0.00  0.00    -0.000 C 
ATOM     11  C   UNL     1      34.657  -6.654 -25.277  0.00  0.00    -0.000 C 
ENDBRANCH   1   2
BRANCH   1  12
ATOM     12  P   UNL     1      31.895  -9.162 -19.713  0.00  0.00    +0.348 P 
ATOM     13  O   UNL     1      31.785  -7.755 -19.276  0.00  0.00    -0.257 OA
BRANCH  12  14
ATOM     14  O   UNL     1      33.016 -10.066 -19.006  0.00  0.00    -0.323 OA
ATOM     15  H   UNL     1      33.761  -9.505 -18.737  0.00  0.00    +0.220 HD
ENDBRANCH  12  14
BRANCH  12  16
ATOM     16  O   UNL     1      30.564 -10.054 -19.655  0.00  0.00    -0.323 OA
ATOM     17  H   UNL     1      30.803 -10.983 -19.508  0.00  0.00    +0.220 HD
ENDBRANCH  12  16
ENDBRANCH   1  12
BRANCH   1  19
ATOM     18  O   UNL     1      30.464 -10.414 -22.476  0.00  0.00    -0.290 OA
ATOM     19  C   UNL     1      31.664 -10.519 -22.153  0.00  0.00    +0.188 C 
BRANCH  19  20
ATOM     20  C   UNL     1      32.381 -11.760 -22.402  0.00  0.00    +0.036 C 
ATOM     21  C   UNL     1      32.263 -12.825 -21.509  0.00  0.00    +0.003 C 
ATOM     22  C   UNL     1      32.950 -14.029 -21.736  0.00  0.00    +0.000 C 
ATOM     23  C   UNL     1      33.187 -11.882 -23.531  0.00  0.00    +0.003 C 
ATOM     24  C   UNL     1      33.769 -14.154 -22.883  0.00  0.00    +0.000 C 
ATOM     25  C   UNL     1      33.877 -13.071 -23.771  0.00  0.00    +0.000 C 
ATOM     26  C   UNL     1      32.841 -15.112 -20.848  0.00  0.00    +0.000 C 
ATOM     27  C   UNL     1      34.455 -15.358 -23.109  0.00  0.00    +0.000 C 
ATOM     28  C   UNL     1      33.532 -16.301 -21.089  0.00  0.00    +0.000 C 
ATOM     29  C   UNL     1      34.336 -16.423 -22.217  0.00  0.00    +0.000 C 
ENDBRANCH  19  20
ENDBRANCH   1  19
TORSDOF 6
ENDMDL
MODEL 6
REMARK VINA RESULT:      -9.3      2.889      7.572
REMARK  Name = 446833
REMARK  6 active torsions:
REMARK  status: ('A' for Active; 'I' for Inactive)
REMARK    1  A    between atoms: C_1  and  C_2
REMARK    2  A    between atoms: C_1  and  P_12
REMARK    3  A    between atoms: C_1  and  C_19
REMARK    4  A    between atoms: P_12  and  O_14
REMARK    5  A    between atoms: P_12  and  O_16
REMARK    6  A    between atoms: C_19  and  C_20
REMARK                            x       y       z     vdW  Elec       q    Type
REMARK                         _______ _______ _______ _____ _____    ______ ____
ROOT
ATOM      1  C   UNL     1      33.797 -14.342 -25.028  0.00  0.00    +0.188 C 
ENDROOT
BRANCH   1   2
ATOM      2  C   UNL     1      34.184 -15.637 -24.348  0.00  0.00    -0.004 C 
ATOM      3  C   UNL     1      34.397 -15.703 -22.971  0.00  0.00    -0.003 C 
ATOM      4  C   UNL     1      34.757 -16.945 -22.397  0.00  0.00    -0.000 C 
ATOM      5  C   UNL     1      34.314 -16.754 -25.163  0.00  0.00    -0.003 C 
ATOM      6  C   UNL     1      34.266 -14.576 -22.143  0.00  0.00    -0.000 C 
ATOM      7  C   UNL     1      34.889 -18.072 -23.224  0.00  0.00    -0.000 C 
ATOM      8  C   UNL     1      34.668 -17.976 -24.598  0.00  0.00    -0.000 C 
ATOM      9  C   UNL     1      34.976 -17.023 -21.011  0.00  0.00    -0.000 C 
ATOM     10  C   UNL     1      34.486 -14.672 -20.768  0.00  0.00    -0.000 C 
ATOM     11  C   UNL     1      34.840 -15.894 -20.203  0.00  0.00    -0.000 C 
ENDBRANCH   1   2
BRANCH   1  12
ATOM     12  P   UNL     1      32.971 -14.658 -26.635  0.00  0.00    +0.348 P 
ATOM     13  O   UNL     1      32.624 -16.082 -26.826  0.00  0.00    -0.257 OA
BRANCH  12  14
ATOM     14  O   UNL     1      34.018 -14.012 -27.664  0.00  0.00    -0.323 OA
ATOM     15  H   UNL     1      33.639 -14.017 -28.556  0.00  0.00    +0.220 HD
ENDBRANCH  12  14
BRANCH  12  16
ATOM     16  O   UNL     1      31.759 -13.609 -26.582  0.00  0.00    -0.323 OA
ATOM     17  H   UNL     1      30.919 -14.078 -26.708  0.00  0.00    +0.220 HD
ENDBRANCH  12  16
ENDBRANCH   1  12
BRANCH   1  19
ATOM     18  O   UNL     1      31.961 -13.950 -23.522  0.00  0.00    -0.290 OA
ATOM     19  C   UNL     1      32.939 -13.446 -24.109  0.00  0.00    +0.188 C 
BRANCH  19  20
ATOM     20  C   UNL     1      33.252 -12.037 -23.932  0.00  0.00    +0.036 C 
ATOM     21  C   UNL     1      32.527 -11.272 -23.018  0.00  0.00    +0.003 C 
ATOM     22  C   UNL     1      32.817  -9.910 -22.836  0.00  0.00    +0.000 C 
ATOM     23  C   UNL     1      34.274 -11.453 -24.675  0.00  0.00    +0.003 C 
ATOM     24  C   UNL     1      33.856  -9.316 -23.591  0.00  0.00    +0.000 C 
ATOM     25  C   UNL     1      34.575 -10.101 -24.506  0.00  0.00    +0.000 C 
ATOM     26  C   UNL     1      32.097  -9.124 -21.920  0.00  0.00    +0.000 C 
ATOM     27  C   UNL     1      34.146  -7.953 -23.408  0.00  0.00    +0.000 C 
ATOM     28  C   UNL     1      32.400  -7.772 -21.752  0.00  0.00    +0.000 C 
ATOM     29  C   UNL     1      33.421  -7.188 -22.494  0.00  0.00    +0.000 C 
ENDBRANCH  19  20
ENDBRANCH   1  19
TORSDOF 6
ENDMDL
MODEL 7
REMARK VINA RESULT:      -9.3      6.299      9.143
REMARK  Name = 446833
REMARK  6 active torsions:
REMARK  status: ('A' for Active; 'I' for Inactive)
REMARK    1  A    between atoms: C_1  and  C_2
REMARK    2  A    between atoms: C_1  and  P_12
REMARK    3  A    between atoms: C_1  and  C_19
REMARK    4  A    between atoms: P_12  and  O_14
REMARK    5  A    between atoms: P_12  and  O_16
REMARK    6  A    between atoms: C_19  and  C_20
REMARK                            x       y       z     vdW  Elec       q    Type
REMARK                         _______ _______ _______ _____ _____    ______ ____
ROOT
ATOM      1  C   UNL     1      32.495  -7.884 -22.387  0.00  0.00    +0.188 C 
ENDROOT
BRANCH   1   2
ATOM      2  C   UNL     1      32.169  -6.705 -23.279  0.00  0.00    -0.004 C 
ATOM      3  C   UNL     1      33.008  -6.332 -24.330  0.00  0.00    -0.003 C 
ATOM      4  C   UNL     1      32.647  -5.220 -25.126  0.00  0.00    -0.000 C 
ATOM      5  C   UNL     1      30.997  -6.017 -22.998  0.00  0.00    -0.003 C 
ATOM      6  C   UNL     1      34.194  -7.027 -24.618  0.00  0.00    -0.000 C 
ATOM      7  C   UNL     1      31.461  -4.525 -24.839  0.00  0.00    -0.000 C 
ATOM      8  C   UNL     1      30.642  -4.922 -23.781  0.00  0.00    -0.000 C 
ATOM      9  C   UNL     1      33.484  -4.834 -26.187  0.00  0.00    -0.000 C 
ATOM     10  C   UNL     1      35.013  -6.630 -25.676  0.00  0.00    -0.000 C 
ATOM     11  C   UNL     1      34.658  -5.536 -26.459  0.00  0.00    -0.000 C 
ENDBRANCH   1   2
BRANCH   1  12
ATOM     12  P   UNL     1      32.293  -7.450 -20.616  0.00  0.00    +0.348 P 
ATOM     13  O   UNL     1      31.486  -6.228 -20.418  0.00  0.00    -0.257 OA
BRANCH  12  14
ATOM     14  O   UNL     1      33.819  -7.411 -20.122  0.00  0.00    -0.323 OA
ATOM     15  H   UNL     1      34.211  -8.293 -20.213  0.00  0.00    +0.220 HD
ENDBRANCH  12  14
BRANCH  12  16
ATOM     16  O   UNL     1      31.711  -8.819 -20.016  0.00  0.00    -0.323 OA
ATOM     17  H   UNL     1      32.445  -9.423 -19.819  0.00  0.00    +0.220 HD
ENDBRANCH  12  16
ENDBRANCH   1  12
BRANCH   1  19
ATOM     18  O   UNL     1      30.436  -9.031 -22.875  0.00  0.00    -0.290 OA
ATOM     19  C   UNL     1      31.674  -9.134 -22.767  0.00  0.00    +0.188 C 
BRANCH  19  20
ATOM     20  C   UNL     1      32.323 -10.417 -22.989  0.00  0.00    +0.036 C 
ATOM     21  C   UNL     1      32.007 -11.507 -22.178  0.00  0.00    +0.003 C 
ATOM     22  C   UNL     1      32.625 -12.752 -22.380  0.00  0.00    +0.000 C 
ATOM     23  C   UNL     1      33.259 -10.556 -24.011  0.00  0.00    +0.003 C 
ATOM     24  C   UNL     1      33.576 -12.893 -23.418  0.00  0.00    +0.000 C 
ATOM     25  C   UNL     1      33.882 -11.785 -24.224  0.00  0.00    +0.000 C 
ATOM     26  C   UNL     1      32.319 -13.861 -21.573  0.00  0.00    +0.000 C 
ATOM     27  C   UNL     1      34.194 -14.139 -23.619  0.00  0.00    +0.000 C 
ATOM     28  C   UNL     1      32.943 -15.091 -21.788  0.00  0.00    +0.000 C 
ATOM     29  C   UNL     1      33.878 -15.229 -22.808  0.00  0.00    +0.000 C 
ENDBRANCH  19  20
ENDBRANCH   1  19
TORSDOF 6
ENDMDL
MODEL 8
REMARK VINA RESULT:      -8.9      1.359      2.226
REMARK  Name = 446833
REMARK  6 active torsions:
REMARK  status: ('A' for Active; 'I' for Inactive)
REMARK    1  A    between atoms: C_1  and  C_2
REMARK    2  A    between atoms: C_1  and  P_12
REMARK    3  A    between atoms: C_1  and  C_19
REMARK    4  A    between atoms: P_12  and  O_14
REMARK    5  A    between atoms: P_12  and  O_16
REMARK    6  A    between atoms: C_19  and  C_20
REMARK                            x       y       z     vdW  Elec       q    Type
REMARK                         _______ _______ _______ _____ _____    ______ ____
ROOT
ATOM      1  C   UNL     1      33.482 -15.078 -23.549  0.00  0.00    +0.188 C 
ENDROOT
BRANCH   1   2
ATOM      2  C   UNL     1      33.366 -13.579 -23.718  0.00  0.00    -0.004 C 
ATOM      3  C   UNL     1      32.714 -12.786 -22.772  0.00  0.00    -0.003 C 
ATOM      4  C   UNL     1      32.639 -11.390 -22.990  0.00  0.00    -0.000 C 
ATOM      5  C   UNL     1      33.939 -13.034 -24.859  0.00  0.00    -0.003 C 
ATOM      6  C   UNL     1      32.134 -13.333 -21.616  0.00  0.00    -0.000 C 
ATOM      7  C   UNL     1      33.219 -10.842 -24.145  0.00  0.00    -0.000 C 
ATOM      8  C   UNL     1      33.864 -11.660 -25.073  0.00  0.00    -0.000 C 
ATOM      9  C   UNL     1      31.984 -10.582 -22.045  0.00  0.00    -0.000 C 
ATOM     10  C   UNL     1      31.488 -12.516 -20.687  0.00  0.00    -0.000 C 
ATOM     11  C   UNL     1      31.414 -11.142 -20.901  0.00  0.00    -0.000 C 
ENDBRANCH   1   2
BRANCH   1  12
ATOM     12  P   UNL     1      34.150 -15.865 -25.065  0.00  0.00    +0.348 P 
ATOM     13  O   UNL     1      33.647 -15.234 -26.303  0.00  0.00    -0.257 OA
BRANCH  12  14
ATOM     14  O   UNL     1      33.771 -17.404 -24.818  0.00  0.00    -0.323 OA
ATOM     15  H   UNL     1      34.567 -17.951 -24.902  0.00  0.00    +0.220 HD
ENDBRANCH  12  14
BRANCH  12  16
ATOM     16  O   UNL     1      35.729 -15.791 -24.794  0.00  0.00    -0.323 OA
ATOM     17  H   UNL     1      36.191 -15.590 -25.623  0.00  0.00    +0.220 HD
ENDBRANCH  12  16
ENDBRANCH   1  12
BRANCH   1  19
ATOM     18  O   UNL     1      35.048 -14.588 -21.787  0.00  0.00    -0.290 OA
ATOM     19  C   UNL     1      34.308 -15.451 -22.299  0.00  0.00    +0.188 C 
BRANCH  19  20
ATOM     20  C   UNL     1      34.237 -16.786 -21.726  0.00  0.00    +0.036 C 
ATOM     21  C   UNL     1      35.403 -17.531 -21.548  0.00  0.00    +0.003 C 
ATOM     22  C   UNL     1      35.351 -18.821 -20.996  0.00  0.00    +0.000 C 
ATOM     23  C   UNL     1      33.005 -17.320 -21.358  0.00  0.00    +0.003 C 
ATOM     24  C   UNL     1      34.099 -19.364 -20.621  0.00  0.00    +0.000 C 
ATOM     25  C   UNL     1      32.936 -18.601 -20.809  0.00  0.00    +0.000 C 
ATOM     26  C   UNL     1      36.515 -19.585 -20.809  0.00  0.00    +0.000 C 
ATOM     27  C   UNL     1      34.047 -20.655 -20.070  0.00  0.00    +0.000 C 
ATOM     28  C   UNL     1      36.444 -20.866 -20.259  0.00  0.00    +0.000 C 
ATOM     29  C   UNL     1      35.213 -21.399 -19.891  0.00  0.00    +0.000 C 
ENDBRANCH  19  20
ENDBRANCH   1  19
TORSDOF 6
ENDMDL
MODEL 9
REMARK VINA RESULT:      -8.2      2.433      7.633
REMARK  Name = 446833
REMARK  6 active torsions:
REMARK  status: ('A' for Active; 'I' for Inactive)
REMARK    1  A    between atoms: C_1  and  C_2
REMARK    2  A    between atoms: C_1  and  P_12
REMARK    3  A    between atoms: C_1  and  C_19
REMARK    4  A    between atoms: P_12  and  O_14
REMARK    5  A    between atoms: P_12  and  O_16
REMARK    6  A    between atoms: C_19  and  C_20
REMARK                            x       y       z     vdW  Elec       q    Type
REMARK                         _______ _______ _______ _____ _____    ______ ____
ROOT
ATOM      1  C   UNL     1      34.035 -14.659 -24.421  0.00  0.00    +0.188 C 
ENDROOT
BRANCH   1   2
ATOM      2  C   UNL     1      33.742 -15.290 -23.078  0.00  0.00    -0.004 C 
ATOM      3  C   UNL     1      34.471 -16.385 -22.612  0.00  0.00    -0.003 C 
ATOM      4  C   UNL     1      34.147 -16.930 -21.347  0.00  0.00    -0.000 C 
ATOM      5  C   UNL     1      32.714 -14.727 -22.335  0.00  0.00    -0.003 C 
ATOM      6  C   UNL     1      35.513 -16.957 -23.359  0.00  0.00    -0.000 C 
ATOM      7  C   UNL     1      33.106 -16.358 -20.598  0.00  0.00    -0.000 C 
ATOM      8  C   UNL     1      32.395 -15.263 -21.090  0.00  0.00    -0.000 C 
ATOM      9  C   UNL     1      34.874 -18.033 -20.868  0.00  0.00    -0.000 C 
ATOM     10  C   UNL     1      36.226 -18.052 -22.868  0.00  0.00    -0.000 C 
ATOM     11  C   UNL     1      35.907 -18.589 -21.623  0.00  0.00    -0.000 C 
ENDBRANCH   1   2
BRANCH   1  12
ATOM     12  P   UNL     1      33.977 -15.906 -25.765  0.00  0.00    +0.348 P 
ATOM     13  O   UNL     1      33.085 -17.041 -25.451  0.00  0.00    -0.257 OA
BRANCH  12  14
ATOM     14  O   UNL     1      35.536 -16.230 -25.965  0.00  0.00    -0.323 OA
ATOM     15  H   UNL     1      35.651 -16.794 -26.746  0.00  0.00    +0.220 HD
ENDBRANCH  12  14
BRANCH  12  16
ATOM     16  O   UNL     1      33.591 -14.996 -27.028  0.00  0.00    -0.323 OA
ATOM     17  H   UNL     1      32.901 -15.440 -27.547  0.00  0.00    +0.220 HD
ENDBRANCH  12  16
ENDBRANCH   1  12
BRANCH   1  19
ATOM     18  O   UNL     1      31.944 -13.689 -25.115  0.00  0.00    -0.290 OA
ATOM     19  C   UNL     1      33.101 -13.464 -24.709  0.00  0.00    +0.188 C 
BRANCH  19  20
ATOM     20  C   UNL     1      33.556 -12.096 -24.520  0.00  0.00    +0.036 C 
ATOM     21  C   UNL     1      32.945 -11.283 -23.565  0.00  0.00    +0.003 C 
ATOM     22  C   UNL     1      33.372  -9.959 -23.372  0.00  0.00    +0.000 C 
ATOM     23  C   UNL     1      34.601 -11.597 -25.294  0.00  0.00    +0.003 C 
ATOM     24  C   UNL     1      34.435  -9.453 -24.159  0.00  0.00    +0.000 C 
ATOM     25  C   UNL     1      35.038 -10.284 -25.115  0.00  0.00    +0.000 C 
ATOM     26  C   UNL     1      32.768  -9.127 -22.415  0.00  0.00    +0.000 C 
ATOM     27  C   UNL     1      34.862  -8.128 -23.965  0.00  0.00    +0.000 C 
ATOM     28  C   UNL     1      33.207  -7.814 -22.236  0.00  0.00    +0.000 C 
ATOM     29  C   UNL     1      34.251  -7.316 -23.010  0.00  0.00    +0.000 C 
ENDBRANCH  19  20
ENDBRANCH   1  19
TORSDOF 6
ENDMDL
