MODEL 1
REMARK VINA RESULT:      -6.8      0.000      0.000
REMARK  Name = 42555571
REMARK  4 active torsions:
REMARK  status: ('A' for Active; 'I' for Inactive)
REMARK    1  A    between atoms: CA_1  and  N_2
REMARK    2  A    between atoms: CA_1  and  C_8
REMARK    3  A    between atoms: CA_1  and  CB_9
REMARK    4  A    between atoms: CB_9  and  CG_10
REMARK                            x       y       z     vdW  Elec       q    Type
REMARK                         _______ _______ _______ _____ _____    ______ ____
ROOT
ATOM      1  CA  PHE A   1      35.105 -17.669 -22.190  0.00  0.00    +0.040 C 
ENDROOT
BRANCH   1   2
ATOM      2  N   PHE A   1      35.656 -17.606 -23.580  0.00  0.00    +0.389 N 
ATOM      3  H1  PHE A   1      35.115 -16.937 -24.130  0.00  0.00    -0.088 HD
ATOM      4  H2  PHE A   1      35.596 -18.527 -24.013  0.00  0.00    -0.088 HD
ATOM      5  H3  PHE A   1      36.631 -17.308 -23.546  0.00  0.00    -0.088 HD
ENDBRANCH   1   2
BRANCH   1   8
ATOM      6  O   PHE A   1      34.635 -15.339 -22.285  0.00  0.00    -0.248 OA
ATOM      7  OXT PHE A   1      35.078 -16.293 -20.261  0.00  0.00    -0.248 OA
ATOM      8  C   PHE A   1      34.930 -16.297 -21.516  0.00  0.00    +0.345 C 
ENDBRANCH   1   8
BRANCH   1   9
ATOM      9  CB  PHE A   1      35.942 -18.688 -21.408  0.00  0.00    -0.011 C 
BRANCH   9  10
ATOM     10  CG  PHE A   1      35.204 -19.979 -21.063  0.00  0.00    -0.002 C 
ATOM     11  CD1 PHE A   1      35.937 -20.742 -19.952  0.00  0.00    -0.000 C 
ATOM     12  CD2 PHE A   1      33.754 -19.683 -20.656  0.00  0.00    -0.000 C 
ATOM     13  CE1 PHE A   1      35.190 -22.012 -19.551  0.00  0.00    -0.000 C 
ATOM     14  CE2 PHE A   1      33.010 -20.953 -20.255  0.00  0.00    -0.000 C 
ATOM     15  CZ  PHE A   1      33.747 -21.714 -19.156  0.00  0.00    -0.000 C 
ENDBRANCH   9  10
ENDBRANCH   1   9
TORSDOF 4
ENDMDL
MODEL 2
REMARK VINA RESULT:      -6.7      0.690      1.840
REMARK  Name = 42555571
REMARK  4 active torsions:
REMARK  status: ('A' for Active; 'I' for Inactive)
REMARK    1  A    between atoms: CA_1  and  N_2
REMARK    2  A    between atoms: CA_1  and  C_8
REMARK    3  A    between atoms: CA_1  and  CB_9
REMARK    4  A    between atoms: CB_9  and  CG_10
REMARK                            x       y       z     vdW  Elec       q    Type
REMARK                         _______ _______ _______ _____ _____    ______ ____
ROOT
ATOM      1  CA  PHE A   1      35.051 -17.834 -22.705  0.00  0.00    +0.040 C 
ENDROOT
BRANCH   1   2
ATOM      2  N   PHE A   1      35.448 -18.107 -24.122  0.00  0.00    +0.389 N 
ATOM      3  H1  PHE A   1      36.022 -17.338 -24.468  0.00  0.00    -0.088 HD
ATOM      4  H2  PHE A   1      34.612 -18.194 -24.699  0.00  0.00    -0.088 HD
ATOM      5  H3  PHE A   1      35.983 -18.975 -24.164  0.00  0.00    -0.088 HD
ENDBRANCH   1   2
BRANCH   1   8
ATOM      6  O   PHE A   1      34.763 -16.079 -21.126  0.00  0.00    -0.248 OA
ATOM      7  OXT PHE A   1      35.222 -15.545 -23.296  0.00  0.00    -0.248 OA
ATOM      8  C   PHE A   1      34.998 -16.341 -22.340  0.00  0.00    +0.345 C 
ENDBRANCH   1   8
BRANCH   1   9
ATOM      9  CB  PHE A   1      35.933 -18.705 -21.803  0.00  0.00    -0.011 C 
BRANCH   9  10
ATOM     10  CG  PHE A   1      35.175 -19.444 -20.702  0.00  0.00    -0.002 C 
ATOM     11  CD1 PHE A   1      33.715 -19.675 -21.111  0.00  0.00    -0.000 C 
ATOM     12  CD2 PHE A   1      35.865 -20.773 -20.367  0.00  0.00    -0.000 C 
ATOM     13  CE1 PHE A   1      32.948 -20.460 -20.048  0.00  0.00    -0.000 C 
ATOM     14  CE2 PHE A   1      35.097 -21.557 -19.306  0.00  0.00    -0.000 C 
ATOM     15  CZ  PHE A   1      33.642 -21.776 -19.712  0.00  0.00    -0.000 C 
ENDBRANCH   9  10
ENDBRANCH   1   9
TORSDOF 4
ENDMDL
MODEL 3
REMARK VINA RESULT:      -6.7      1.531      1.941
REMARK  Name = 42555571
REMARK  4 active torsions:
REMARK  status: ('A' for Active; 'I' for Inactive)
REMARK    1  A    between atoms: CA_1  and  N_2
REMARK    2  A    between atoms: CA_1  and  C_8
REMARK    3  A    between atoms: CA_1  and  CB_9
REMARK    4  A    between atoms: CB_9  and  CG_10
REMARK                            x       y       z     vdW  Elec       q    Type
REMARK                         _______ _______ _______ _____ _____    ______ ____
ROOT
ATOM      1  CA  PHE A   1      35.066 -17.665 -21.609  0.00  0.00    +0.040 C 
ENDROOT
BRANCH   1   2
ATOM      2  N   PHE A   1      34.991 -16.592 -20.568  0.00  0.00    +0.389 N 
ATOM      3  H1  PHE A   1      35.444 -15.748 -20.917  0.00  0.00    -0.088 HD
ATOM      4  H2  PHE A   1      35.465 -16.906 -19.721  0.00  0.00    -0.088 HD
ATOM      5  H3  PHE A   1      34.013 -16.391 -20.356  0.00  0.00    -0.088 HD
ENDBRANCH   1   2
BRANCH   1   8
ATOM      6  O   PHE A   1      35.371 -15.891 -23.163  0.00  0.00    -0.248 OA
ATOM      7  OXT PHE A   1      35.247 -18.030 -23.944  0.00  0.00    -0.248 OA
ATOM      8  C   PHE A   1      35.236 -17.141 -23.045  0.00  0.00    +0.345 C 
ENDBRANCH   1   8
BRANCH   1   9
ATOM      9  CB  PHE A   1      33.878 -18.608 -21.385  0.00  0.00    -0.011 C 
BRANCH   9  10
ATOM     10  CG  PHE A   1      34.267 -20.026 -20.974  0.00  0.00    -0.002 C 
ATOM     11  CD1 PHE A   1      35.708 -20.063 -20.449  0.00  0.00    -0.000 C 
ATOM     12  CD2 PHE A   1      33.290 -20.573 -19.923  0.00  0.00    -0.000 C 
ATOM     13  CE1 PHE A   1      36.104 -21.461 -19.981  0.00  0.00    -0.000 C 
ATOM     14  CE2 PHE A   1      33.689 -21.970 -19.456  0.00  0.00    -0.000 C 
ATOM     15  CZ  PHE A   1      35.126 -22.004 -18.944  0.00  0.00    -0.000 C 
ENDBRANCH   9  10
ENDBRANCH   1   9
TORSDOF 4
ENDMDL
MODEL 4
REMARK VINA RESULT:      -6.5      7.288      8.721
REMARK  Name = 42555571
REMARK  4 active torsions:
REMARK  status: ('A' for Active; 'I' for Inactive)
REMARK    1  A    between atoms: CA_1  and  N_2
REMARK    2  A    between atoms: CA_1  and  C_8
REMARK    3  A    between atoms: CA_1  and  CB_9
REMARK    4  A    between atoms: CB_9  and  CG_10
REMARK                            x       y       z     vdW  Elec       q    Type
REMARK                         _______ _______ _______ _____ _____    ______ ____
ROOT
ATOM      1  CA  PHE A   1      28.880 -23.574 -15.554  0.00  0.00    +0.040 C 
ENDROOT
BRANCH   1   2
ATOM      2  N   PHE A   1      29.222 -25.028 -15.469  0.00  0.00    +0.389 N 
ATOM      3  H1  PHE A   1      29.277 -25.307 -14.489  0.00  0.00    -0.088 HD
ATOM      4  H2  PHE A   1      30.121 -25.194 -15.920  0.00  0.00    -0.088 HD
ATOM      5  H3  PHE A   1      28.500 -25.575 -15.938  0.00  0.00    -0.088 HD
ENDBRANCH   1   2
BRANCH   1   8
ATOM      6  O   PHE A   1      27.702 -24.089 -17.554  0.00  0.00    -0.248 OA
ATOM      7  OXT PHE A   1      28.246 -21.916 -17.125  0.00  0.00    -0.248 OA
ATOM      8  C   PHE A   1      28.219 -23.155 -16.878  0.00  0.00    +0.345 C 
ENDBRANCH   1   8
BRANCH   1   9
ATOM      9  CB  PHE A   1      30.134 -22.782 -15.162  0.00  0.00    -0.011 C 
BRANCH   9  10
ATOM     10  CG  PHE A   1      31.446 -23.409 -15.625  0.00  0.00    -0.002 C 
ATOM     11  CD1 PHE A   1      31.923 -22.766 -16.934  0.00  0.00    -0.000 C 
ATOM     12  CD2 PHE A   1      32.520 -23.287 -14.535  0.00  0.00    -0.000 C 
ATOM     13  CE1 PHE A   1      33.262 -23.339 -17.391  0.00  0.00    -0.000 C 
ATOM     14  CE2 PHE A   1      33.859 -23.860 -14.995  0.00  0.00    -0.000 C 
ATOM     15  CZ  PHE A   1      34.324 -23.224 -16.302  0.00  0.00    -0.000 C 
ENDBRANCH   9  10
ENDBRANCH   1   9
TORSDOF 4
ENDMDL
MODEL 5
REMARK VINA RESULT:      -6.5      3.405      5.190
REMARK  Name = 42555571
REMARK  4 active torsions:
REMARK  status: ('A' for Active; 'I' for Inactive)
REMARK    1  A    between atoms: CA_1  and  N_2
REMARK    2  A    between atoms: CA_1  and  C_8
REMARK    3  A    between atoms: CA_1  and  CB_9
REMARK    4  A    between atoms: CB_9  and  CG_10
REMARK                            x       y       z     vdW  Elec       q    Type
REMARK                         _______ _______ _______ _____ _____    ______ ____
ROOT
ATOM      1  CA  PHE A   1      33.630 -21.045 -20.273  0.00  0.00    +0.040 C 
ENDROOT
BRANCH   1   2
ATOM      2  N   PHE A   1      32.435 -20.173 -20.048  0.00  0.00    +0.389 N 
ATOM      3  H1  PHE A   1      31.693 -20.719 -19.610  0.00  0.00    -0.088 HD
ATOM      4  H2  PHE A   1      32.105 -19.809 -20.942  0.00  0.00    -0.088 HD
ATOM      5  H3  PHE A   1      32.691 -19.396 -19.438  0.00  0.00    -0.088 HD
ENDBRANCH   1   2
BRANCH   1   8
ATOM      6  O   PHE A   1      32.854 -22.484 -18.546  0.00  0.00    -0.248 OA
ATOM      7  OXT PHE A   1      35.087 -22.415 -19.001  0.00  0.00    -0.248 OA
ATOM      8  C   PHE A   1      33.880 -22.075 -19.159  0.00  0.00    +0.345 C 
ENDBRANCH   1   8
BRANCH   1   9
ATOM      9  CB  PHE A   1      34.814 -20.129 -20.604  0.00  0.00    -0.011 C 
BRANCH   9  10
ATOM     10  CG  PHE A   1      34.480 -18.989 -21.563  0.00  0.00    -0.002 C 
ATOM     11  CD1 PHE A   1      35.105 -17.673 -21.080  0.00  0.00    -0.000 C 
ATOM     12  CD2 PHE A   1      34.947 -19.323 -22.987  0.00  0.00    -0.000 C 
ATOM     13  CE1 PHE A   1      34.831 -16.527 -22.051  0.00  0.00    -0.000 C 
ATOM     14  CE2 PHE A   1      34.673 -18.176 -23.955  0.00  0.00    -0.000 C 
ATOM     15  CZ  PHE A   1      35.287 -16.868 -23.466  0.00  0.00    -0.000 C 
ENDBRANCH   9  10
ENDBRANCH   1   9
TORSDOF 4
ENDMDL
MODEL 6
REMARK VINA RESULT:      -6.3      4.246      5.543
REMARK  Name = 42555571
REMARK  4 active torsions:
REMARK  status: ('A' for Active; 'I' for Inactive)
REMARK    1  A    between atoms: CA_1  and  N_2
REMARK    2  A    between atoms: CA_1  and  C_8
REMARK    3  A    between atoms: CA_1  and  CB_9
REMARK    4  A    between atoms: CB_9  and  CG_10
REMARK                            x       y       z     vdW  Elec       q    Type
REMARK                         _______ _______ _______ _____ _____    ______ ____
ROOT
ATOM      1  CA  PHE A   1      34.931 -17.367 -23.535  0.00  0.00    +0.040 C 
ENDROOT
BRANCH   1   2
ATOM      2  N   PHE A   1      36.216 -17.923 -23.006  0.00  0.00    +0.389 N 
ATOM      3  H1  PHE A   1      36.891 -18.001 -23.767  0.00  0.00    -0.088 HD
ATOM      4  H2  PHE A   1      36.048 -18.846 -22.606  0.00  0.00    -0.088 HD
ATOM      5  H3  PHE A   1      36.584 -17.301 -22.286  0.00  0.00    -0.088 HD
ENDBRANCH   1   2
BRANCH   1   8
ATOM      6  O   PHE A   1      34.753 -16.925 -25.865  0.00  0.00    -0.248 OA
ATOM      7  OXT PHE A   1      34.227 -19.006 -25.096  0.00  0.00    -0.248 OA
ATOM      8  C   PHE A   1      34.597 -17.804 -24.972  0.00  0.00    +0.345 C 
ENDBRANCH   1   8
BRANCH   1   9
ATOM      9  CB  PHE A   1      34.948 -15.854 -23.291  0.00  0.00    -0.011 C 
BRANCH   9  10
ATOM     10  CG  PHE A   1      33.715 -15.316 -22.569  0.00  0.00    -0.002 C 
ATOM     11  CD1 PHE A   1      33.863 -15.475 -21.051  0.00  0.00    -0.000 C 
ATOM     12  CD2 PHE A   1      33.466 -13.848 -22.942  0.00  0.00    -0.000 C 
ATOM     13  CE1 PHE A   1      32.665 -14.896 -20.302  0.00  0.00    -0.000 C 
ATOM     14  CE2 PHE A   1      32.268 -13.271 -22.192  0.00  0.00    -0.000 C 
ATOM     15  CZ  PHE A   1      32.415 -13.440 -20.682  0.00  0.00    -0.000 C 
ENDBRANCH   9  10
ENDBRANCH   1   9
TORSDOF 4
ENDMDL
MODEL 7
REMARK VINA RESULT:      -6.3      8.009      9.540
REMARK  Name = 42555571
REMARK  4 active torsions:
REMARK  status: ('A' for Active; 'I' for Inactive)
REMARK    1  A    between atoms: CA_1  and  N_2
REMARK    2  A    between atoms: CA_1  and  C_8
REMARK    3  A    between atoms: CA_1  and  CB_9
REMARK    4  A    between atoms: CB_9  and  CG_10
REMARK                            x       y       z     vdW  Elec       q    Type
REMARK                         _______ _______ _______ _____ _____    ______ ____
ROOT
ATOM      1  CA  PHE A   1      38.678 -25.511 -14.726  0.00  0.00    +0.040 C 
ENDROOT
BRANCH   1   2
ATOM      2  N   PHE A   1      38.164 -26.851 -14.303  0.00  0.00    +0.389 N 
ATOM      3  H1  PHE A   1      37.255 -27.018 -14.735  0.00  0.00    -0.088 HD
ATOM      4  H2  PHE A   1      38.066 -26.874 -13.288  0.00  0.00    -0.088 HD
ATOM      5  H3  PHE A   1      38.818 -27.576 -14.598  0.00  0.00    -0.088 HD
ENDBRANCH   1   2
BRANCH   1   8
ATOM      6  O   PHE A   1      40.687 -26.128 -15.840  0.00  0.00    -0.248 OA
ATOM      7  OXT PHE A   1      40.804 -24.689 -14.075  0.00  0.00    -0.248 OA
ATOM      8  C   PHE A   1      40.206 -25.444 -14.893  0.00  0.00    +0.345 C 
ENDBRANCH   1   8
BRANCH   1   9
ATOM      9  CB  PHE A   1      38.070 -24.465 -13.785  0.00  0.00    -0.011 C 
BRANCH   9  10
ATOM     10  CG  PHE A   1      37.129 -23.474 -14.466  0.00  0.00    -0.002 C 
ATOM     11  CD1 PHE A   1      37.715 -23.001 -15.802  0.00  0.00    -0.000 C 
ATOM     12  CD2 PHE A   1      35.741 -24.096 -14.669  0.00  0.00    -0.000 C 
ATOM     13  CE1 PHE A   1      36.768 -22.049 -16.529  0.00  0.00    -0.000 C 
ATOM     14  CE2 PHE A   1      34.796 -23.143 -15.397  0.00  0.00    -0.000 C 
ATOM     15  CZ  PHE A   1      35.388 -22.667 -16.721  0.00  0.00    -0.000 C 
ENDBRANCH   9  10
ENDBRANCH   1   9
TORSDOF 4
ENDMDL
MODEL 8
REMARK VINA RESULT:      -6.2      2.783      5.055
REMARK  Name = 42555571
REMARK  4 active torsions:
REMARK  status: ('A' for Active; 'I' for Inactive)
REMARK    1  A    between atoms: CA_1  and  N_2
REMARK    2  A    between atoms: CA_1  and  C_8
REMARK    3  A    between atoms: CA_1  and  CB_9
REMARK    4  A    between atoms: CB_9  and  CG_10
REMARK                            x       y       z     vdW  Elec       q    Type
REMARK                         _______ _______ _______ _____ _____    ______ ____
ROOT
ATOM      1  CA  PHE A   1      34.976 -19.224 -21.029  0.00  0.00    +0.040 C 
ENDROOT
BRANCH   1   2
ATOM      2  N   PHE A   1      36.307 -19.369 -20.359  0.00  0.00    +0.389 N 
ATOM      3  H1  PHE A   1      36.263 -20.128 -19.679  0.00  0.00    -0.088 HD
ATOM      4  H2  PHE A   1      36.544 -18.499 -19.882  0.00  0.00    -0.088 HD
ATOM      5  H3  PHE A   1      37.019 -19.579 -21.059  0.00  0.00    -0.088 HD
ENDBRANCH   1   2
BRANCH   1   8
ATOM      6  O   PHE A   1      32.705 -19.912 -20.868  0.00  0.00    -0.248 OA
ATOM      7  OXT PHE A   1      34.288 -21.047 -19.680  0.00  0.00    -0.248 OA
ATOM      8  C   PHE A   1      33.880 -20.144 -20.465  0.00  0.00    +0.345 C 
ENDBRANCH   1   8
BRANCH   1   9
ATOM      9  CB  PHE A   1      35.209 -19.323 -22.541  0.00  0.00    -0.011 C 
BRANCH   9  10
ATOM     10  CG  PHE A   1      35.276 -17.977 -23.259  0.00  0.00    -0.002 C 
ATOM     11  CD1 PHE A   1      34.607 -18.063 -24.637  0.00  0.00    -0.000 C 
ATOM     12  CD2 PHE A   1      34.630 -16.875 -22.407  0.00  0.00    -0.000 C 
ATOM     13  CE1 PHE A   1      34.613 -16.715 -25.354  0.00  0.00    -0.000 C 
ATOM     14  CE2 PHE A   1      34.636 -15.529 -23.126  0.00  0.00    -0.000 C 
ATOM     15  CZ  PHE A   1      33.979 -15.622 -24.500  0.00  0.00    -0.000 C 
ENDBRANCH   9  10
ENDBRANCH   1   9
TORSDOF 4
ENDMDL
MODEL 9
REMARK VINA RESULT:      -6.2      2.971      4.956
REMARK  Name = 42555571
REMARK  4 active torsions:
REMARK  status: ('A' for Active; 'I' for Inactive)
REMARK    1  A    between atoms: CA_1  and  N_2
REMARK    2  A    between atoms: CA_1  and  C_8
REMARK    3  A    between atoms: CA_1  and  CB_9
REMARK    4  A    between atoms: CB_9  and  CG_10
REMARK                            x       y       z     vdW  Elec       q    Type
REMARK                         _______ _______ _______ _____ _____    ______ ____
ROOT
ATOM      1  CA  PHE A   1      34.657 -20.091 -20.804  0.00  0.00    +0.040 C 
ENDROOT
BRANCH   1   2
ATOM      2  N   PHE A   1      33.229 -20.170 -20.365  0.00  0.00    +0.389 N 
ATOM      3  H1  PHE A   1      32.626 -19.815 -21.108  0.00  0.00    -0.088 HD
ATOM      4  H2  PHE A   1      33.099 -19.606 -19.525  0.00  0.00    -0.088 HD
ATOM      5  H3  PHE A   1      32.987 -21.140 -20.165  0.00  0.00    -0.088 HD
ENDBRANCH   1   2
BRANCH   1   8
ATOM      6  O   PHE A   1      36.641 -20.268 -19.503  0.00  0.00    -0.248 OA
ATOM      7  OXT PHE A   1      35.298 -22.099 -19.720  0.00  0.00    -0.248 OA
ATOM      8  C   PHE A   1      35.633 -20.899 -19.931  0.00  0.00    +0.345 C 
ENDBRANCH   1   8
BRANCH   1   9
ATOM      9  CB  PHE A   1      35.004 -18.608 -20.983  0.00  0.00    -0.011 C 
BRANCH   9  10
ATOM     10  CG  PHE A   1      35.252 -18.188 -22.430  0.00  0.00    -0.002 C 
ATOM     11  CD1 PHE A   1      34.591 -19.175 -23.402  0.00  0.00    -0.000 C 
ATOM     12  CD2 PHE A   1      34.746 -16.760 -22.675  0.00  0.00    -0.000 C 
ATOM     13  CE1 PHE A   1      34.779 -18.748 -24.856  0.00  0.00    -0.000 C 
ATOM     14  CE2 PHE A   1      34.934 -16.336 -24.129  0.00  0.00    -0.000 C 
ATOM     15  CZ  PHE A   1      34.284 -17.325 -25.092  0.00  0.00    -0.000 C 
ENDBRANCH   9  10
ENDBRANCH   1   9
TORSDOF 4
ENDMDL
