MODEL 1
REMARK VINA RESULT:      -9.1      0.000      0.000
REMARK  Name = 4920903
REMARK  4 active torsions:
REMARK  status: ('A' for Active; 'I' for Inactive)
REMARK    1  A    between atoms: N_1  and  C_3
REMARK    2  A    between atoms: N_1  and  C_9
REMARK    3  A    between atoms: N_1  and  C_16
REMARK    4  A    between atoms: C_16  and  C_19
REMARK                            x       y       z     vdW  Elec       q    Type
REMARK                         _______ _______ _______ _____ _____    ______ ____
ROOT
ATOM      1  N   UNL     1      35.042 -18.542 -21.452  0.00  0.00    -0.283 N 
ENDROOT
BRANCH   1   3
ATOM      2  O   UNL     1      32.693 -22.028 -19.244  0.00  0.00    -0.287 OA
ATOM      3  C   UNL     1      35.029 -19.720 -20.641  0.00  0.00    +0.055 C 
ATOM      4  C   UNL     1      33.817 -20.318 -20.333  0.00  0.00    +0.057 C 
ATOM      5  C   UNL     1      36.228 -20.235 -20.176  0.00  0.00    +0.015 C 
ATOM      6  C   UNL     1      33.805 -21.464 -19.538  0.00  0.00    +0.197 C 
ATOM      7  C   UNL     1      36.216 -21.381 -19.381  0.00  0.00    +0.005 C 
ATOM      8  C   UNL     1      35.004 -21.996 -19.062  0.00  0.00    +0.042 C 
ENDBRANCH   1   3
BRANCH   1   9
ATOM      9  C   UNL     1      34.357 -17.330 -21.128  0.00  0.00    +0.052 C 
ATOM     10  C   UNL     1      35.090 -16.205 -20.787  0.00  0.00    +0.015 C 
ATOM     11  C   UNL     1      32.972 -17.304 -21.163  0.00  0.00    +0.015 C 
ATOM     12  C   UNL     1      33.026 -14.981 -20.502  0.00  0.00    -0.022 C 
ATOM     13  C   UNL     1      34.420 -15.023 -20.472  0.00  0.00    -0.003 C 
ATOM     14  C   UNL     1      32.302 -16.122 -20.848  0.00  0.00    -0.003 C 
ATOM     15  C   UNL     1      32.310 -13.718 -20.165  0.00  0.00    +0.031 C 
ENDBRANCH   1   9
BRANCH   1  16
ATOM     16  C   UNL     1      35.987 -18.461 -22.538  0.00  0.00    +0.136 C 
BRANCH  16  19
ATOM     17  N   UNL     1      34.432 -18.818 -24.383  0.00  0.00    -0.316 N 
ATOM     18  N   UNL     1      35.441 -16.838 -24.267  0.00  0.00    -0.316 N 
ATOM     19  C   UNL     1      35.280 -18.038 -23.742  0.00  0.00    +0.164 C 
ATOM     20  C   UNL     1      33.900 -18.091 -25.540  0.00  0.00    +0.075 C 
ATOM     21  C   UNL     1      34.595 -16.725 -25.459  0.00  0.00    +0.075 C 
ATOM     22  H   UNL     1      34.195 -19.739 -24.128  0.00  0.00    +0.148 HD
ATOM     23  H   UNL     1      36.033 -16.134 -23.916  0.00  0.00    +0.148 HD
ENDBRANCH  16  19
ENDBRANCH   1  16
TORSDOF 4
ENDMDL
MODEL 2
REMARK VINA RESULT:      -9.0      0.920      1.627
REMARK  Name = 4920903
REMARK  4 active torsions:
REMARK  status: ('A' for Active; 'I' for Inactive)
REMARK    1  A    between atoms: N_1  and  C_3
REMARK    2  A    between atoms: N_1  and  C_9
REMARK    3  A    between atoms: N_1  and  C_16
REMARK    4  A    between atoms: C_16  and  C_19
REMARK                            x       y       z     vdW  Elec       q    Type
REMARK                         _______ _______ _______ _____ _____    ______ ____
ROOT
ATOM      1  N   UNL     1      34.777 -18.546 -21.383  0.00  0.00    -0.283 N 
ENDROOT
BRANCH   1   3
ATOM      2  O   UNL     1      36.559 -22.077 -18.754  0.00  0.00    -0.287 OA
ATOM      3  C   UNL     1      34.603 -19.730 -20.598  0.00  0.00    +0.055 C 
ATOM      4  C   UNL     1      35.713 -20.342 -20.039  0.00  0.00    +0.057 C 
ATOM      5  C   UNL     1      33.328 -20.241 -20.420  0.00  0.00    +0.015 C 
ATOM      6  C   UNL     1      35.543 -21.499 -19.278  0.00  0.00    +0.197 C 
ATOM      7  C   UNL     1      33.158 -21.398 -19.658  0.00  0.00    +0.005 C 
ATOM      8  C   UNL     1      34.265 -22.027 -19.088  0.00  0.00    +0.042 C 
ENDBRANCH   1   3
BRANCH   1   9
ATOM      9  C   UNL     1      34.172 -17.285 -21.088  0.00  0.00    +0.052 C 
ATOM     10  C   UNL     1      34.979 -16.198 -20.792  0.00  0.00    +0.015 C 
ATOM     11  C   UNL     1      32.791 -17.175 -21.105  0.00  0.00    +0.015 C 
ATOM     12  C   UNL     1      32.999 -14.840 -20.519  0.00  0.00    -0.022 C 
ATOM     13  C   UNL     1      34.388 -14.968 -20.506  0.00  0.00    -0.003 C 
ATOM     14  C   UNL     1      32.201 -15.944 -20.818  0.00  0.00    -0.003 C 
ATOM     15  C   UNL     1      32.367 -13.525 -20.212  0.00  0.00    +0.031 C 
ENDBRANCH   1   9
BRANCH   1  16
ATOM     16  C   UNL     1      35.805 -18.533 -22.393  0.00  0.00    +0.136 C 
BRANCH  16  19
ATOM     17  N   UNL     1      35.479 -16.895 -24.171  0.00  0.00    -0.316 N 
ATOM     18  N   UNL     1      34.392 -18.828 -24.353  0.00  0.00    -0.316 N 
ATOM     19  C   UNL     1      35.220 -18.078 -23.649  0.00  0.00    +0.164 C 
ATOM     20  C   UNL     1      34.737 -16.757 -25.428  0.00  0.00    +0.075 C 
ATOM     21  C   UNL     1      33.988 -18.091 -25.554  0.00  0.00    +0.075 C 
ATOM     22  H   UNL     1      36.073 -16.215 -23.780  0.00  0.00    +0.148 HD
ATOM     23  H   UNL     1      34.094 -19.735 -24.110  0.00  0.00    +0.148 HD
ENDBRANCH  16  19
ENDBRANCH   1  16
TORSDOF 4
ENDMDL
MODEL 3
REMARK VINA RESULT:      -8.8      5.912      8.953
REMARK  Name = 4920903
REMARK  4 active torsions:
REMARK  status: ('A' for Active; 'I' for Inactive)
REMARK    1  A    between atoms: N_1  and  C_3
REMARK    2  A    between atoms: N_1  and  C_9
REMARK    3  A    between atoms: N_1  and  C_16
REMARK    4  A    between atoms: C_16  and  C_19
REMARK                            x       y       z     vdW  Elec       q    Type
REMARK                         _______ _______ _______ _____ _____    ______ ____
ROOT
ATOM      1  N   UNL     1      34.368 -23.489 -15.409  0.00  0.00    -0.283 N 
ENDROOT
BRANCH   1   3
ATOM      2  O   UNL     1      29.848 -22.890 -16.738  0.00  0.00    -0.287 OA
ATOM      3  C   UNL     1      32.967 -23.707 -15.210  0.00  0.00    +0.055 C 
ATOM      4  C   UNL     1      32.063 -23.171 -16.111  0.00  0.00    +0.057 C 
ATOM      5  C   UNL     1      32.547 -24.445 -14.115  0.00  0.00    +0.015 C 
ATOM      6  C   UNL     1      30.698 -23.380 -15.913  0.00  0.00    +0.197 C 
ATOM      7  C   UNL     1      31.182 -24.654 -13.917  0.00  0.00    +0.005 C 
ATOM      8  C   UNL     1      30.257 -24.121 -14.816  0.00  0.00    +0.042 C 
ENDBRANCH   1   3
BRANCH   1   9
ATOM      9  C   UNL     1      34.932 -22.868 -16.566  0.00  0.00    +0.052 C 
ATOM     10  C   UNL     1      36.190 -22.293 -16.483  0.00  0.00    +0.015 C 
ATOM     11  C   UNL     1      34.210 -22.854 -17.748  0.00  0.00    +0.015 C 
ATOM     12  C   UNL     1      36.026 -21.667 -18.810  0.00  0.00    -0.022 C 
ATOM     13  C   UNL     1      36.740 -21.689 -17.613  0.00  0.00    -0.003 C 
ATOM     14  C   UNL     1      34.761 -22.249 -18.878  0.00  0.00    -0.003 C 
ATOM     15  C   UNL     1      36.614 -21.020 -20.019  0.00  0.00    +0.031 C 
ENDBRANCH   1   9
BRANCH   1  16
ATOM     16  C   UNL     1      35.261 -23.674 -14.293  0.00  0.00    +0.136 C 
BRANCH  16  19
ATOM     17  N   UNL     1      35.684 -25.943 -15.084  0.00  0.00    -0.316 N 
ATOM     18  N   UNL     1      37.429 -24.779 -14.342  0.00  0.00    -0.316 N 
ATOM     19  C   UNL     1      36.131 -24.811 -14.575  0.00  0.00    +0.164 C 
ATOM     20  C   UNL     1      36.810 -26.869 -15.244  0.00  0.00    +0.075 C 
ATOM     21  C   UNL     1      38.014 -26.065 -14.732  0.00  0.00    +0.075 C 
ATOM     22  H   UNL     1      34.747 -26.135 -15.319  0.00  0.00    +0.148 HD
ATOM     23  H   UNL     1      37.925 -24.015 -13.966  0.00  0.00    +0.148 HD
ENDBRANCH  16  19
ENDBRANCH   1  16
TORSDOF 4
ENDMDL
MODEL 4
REMARK VINA RESULT:      -8.5      2.436      5.526
REMARK  Name = 4920903
REMARK  4 active torsions:
REMARK  status: ('A' for Active; 'I' for Inactive)
REMARK    1  A    between atoms: N_1  and  C_3
REMARK    2  A    between atoms: N_1  and  C_9
REMARK    3  A    between atoms: N_1  and  C_16
REMARK    4  A    between atoms: C_16  and  C_19
REMARK                            x       y       z     vdW  Elec       q    Type
REMARK                         _______ _______ _______ _____ _____    ______ ____
ROOT
ATOM      1  N   UNL     1      34.702 -18.296 -21.633  0.00  0.00    -0.283 N 
ENDROOT
BRANCH   1   3
ATOM      2  O   UNL     1      34.399 -15.942 -25.746  0.00  0.00    -0.287 OA
ATOM      3  C   UNL     1      34.661 -18.280 -23.064  0.00  0.00    +0.055 C 
ATOM      4  C   UNL     1      34.549 -17.068 -23.725  0.00  0.00    +0.057 C 
ATOM      5  C   UNL     1      34.728 -19.478 -23.755  0.00  0.00    +0.015 C 
ATOM      6  C   UNL     1      34.503 -17.054 -25.120  0.00  0.00    +0.197 C 
ATOM      7  C   UNL     1      34.682 -19.464 -25.149  0.00  0.00    +0.005 C 
ATOM      8  C   UNL     1      34.570 -18.252 -25.832  0.00  0.00    +0.042 C 
ENDBRANCH   1   3
BRANCH   1   9
ATOM      9  C   UNL     1      34.466 -19.454 -20.831  0.00  0.00    +0.052 C 
ATOM     10  C   UNL     1      35.544 -20.190 -20.366  0.00  0.00    +0.015 C 
ATOM     11  C   UNL     1      33.163 -19.820 -20.534  0.00  0.00    +0.015 C 
ATOM     12  C   UNL     1      34.007 -21.700 -19.274  0.00  0.00    -0.022 C 
ATOM     13  C   UNL     1      35.313 -21.320 -19.582  0.00  0.00    -0.003 C 
ATOM     14  C   UNL     1      32.932 -20.950 -19.750  0.00  0.00    -0.003 C 
ATOM     15  C   UNL     1      33.759 -22.909 -18.437  0.00  0.00    +0.031 C 
ENDBRANCH   1   9
BRANCH   1  16
ATOM     16  C   UNL     1      35.248 -17.153 -20.946  0.00  0.00    +0.136 C 
BRANCH  16  19
ATOM     17  N   UNL     1      34.539 -14.822 -21.069  0.00  0.00    -0.316 N 
ATOM     18  N   UNL     1      32.957 -16.354 -20.749  0.00  0.00    -0.316 N 
ATOM     19  C   UNL     1      34.241 -16.098 -20.920  0.00  0.00    +0.164 C 
ATOM     20  C   UNL     1      33.304 -14.033 -20.995  0.00  0.00    +0.075 C 
ATOM     21  C   UNL     1      32.213 -15.091 -20.775  0.00  0.00    +0.075 C 
ATOM     22  H   UNL     1      35.443 -14.457 -21.207  0.00  0.00    +0.148 HD
ATOM     23  H   UNL     1      32.564 -17.248 -20.625  0.00  0.00    +0.148 HD
ENDBRANCH  16  19
ENDBRANCH   1  16
TORSDOF 4
ENDMDL
MODEL 5
REMARK VINA RESULT:      -8.3      6.808      9.611
REMARK  Name = 4920903
REMARK  4 active torsions:
REMARK  status: ('A' for Active; 'I' for Inactive)
REMARK    1  A    between atoms: N_1  and  C_3
REMARK    2  A    between atoms: N_1  and  C_9
REMARK    3  A    between atoms: N_1  and  C_16
REMARK    4  A    between atoms: C_16  and  C_19
REMARK                            x       y       z     vdW  Elec       q    Type
REMARK                         _______ _______ _______ _____ _____    ______ ____
ROOT
ATOM      1  N   UNL     1      34.476 -23.494 -14.828  0.00  0.00    -0.283 N 
ENDROOT
BRANCH   1   3
ATOM      2  O   UNL     1      34.909 -22.452 -19.441  0.00  0.00    -0.287 OA
ATOM      3  C   UNL     1      35.187 -22.882 -15.910  0.00  0.00    +0.055 C 
ATOM      4  C   UNL     1      34.674 -22.971 -17.194  0.00  0.00    +0.057 C 
ATOM      5  C   UNL     1      36.375 -22.221 -15.650  0.00  0.00    +0.015 C 
ATOM      6  C   UNL     1      35.370 -22.379 -18.248  0.00  0.00    +0.197 C 
ATOM      7  C   UNL     1      37.071 -21.629 -16.704  0.00  0.00    +0.005 C 
ATOM      8  C   UNL     1      36.568 -21.708 -18.003  0.00  0.00    +0.042 C 
ENDBRANCH   1   3
BRANCH   1   9
ATOM      9  C   UNL     1      33.085 -23.818 -14.857  0.00  0.00    +0.052 C 
ATOM     10  C   UNL     1      32.265 -23.214 -15.797  0.00  0.00    +0.015 C 
ATOM     11  C   UNL     1      32.583 -24.732 -13.944  0.00  0.00    +0.015 C 
ATOM     12  C   UNL     1      30.388 -24.450 -14.913  0.00  0.00    -0.022 C 
ATOM     13  C   UNL     1      30.908 -23.532 -15.824  0.00  0.00    -0.003 C 
ATOM     14  C   UNL     1      31.225 -25.050 -13.973  0.00  0.00    -0.003 C 
ATOM     15  C   UNL     1      28.936 -24.790 -14.942  0.00  0.00    +0.031 C 
ENDBRANCH   1   9
BRANCH   1  16
ATOM     16  C   UNL     1      35.231 -24.044 -13.731  0.00  0.00    +0.136 C 
BRANCH  16  19
ATOM     17  N   UNL     1      35.693 -26.079 -14.996  0.00  0.00    -0.316 N 
ATOM     18  N   UNL     1      37.417 -25.081 -14.004  0.00  0.00    -0.316 N 
ATOM     19  C   UNL     1      36.120 -25.079 -14.248  0.00  0.00    +0.164 C 
ATOM     20  C   UNL     1      36.834 -26.931 -15.347  0.00  0.00    +0.075 C 
ATOM     21  C   UNL     1      38.023 -26.242 -14.663  0.00  0.00    +0.075 C 
ATOM     22  H   UNL     1      34.760 -26.228 -15.274  0.00  0.00    +0.148 HD
ATOM     23  H   UNL     1      37.899 -24.411 -13.467  0.00  0.00    +0.148 HD
ENDBRANCH  16  19
ENDBRANCH   1  16
TORSDOF 4
ENDMDL
MODEL 6
REMARK VINA RESULT:      -8.3      4.692      8.193
REMARK  Name = 4920903
REMARK  4 active torsions:
REMARK  status: ('A' for Active; 'I' for Inactive)
REMARK    1  A    between atoms: N_1  and  C_3
REMARK    2  A    between atoms: N_1  and  C_9
REMARK    3  A    between atoms: N_1  and  C_16
REMARK    4  A    between atoms: C_16  and  C_19
REMARK                            x       y       z     vdW  Elec       q    Type
REMARK                         _______ _______ _______ _____ _____    ______ ____
ROOT
ATOM      1  N   UNL     1      33.597 -23.508 -16.630  0.00  0.00    -0.283 N 
ENDROOT
BRANCH   1   3
ATOM      2  O   UNL     1      28.993 -22.417 -17.033  0.00  0.00    -0.287 OA
ATOM      3  C   UNL     1      32.325 -23.219 -16.041  0.00  0.00    +0.055 C 
ATOM      4  C   UNL     1      31.242 -22.953 -16.862  0.00  0.00    +0.057 C 
ATOM      5  C   UNL     1      32.208 -23.205 -14.661  0.00  0.00    +0.015 C 
ATOM      6  C   UNL     1      30.004 -22.666 -16.287  0.00  0.00    +0.197 C 
ATOM      7  C   UNL     1      30.970 -22.918 -14.085  0.00  0.00    +0.005 C 
ATOM      8  C   UNL     1      29.868 -22.648 -14.898  0.00  0.00    +0.042 C 
ENDBRANCH   1   3
BRANCH   1   9
ATOM      9  C   UNL     1      34.796 -23.744 -15.889  0.00  0.00    +0.052 C 
ATOM     10  C   UNL     1      35.676 -22.697 -15.669  0.00  0.00    +0.015 C 
ATOM     11  C   UNL     1      35.055 -25.017 -15.404  0.00  0.00    +0.015 C 
ATOM     12  C   UNL     1      37.119 -24.203 -14.450  0.00  0.00    -0.022 C 
ATOM     13  C   UNL     1      36.845 -22.928 -14.944  0.00  0.00    -0.003 C 
ATOM     14  C   UNL     1      36.224 -25.247 -14.680  0.00  0.00    -0.003 C 
ATOM     15  C   UNL     1      38.370 -24.450 -13.676  0.00  0.00    +0.031 C 
ENDBRANCH   1   9
BRANCH   1  16
ATOM     16  C   UNL     1      33.650 -23.826 -18.035  0.00  0.00    +0.136 C 
BRANCH  16  19
ATOM     17  N   UNL     1      35.145 -22.151 -18.991  0.00  0.00    -0.316 N 
ATOM     18  N   UNL     1      32.960 -21.863 -19.299  0.00  0.00    -0.316 N 
ATOM     19  C   UNL     1      33.923 -22.601 -18.780  0.00  0.00    +0.164 C 
ATOM     20  C   UNL     1      35.067 -20.910 -19.769  0.00  0.00    +0.075 C 
ATOM     21  C   UNL     1      33.559 -20.712 -19.982  0.00  0.00    +0.075 C 
ATOM     22  H   UNL     1      35.975 -22.578 -18.677  0.00  0.00    +0.148 HD
ATOM     23  H   UNL     1      31.996 -22.054 -19.236  0.00  0.00    +0.148 HD
ENDBRANCH  16  19
ENDBRANCH   1  16
TORSDOF 4
ENDMDL
MODEL 7
REMARK VINA RESULT:      -8.2      1.942      5.090
REMARK  Name = 4920903
REMARK  4 active torsions:
REMARK  status: ('A' for Active; 'I' for Inactive)
REMARK    1  A    between atoms: N_1  and  C_3
REMARK    2  A    between atoms: N_1  and  C_9
REMARK    3  A    between atoms: N_1  and  C_16
REMARK    4  A    between atoms: C_16  and  C_19
REMARK                            x       y       z     vdW  Elec       q    Type
REMARK                         _______ _______ _______ _____ _____    ______ ____
ROOT
ATOM      1  N   UNL     1      35.065 -18.584 -21.212  0.00  0.00    -0.283 N 
ENDROOT
BRANCH   1   3
ATOM      2  O   UNL     1      35.056 -13.923 -20.303  0.00  0.00    -0.287 OA
ATOM      3  C   UNL     1      34.366 -17.350 -21.019  0.00  0.00    +0.055 C 
ATOM      4  C   UNL     1      35.087 -16.198 -20.748  0.00  0.00    +0.057 C 
ATOM      5  C   UNL     1      32.984 -17.336 -21.102  0.00  0.00    +0.015 C 
ATOM      6  C   UNL     1      34.404 -14.997 -20.555  0.00  0.00    +0.197 C 
ATOM      7  C   UNL     1      32.301 -16.134 -20.909  0.00  0.00    +0.005 C 
ATOM      8  C   UNL     1      33.012 -14.965 -20.636  0.00  0.00    +0.042 C 
ENDBRANCH   1   3
BRANCH   1   9
ATOM      9  C   UNL     1      34.747 -19.806 -20.542  0.00  0.00    +0.052 C 
ATOM     10  C   UNL     1      35.773 -20.600 -20.055  0.00  0.00    +0.015 C 
ATOM     11  C   UNL     1      33.419 -20.171 -20.391  0.00  0.00    +0.015 C 
ATOM     12  C   UNL     1      34.130 -22.173 -19.240  0.00  0.00    -0.022 C 
ATOM     13  C   UNL     1      35.461 -21.791 -19.400  0.00  0.00    -0.003 C 
ATOM     14  C   UNL     1      33.108 -21.363 -19.736  0.00  0.00    -0.003 C 
ATOM     15  C   UNL     1      33.797 -23.447 -18.540  0.00  0.00    +0.031 C 
ENDBRANCH   1   9
BRANCH   1  16
ATOM     16  C   UNL     1      35.986 -18.691 -22.315  0.00  0.00    +0.136 C 
BRANCH  16  19
ATOM     17  N   UNL     1      35.492 -17.090 -24.089  0.00  0.00    -0.316 N 
ATOM     18  N   UNL     1      34.452 -19.056 -24.170  0.00  0.00    -0.316 N 
ATOM     19  C   UNL     1      35.303 -18.272 -23.535  0.00  0.00    +0.164 C 
ATOM     20  C   UNL     1      34.662 -16.992 -25.295  0.00  0.00    +0.075 C 
ATOM     21  C   UNL     1      33.946 -18.349 -25.351  0.00  0.00    +0.075 C 
ATOM     22  H   UNL     1      36.091 -16.388 -23.749  0.00  0.00    +0.148 HD
ATOM     23  H   UNL     1      34.198 -19.967 -23.895  0.00  0.00    +0.148 HD
ENDBRANCH  16  19
ENDBRANCH   1  16
TORSDOF 4
ENDMDL
MODEL 8
REMARK VINA RESULT:      -8.0      6.484      9.254
REMARK  Name = 4920903
REMARK  4 active torsions:
REMARK  status: ('A' for Active; 'I' for Inactive)
REMARK    1  A    between atoms: N_1  and  C_3
REMARK    2  A    between atoms: N_1  and  C_9
REMARK    3  A    between atoms: N_1  and  C_16
REMARK    4  A    between atoms: C_16  and  C_19
REMARK                            x       y       z     vdW  Elec       q    Type
REMARK                         _______ _______ _______ _____ _____    ______ ____
ROOT
ATOM      1  N   UNL     1      34.222 -23.571 -15.575  0.00  0.00    -0.283 N 
ENDROOT
BRANCH   1   3
ATOM      2  O   UNL     1      35.377 -21.801 -19.827  0.00  0.00    -0.287 OA
ATOM      3  C   UNL     1      35.117 -22.848 -16.426  0.00  0.00    +0.055 C 
ATOM      4  C   UNL     1      34.790 -22.672 -17.760  0.00  0.00    +0.057 C 
ATOM      5  C   UNL     1      36.294 -22.344 -15.897  0.00  0.00    +0.015 C 
ATOM      6  C   UNL     1      35.665 -21.971 -18.590  0.00  0.00    +0.197 C 
ATOM      7  C   UNL     1      37.169 -21.642 -16.727  0.00  0.00    +0.005 C 
ATOM      8  C   UNL     1      36.854 -21.456 -18.074  0.00  0.00    +0.042 C 
ENDBRANCH   1   3
BRANCH   1   9
ATOM      9  C   UNL     1      32.815 -23.334 -15.493  0.00  0.00    +0.052 C 
ATOM     10  C   UNL     1      32.209 -23.265 -14.249  0.00  0.00    +0.015 C 
ATOM     11  C   UNL     1      32.085 -23.177 -16.660  0.00  0.00    +0.015 C 
ATOM     12  C   UNL     1      30.088 -22.872 -15.336  0.00  0.00    -0.022 C 
ATOM     13  C   UNL     1      30.837 -23.032 -14.171  0.00  0.00    -0.003 C 
ATOM     14  C   UNL     1      30.712 -22.944 -16.581  0.00  0.00    -0.003 C 
ATOM     15  C   UNL     1      28.619 -22.624 -15.252  0.00  0.00    +0.031 C 
ENDBRANCH   1   9
BRANCH   1  16
ATOM     16  C   UNL     1      34.698 -24.772 -14.935  0.00  0.00    +0.136 C 
BRANCH  16  19
ATOM     17  N   UNL     1      35.212 -23.545 -12.889  0.00  0.00    -0.316 N 
ATOM     18  N   UNL     1      36.791 -24.890 -13.696  0.00  0.00    -0.316 N 
ATOM     19  C   UNL     1      35.574 -24.396 -13.830  0.00  0.00    +0.164 C 
ATOM     20  C   UNL     1      36.316 -23.392 -11.936  0.00  0.00    +0.075 C 
ATOM     21  C   UNL     1      37.404 -24.320 -12.493  0.00  0.00    +0.075 C 
ATOM     22  H   UNL     1      34.342 -23.087 -12.836  0.00  0.00    +0.148 HD
ATOM     23  H   UNL     1      37.216 -25.535 -14.305  0.00  0.00    +0.148 HD
ENDBRANCH  16  19
ENDBRANCH   1  16
TORSDOF 4
ENDMDL
MODEL 9
REMARK VINA RESULT:      -8.0      7.057      9.905
REMARK  Name = 4920903
REMARK  4 active torsions:
REMARK  status: ('A' for Active; 'I' for Inactive)
REMARK    1  A    between atoms: N_1  and  C_3
REMARK    2  A    between atoms: N_1  and  C_9
REMARK    3  A    between atoms: N_1  and  C_16
REMARK    4  A    between atoms: C_16  and  C_19
REMARK                            x       y       z     vdW  Elec       q    Type
REMARK                         _______ _______ _______ _____ _____    ______ ____
ROOT
ATOM      1  N   UNL     1      32.965  -9.152 -23.256  0.00  0.00    -0.283 N 
ENDROOT
BRANCH   1   3
ATOM      2  O   UNL     1      32.045  -9.520 -18.612  0.00  0.00    -0.287 OA
ATOM      3  C   UNL     1      32.251  -9.745 -22.167  0.00  0.00    +0.055 C 
ATOM      4  C   UNL     1      32.509  -9.319 -20.874  0.00  0.00    +0.057 C 
ATOM      5  C   UNL     1      31.321 -10.737 -22.429  0.00  0.00    +0.015 C 
ATOM      6  C   UNL     1      31.816  -9.902 -19.813  0.00  0.00    +0.197 C 
ATOM      7  C   UNL     1      30.628 -11.320 -21.368  0.00  0.00    +0.005 C 
ATOM      8  C   UNL     1      30.876 -10.902 -20.060  0.00  0.00    +0.042 C 
ENDBRANCH   1   3
BRANCH   1   9
ATOM      9  C   UNL     1      32.644  -7.887 -23.838  0.00  0.00    +0.052 C 
ATOM     10  C   UNL     1      31.325  -7.461 -23.855  0.00  0.00    +0.015 C 
ATOM     11  C   UNL     1      33.659  -7.110 -24.375  0.00  0.00    +0.015 C 
ATOM     12  C   UNL     1      32.024  -5.433 -24.966  0.00  0.00    -0.022 C 
ATOM     13  C   UNL     1      31.014  -6.226 -24.422  0.00  0.00    -0.003 C 
ATOM     14  C   UNL     1      33.346  -5.875 -24.942  0.00  0.00    -0.003 C 
ATOM     15  C   UNL     1      31.690  -4.112 -25.574  0.00  0.00    +0.031 C 
ENDBRANCH   1   9
BRANCH   1  16
ATOM     16  C   UNL     1      34.228  -9.725 -23.647  0.00  0.00    +0.136 C 
BRANCH  16  19
ATOM     17  N   UNL     1      33.679 -11.063 -25.612  0.00  0.00    -0.316 N 
ATOM     18  N   UNL     1      34.034 -12.151 -23.703  0.00  0.00    -0.316 N 
ATOM     19  C   UNL     1      33.976 -10.990 -24.328  0.00  0.00    +0.164 C 
ATOM     20  C   UNL     1      33.491 -12.471 -25.977  0.00  0.00    +0.075 C 
ATOM     21  C   UNL     1      33.736 -13.221 -24.660  0.00  0.00    +0.075 C 
ATOM     22  H   UNL     1      33.598 -10.297 -26.225  0.00  0.00    +0.148 HD
ATOM     23  H   UNL     1      34.242 -12.277 -22.749  0.00  0.00    +0.148 HD
ENDBRANCH  16  19
ENDBRANCH   1  16
TORSDOF 4
ENDMDL
