MODEL 1
REMARK VINA RESULT:     -11.4      0.000      0.000
REMARK  Name = 9939865
REMARK  5 active torsions:
REMARK  status: ('A' for Active; 'I' for Inactive)
REMARK    1  A    between atoms: C_1  and  C_9
REMARK    2  A    between atoms: C_1  and  C_19
REMARK    3  A    between atoms: C_1  and  N_26
REMARK    4  A    between atoms: N_3  and  C_12
REMARK    5  A    between atoms: C_27  and  C_30
REMARK                            x       y       z     vdW  Elec       q    Type
REMARK                         _______ _______ _______ _____ _____    ______ ____
ROOT
ATOM      1  C   UNL     1      33.636 -12.365 -23.659  0.00  0.00    +0.172 C 
ENDROOT
BRANCH   1   9
ATOM      2  O   UNL     1      31.740 -12.640 -22.263  0.00  0.00    -0.273 OA
ATOM      3  N   UNL     1      34.237 -16.804 -21.186  0.00  0.00    +0.390 N 
ATOM      4  N   UNL     1      33.476 -14.155 -21.966  0.00  0.00    -0.282 N 
ATOM      5  C   UNL     1      32.870 -16.320 -20.945  0.00  0.00    -0.055 C 
ATOM      6  C   UNL     1      34.789 -16.201 -22.408  0.00  0.00    -0.055 C 
ATOM      7  C   UNL     1      32.852 -14.798 -20.810  0.00  0.00    +0.071 C 
ATOM      8  C   UNL     1      34.804 -14.674 -22.307  0.00  0.00    +0.071 C 
ATOM      9  C   UNL     1      32.860 -13.058 -22.567  0.00  0.00    +0.248 C 
ATOM     10  H   UNL     1      34.822 -16.527 -20.397  0.00  0.00    -0.079 HD
BRANCH   3  12
ATOM     11  N   UNL     1      34.318 -20.873 -19.960  0.00  0.00    +0.385 N 
ATOM     12  C   UNL     1      34.256 -18.262 -21.280  0.00  0.00    -0.062 C 
ATOM     13  C   UNL     1      33.028 -18.854 -20.583  0.00  0.00    -0.044 C 
ATOM     14  C   UNL     1      35.534 -18.836 -20.663  0.00  0.00    -0.044 C 
ATOM     15  C   UNL     1      33.081 -20.384 -20.585  0.00  0.00    -0.080 C 
ATOM     16  C   UNL     1      35.505 -20.366 -20.662  0.00  0.00    -0.080 C 
ATOM     17  C   UNL     1      34.331 -22.335 -19.925  0.00  0.00    -0.101 C 
ATOM     18  H   UNL     1      34.346 -20.522 -19.003  0.00  0.00    -0.080 HD
ENDBRANCH   3  12
ENDBRANCH   1   9
BRANCH   1  19
ATOM     19  C   UNL     1      33.425 -13.019 -24.995  0.00  0.00    +0.004 C 
ATOM     20  C   UNL     1      33.655 -12.293 -26.159  0.00  0.00    -0.002 C 
ATOM     21  C   UNL     1      33.004 -14.341 -25.054  0.00  0.00    -0.002 C 
ATOM     22  C   UNL     1      33.460 -12.900 -27.399  0.00  0.00    -0.000 C 
ATOM     23  C   UNL     1      32.809 -14.949 -26.295  0.00  0.00    -0.000 C 
ATOM     24  C   UNL     1      33.038 -14.228 -27.467  0.00  0.00    -0.000 C 
ENDBRANCH   1  19
BRANCH   1  26
ATOM     25  O   UNL     1      35.290 -10.050 -24.037  0.00  0.00    -0.270 OA
ATOM     26  N   UNL     1      33.212 -10.994 -23.622  0.00  0.00    -0.291 N 
ATOM     27  C   UNL     1      34.088  -9.930 -23.817  0.00  0.00    +0.246 C 
ATOM     28  H   UNL     1      32.263 -10.798 -23.451  0.00  0.00    +0.150 HD
BRANCH  27  30
ATOM     29  N   UNL     1      30.862  -6.579 -22.059  0.00  0.00    -0.312 N 
ATOM     30  C   UNL     1      33.500  -8.570 -23.721  0.00  0.00    +0.055 C 
ATOM     31  C   UNL     1      32.431  -8.378 -22.865  0.00  0.00    +0.019 C 
ATOM     32  C   UNL     1      34.045  -7.562 -24.487  0.00  0.00    +0.005 C 
ATOM     33  C   UNL     1      31.907  -7.081 -22.802  0.00  0.00    +0.048 C 
ATOM     34  C   UNL     1      32.421  -6.025 -23.557  0.00  0.00    +0.015 C 
ATOM     35  C   UNL     1      33.510  -6.270 -24.415  0.00  0.00    +0.001 C 
ATOM     36  C   UNL     1      31.649  -4.871 -23.239  0.00  0.00    +0.017 C 
ATOM     37  C   UNL     1      30.699  -5.244 -22.317  0.00  0.00    +0.062 C 
ATOM     38  H   UNL     1      30.313  -7.104 -21.434  0.00  0.00    +0.152 HD
ENDBRANCH  27  30
ENDBRANCH   1  26
TORSDOF 5
ENDMDL
MODEL 2
REMARK VINA RESULT:     -10.2      2.322      4.442
REMARK  Name = 9939865
REMARK  5 active torsions:
REMARK  status: ('A' for Active; 'I' for Inactive)
REMARK    1  A    between atoms: C_1  and  C_9
REMARK    2  A    between atoms: C_1  and  C_19
REMARK    3  A    between atoms: C_1  and  N_26
REMARK    4  A    between atoms: N_3  and  C_12
REMARK    5  A    between atoms: C_27  and  C_30
REMARK                            x       y       z     vdW  Elec       q    Type
REMARK                         _______ _______ _______ _____ _____    ______ ____
ROOT
ATOM      1  C   UNL     1      31.983  -9.916 -22.879  0.00  0.00    +0.172 C 
ENDROOT
BRANCH   1   9
ATOM      2  O   UNL     1      34.200  -9.902 -23.714  0.00  0.00    -0.273 OA
ATOM      3  N   UNL     1      33.391 -14.801 -23.450  0.00  0.00    +0.390 N 
ATOM      4  N   UNL     1      33.122 -11.958 -23.670  0.00  0.00    -0.282 N 
ATOM      5  C   UNL     1      34.577 -13.952 -23.632  0.00  0.00    -0.055 C 
ATOM      6  C   UNL     1      32.361 -14.090 -22.678  0.00  0.00    -0.055 C 
ATOM      7  C   UNL     1      34.209 -12.657 -24.354  0.00  0.00    +0.071 C 
ATOM      8  C   UNL     1      31.952 -12.792 -23.378  0.00  0.00    +0.071 C 
ATOM      9  C   UNL     1      33.204 -10.583 -23.460  0.00  0.00    +0.248 C 
ATOM     10  H   UNL     1      33.009 -15.024 -24.369  0.00  0.00    -0.079 HD
BRANCH   3  12
ATOM     11  N   UNL     1      35.815 -17.857 -21.761  0.00  0.00    +0.385 N 
ATOM     12  C   UNL     1      33.753 -16.054 -22.790  0.00  0.00    -0.062 C 
ATOM     13  C   UNL     1      34.515 -15.768 -21.492  0.00  0.00    -0.044 C 
ATOM     14  C   UNL     1      34.602 -16.934 -23.710  0.00  0.00    -0.044 C 
ATOM     15  C   UNL     1      34.989 -17.068 -20.837  0.00  0.00    -0.080 C 
ATOM     16  C   UNL     1      35.074 -18.196 -22.983  0.00  0.00    -0.080 C 
ATOM     17  C   UNL     1      36.301 -19.070 -21.105  0.00  0.00    -0.101 C 
ATOM     18  H   UNL     1      36.617 -17.287 -22.030  0.00  0.00    -0.080 HD
ENDBRANCH   3  12
ENDBRANCH   1   9
BRANCH   1  19
ATOM     19  C   UNL     1      31.870 -10.148 -21.399  0.00  0.00    +0.004 C 
ATOM     20  C   UNL     1      32.324  -9.177 -20.514  0.00  0.00    -0.002 C 
ATOM     21  C   UNL     1      31.314 -11.332 -20.930  0.00  0.00    -0.002 C 
ATOM     22  C   UNL     1      32.219  -9.393 -19.140  0.00  0.00    -0.000 C 
ATOM     23  C   UNL     1      31.208 -11.548 -19.556  0.00  0.00    -0.000 C 
ATOM     24  C   UNL     1      31.661 -10.579 -18.661  0.00  0.00    -0.000 C 
ENDBRANCH   1  19
BRANCH   1  26
ATOM     25  O   UNL     1      29.841  -8.156 -23.623  0.00  0.00    -0.270 OA
ATOM     26  N   UNL     1      32.097  -8.529 -23.231  0.00  0.00    -0.291 N 
ATOM     27  C   UNL     1      30.999  -7.748 -23.580  0.00  0.00    +0.246 C 
ATOM     28  H   UNL     1      32.988  -8.112 -23.225  0.00  0.00    +0.150 HD
BRANCH  27  30
ATOM     29  N   UNL     1      30.903  -2.836 -22.817  0.00  0.00    -0.312 N 
ATOM     30  C   UNL     1      31.286  -6.337 -23.945  0.00  0.00    +0.055 C 
ATOM     31  C   UNL     1      30.880  -5.342 -23.076  0.00  0.00    +0.019 C 
ATOM     32  C   UNL     1      31.943  -6.085 -25.130  0.00  0.00    +0.005 C 
ATOM     33  C   UNL     1      31.171  -4.026 -23.455  0.00  0.00    +0.048 C 
ATOM     34  C   UNL     1      31.834  -3.714 -24.644  0.00  0.00    +0.015 C 
ATOM     35  C   UNL     1      32.227  -4.764 -25.498  0.00  0.00    +0.001 C 
ATOM     36  C   UNL     1      31.955  -2.297 -24.696  0.00  0.00    +0.017 C 
ATOM     37  C   UNL     1      31.372  -1.786 -23.559  0.00  0.00    +0.062 C 
ATOM     38  H   UNL     1      30.441  -2.753 -21.952  0.00  0.00    +0.152 HD
ENDBRANCH  27  30
ENDBRANCH   1  26
TORSDOF 5
ENDMDL
MODEL 3
REMARK VINA RESULT:     -10.0      2.505      4.823
REMARK  Name = 9939865
REMARK  5 active torsions:
REMARK  status: ('A' for Active; 'I' for Inactive)
REMARK    1  A    between atoms: C_1  and  C_9
REMARK    2  A    between atoms: C_1  and  C_19
REMARK    3  A    between atoms: C_1  and  N_26
REMARK    4  A    between atoms: N_3  and  C_12
REMARK    5  A    between atoms: C_27  and  C_30
REMARK                            x       y       z     vdW  Elec       q    Type
REMARK                         _______ _______ _______ _____ _____    ______ ____
ROOT
ATOM      1  C   UNL     1      31.992  -9.583 -23.000  0.00  0.00    +0.172 C 
ENDROOT
BRANCH   1   9
ATOM      2  O   UNL     1      34.210  -9.621 -23.833  0.00  0.00    -0.273 OA
ATOM      3  N   UNL     1      33.305 -14.501 -23.520  0.00  0.00    +0.390 N 
ATOM      4  N   UNL     1      33.092 -11.655 -23.770  0.00  0.00    -0.282 N 
ATOM      5  C   UNL     1      34.508 -13.677 -23.709  0.00  0.00    -0.055 C 
ATOM      6  C   UNL     1      32.289 -13.762 -22.757  0.00  0.00    -0.055 C 
ATOM      7  C   UNL     1      34.165 -12.382 -24.445  0.00  0.00    +0.071 C 
ATOM      8  C   UNL     1      31.905 -12.463 -23.470  0.00  0.00    +0.071 C 
ATOM      9  C   UNL     1      33.200 -10.280 -23.573  0.00  0.00    +0.248 C 
ATOM     10  H   UNL     1      32.919 -14.725 -24.438  0.00  0.00    -0.079 HD
BRANCH   3  12
ATOM     11  N   UNL     1      35.668 -17.601 -21.826  0.00  0.00    +0.385 N 
ATOM     12  C   UNL     1      33.642 -15.753 -22.846  0.00  0.00    -0.062 C 
ATOM     13  C   UNL     1      34.435 -15.471 -21.567  0.00  0.00    -0.044 C 
ATOM     14  C   UNL     1      34.447 -16.673 -23.768  0.00  0.00    -0.044 C 
ATOM     15  C   UNL     1      34.882 -16.774 -20.900  0.00  0.00    -0.080 C 
ATOM     16  C   UNL     1      34.894 -17.937 -23.029  0.00  0.00    -0.080 C 
ATOM     17  C   UNL     1      36.129 -18.818 -21.159  0.00  0.00    -0.101 C 
ATOM     18  H   UNL     1      36.481 -17.059 -22.117  0.00  0.00    -0.080 HD
ENDBRANCH   3  12
ENDBRANCH   1   9
BRANCH   1  19
ATOM     19  C   UNL     1      31.867  -9.807 -21.520  0.00  0.00    +0.004 C 
ATOM     20  C   UNL     1      31.203 -10.934 -21.050  0.00  0.00    -0.002 C 
ATOM     21  C   UNL     1      32.416  -8.886 -20.637  0.00  0.00    -0.002 C 
ATOM     22  C   UNL     1      31.087 -11.142 -19.675  0.00  0.00    -0.000 C 
ATOM     23  C   UNL     1      32.302  -9.094 -19.263  0.00  0.00    -0.000 C 
ATOM     24  C   UNL     1      31.637 -10.222 -18.782  0.00  0.00    -0.000 C 
ENDBRANCH   1  19
BRANCH   1  26
ATOM     25  O   UNL     1      29.879  -7.736 -23.605  0.00  0.00    -0.270 OA
ATOM     26  N   UNL     1      32.139  -8.200 -23.358  0.00  0.00    -0.291 N 
ATOM     27  C   UNL     1      31.053  -7.376 -23.636  0.00  0.00    +0.246 C 
ATOM     28  H   UNL     1      33.044  -7.819 -23.408  0.00  0.00    +0.150 HD
BRANCH  27  30
ATOM     29  N   UNL     1      32.937  -3.888 -26.638  0.00  0.00    -0.312 N 
ATOM     30  C   UNL     1      31.373  -5.976 -24.016  0.00  0.00    +0.055 C 
ATOM     31  C   UNL     1      32.027  -5.756 -25.214  0.00  0.00    +0.019 C 
ATOM     32  C   UNL     1      31.003  -4.961 -23.160  0.00  0.00    +0.005 C 
ATOM     33  C   UNL     1      32.308  -4.423 -25.537  0.00  0.00    +0.048 C 
ATOM     34  C   UNL     1      31.956  -3.358 -24.706  0.00  0.00    +0.015 C 
ATOM     35  C   UNL     1      31.291  -3.632 -23.494  0.00  0.00    +0.001 C 
ATOM     36  C   UNL     1      32.395  -2.166 -25.348  0.00  0.00    +0.017 C 
ATOM     37  C   UNL     1      32.994  -2.524 -26.533  0.00  0.00    +0.062 C 
ATOM     38  H   UNL     1      33.294  -4.411 -27.392  0.00  0.00    +0.152 HD
ENDBRANCH  27  30
ENDBRANCH   1  26
TORSDOF 5
ENDMDL
MODEL 4
REMARK VINA RESULT:      -9.6      1.927     10.195
REMARK  Name = 9939865
REMARK  5 active torsions:
REMARK  status: ('A' for Active; 'I' for Inactive)
REMARK    1  A    between atoms: C_1  and  C_9
REMARK    2  A    between atoms: C_1  and  C_19
REMARK    3  A    between atoms: C_1  and  N_26
REMARK    4  A    between atoms: N_3  and  C_12
REMARK    5  A    between atoms: C_27  and  C_30
REMARK                            x       y       z     vdW  Elec       q    Type
REMARK                         _______ _______ _______ _____ _____    ______ ____
ROOT
ATOM      1  C   UNL     1      33.044 -12.454 -23.873  0.00  0.00    +0.172 C 
ENDROOT
BRANCH   1   9
ATOM      2  O   UNL     1      33.094 -12.301 -21.509  0.00  0.00    -0.273 OA
ATOM      3  N   UNL     1      31.298  -7.804 -22.644  0.00  0.00    +0.390 N 
ATOM      4  N   UNL     1      32.026 -10.575 -22.638  0.00  0.00    -0.282 N 
ATOM      5  C   UNL     1      31.854  -8.426 -21.434  0.00  0.00    -0.055 C 
ATOM      6  C   UNL     1      31.865  -8.427 -23.850  0.00  0.00    -0.055 C 
ATOM      7  C   UNL     1      31.561  -9.925 -21.413  0.00  0.00    +0.071 C 
ATOM      8  C   UNL     1      31.577  -9.930 -23.876  0.00  0.00    +0.071 C 
ATOM      9  C   UNL     1      32.726 -11.777 -22.564  0.00  0.00    +0.248 C 
ATOM     10  H   UNL     1      30.289  -7.951 -22.649  0.00  0.00    -0.079 HD
BRANCH   3  12
ATOM     11  N   UNL     1      30.733  -3.661 -23.407  0.00  0.00    +0.385 N 
ATOM     12  C   UNL     1      31.552  -6.364 -22.644  0.00  0.00    -0.062 C 
ATOM     13  C   UNL     1      30.412  -5.626 -21.936  0.00  0.00    -0.044 C 
ATOM     14  C   UNL     1      31.710  -5.835 -24.072  0.00  0.00    -0.044 C 
ATOM     15  C   UNL     1      30.610  -4.110 -22.013  0.00  0.00    -0.080 C 
ATOM     16  C   UNL     1      31.865  -4.312 -24.079  0.00  0.00    -0.080 C 
ATOM     17  C   UNL     1      30.871  -2.206 -23.466  0.00  0.00    -0.101 C 
ATOM     18  H   UNL     1      29.880  -3.929 -23.899  0.00  0.00    -0.080 HD
ENDBRANCH   3  12
ENDBRANCH   1   9
BRANCH   1  19
ATOM     19  C   UNL     1      33.981 -11.633 -24.713  0.00  0.00    +0.004 C 
ATOM     20  C   UNL     1      34.119 -11.918 -26.067  0.00  0.00    -0.002 C 
ATOM     21  C   UNL     1      34.700 -10.598 -24.128  0.00  0.00    -0.002 C 
ATOM     22  C   UNL     1      34.988 -11.156 -26.847  0.00  0.00    -0.000 C 
ATOM     23  C   UNL     1      35.569  -9.835 -24.908  0.00  0.00    -0.000 C 
ATOM     24  C   UNL     1      35.713 -10.114 -26.268  0.00  0.00    -0.000 C 
ENDBRANCH   1  19
BRANCH   1  26
ATOM     25  O   UNL     1      32.965 -14.832 -25.479  0.00  0.00    -0.270 OA
ATOM     26  N   UNL     1      33.572 -13.742 -23.523  0.00  0.00    -0.291 N 
ATOM     27  C   UNL     1      33.488 -14.845 -24.368  0.00  0.00    +0.246 C 
ATOM     28  H   UNL     1      34.012 -13.851 -22.650  0.00  0.00    +0.150 HD
BRANCH  27  30
ATOM     29  N   UNL     1      35.320 -17.782 -20.798  0.00  0.00    -0.312 N 
ATOM     30  C   UNL     1      34.059 -16.114 -23.849  0.00  0.00    +0.055 C 
ATOM     31  C   UNL     1      34.376 -16.188 -22.505  0.00  0.00    +0.019 C 
ATOM     32  C   UNL     1      34.245 -17.159 -24.728  0.00  0.00    +0.005 C 
ATOM     33  C   UNL     1      34.910 -17.402 -22.056  0.00  0.00    +0.048 C 
ATOM     34  C   UNL     1      35.119 -18.492 -22.904  0.00  0.00    +0.015 C 
ATOM     35  C   UNL     1      34.780 -18.368 -24.265  0.00  0.00    +0.001 C 
ATOM     36  C   UNL     1      35.666 -19.538 -22.110  0.00  0.00    +0.017 C 
ATOM     37  C   UNL     1      35.779 -19.072 -20.821  0.00  0.00    +0.062 C 
ATOM     38  H   UNL     1      35.287 -17.209 -19.999  0.00  0.00    +0.152 HD
ENDBRANCH  27  30
ENDBRANCH   1  26
TORSDOF 5
ENDMDL
MODEL 5
REMARK VINA RESULT:      -9.5      8.191     13.019
REMARK  Name = 9939865
REMARK  5 active torsions:
REMARK  status: ('A' for Active; 'I' for Inactive)
REMARK    1  A    between atoms: C_1  and  C_9
REMARK    2  A    between atoms: C_1  and  C_19
REMARK    3  A    between atoms: C_1  and  N_26
REMARK    4  A    between atoms: N_3  and  C_12
REMARK    5  A    between atoms: C_27  and  C_30
REMARK                            x       y       z     vdW  Elec       q    Type
REMARK                         _______ _______ _______ _____ _____    ______ ____
ROOT
ATOM      1  C   UNL     1      32.410 -23.796 -16.154  0.00  0.00    +0.172 C 
ENDROOT
BRANCH   1   9
ATOM      2  O   UNL     1      32.204 -23.539 -13.807  0.00  0.00    -0.273 OA
ATOM      3  N   UNL     1      37.154 -23.427 -14.274  0.00  0.00    +0.390 N 
ATOM      4  N   UNL     1      34.328 -23.244 -14.701  0.00  0.00    -0.282 N 
ATOM      5  C   UNL     1      36.219 -23.574 -13.149  0.00  0.00    -0.055 C 
ATOM      6  C   UNL     1      36.554 -23.943 -15.514  0.00  0.00    -0.055 C 
ATOM      7  C   UNL     1      34.916 -22.827 -13.429  0.00  0.00    +0.071 C 
ATOM      8  C   UNL     1      35.252 -23.208 -15.839  0.00  0.00    +0.071 C 
ATOM      9  C   UNL     1      32.963 -23.514 -14.780  0.00  0.00    +0.248 C 
ATOM     10  H   UNL     1      37.353 -22.434 -14.401  0.00  0.00    -0.079 HD
BRANCH   3  12
ATOM     11  N   UNL     1      40.099 -26.492 -14.237  0.00  0.00    +0.385 N 
ATOM     12  C   UNL     1      38.413 -24.113 -13.990  0.00  0.00    -0.062 C 
ATOM     13  C   UNL     1      39.126 -24.477 -15.295  0.00  0.00    -0.044 C 
ATOM     14  C   UNL     1      38.173 -25.375 -13.156  0.00  0.00    -0.044 C 
ATOM     15  C   UNL     1      40.397 -25.284 -15.019  0.00  0.00    -0.080 C 
ATOM     16  C   UNL     1      39.475 -26.154 -12.951  0.00  0.00    -0.080 C 
ATOM     17  C   UNL     1      41.314 -27.277 -14.025  0.00  0.00    -0.101 C 
ATOM     18  H   UNL     1      39.434 -27.055 -14.769  0.00  0.00    -0.080 HD
ENDBRANCH   3  12
ENDBRANCH   1   9
BRANCH   1  19
ATOM     19  C   UNL     1      30.909 -23.744 -16.173  0.00  0.00    +0.004 C 
ATOM     20  C   UNL     1      30.177 -24.866 -15.798  0.00  0.00    -0.002 C 
ATOM     21  C   UNL     1      30.267 -22.577 -16.567  0.00  0.00    -0.002 C 
ATOM     22  C   UNL     1      28.783 -24.817 -15.816  0.00  0.00    -0.000 C 
ATOM     23  C   UNL     1      28.873 -22.527 -16.584  0.00  0.00    -0.000 C 
ATOM     24  C   UNL     1      28.131 -23.648 -16.209  0.00  0.00    -0.000 C 
ENDBRANCH   1  19
BRANCH   1  26
ATOM     25  O   UNL     1      33.502 -24.294 -18.761  0.00  0.00    -0.270 OA
ATOM     26  N   UNL     1      33.025 -22.834 -17.023  0.00  0.00    -0.291 N 
ATOM     27  C   UNL     1      33.530 -23.166 -18.276  0.00  0.00    +0.246 C 
ATOM     28  H   UNL     1      33.094 -21.900 -16.720  0.00  0.00    +0.150 HD
BRANCH  27  30
ATOM     29  N   UNL     1      33.436 -19.093 -21.128  0.00  0.00    -0.312 N 
ATOM     30  C   UNL     1      34.161 -22.061 -19.043  0.00  0.00    +0.055 C 
ATOM     31  C   UNL     1      33.336 -21.156 -19.686  0.00  0.00    +0.019 C 
ATOM     32  C   UNL     1      35.536 -21.988 -19.080  0.00  0.00    +0.005 C 
ATOM     33  C   UNL     1      33.970 -20.130 -20.396  0.00  0.00    +0.048 C 
ATOM     34  C   UNL     1      35.359 -20.009 -20.465  0.00  0.00    +0.015 C 
ATOM     35  C   UNL     1      36.157 -20.956 -19.794  0.00  0.00    +0.001 C 
ATOM     36  C   UNL     1      35.639 -18.864 -21.263  0.00  0.00    +0.017 C 
ATOM     37  C   UNL     1      34.437 -18.323 -21.655  0.00  0.00    +0.062 C 
ATOM     38  H   UNL     1      32.474 -18.930 -21.253  0.00  0.00    +0.152 HD
ENDBRANCH  27  30
ENDBRANCH   1  26
TORSDOF 5
ENDMDL
MODEL 6
REMARK VINA RESULT:      -8.9      1.642     10.020
REMARK  Name = 9939865
REMARK  5 active torsions:
REMARK  status: ('A' for Active; 'I' for Inactive)
REMARK    1  A    between atoms: C_1  and  C_9
REMARK    2  A    between atoms: C_1  and  C_19
REMARK    3  A    between atoms: C_1  and  N_26
REMARK    4  A    between atoms: N_3  and  C_12
REMARK    5  A    between atoms: C_27  and  C_30
REMARK                            x       y       z     vdW  Elec       q    Type
REMARK                         _______ _______ _______ _____ _____    ______ ____
ROOT
ATOM      1  C   UNL     1      32.127 -13.588 -22.637  0.00  0.00    +0.172 C 
ENDROOT
BRANCH   1   9
ATOM      2  O   UNL     1      33.034 -13.052 -20.515  0.00  0.00    -0.273 OA
ATOM      3  N   UNL     1      31.441  -8.564 -21.950  0.00  0.00    +0.390 N 
ATOM      4  N   UNL     1      31.823 -11.379 -21.578  0.00  0.00    -0.282 N 
ATOM      5  C   UNL     1      32.323  -9.063 -20.884  0.00  0.00    -0.055 C 
ATOM      6  C   UNL     1      31.469  -9.470 -23.108  0.00  0.00    -0.055 C 
ATOM      7  C   UNL     1      31.898 -10.462 -20.442  0.00  0.00    +0.071 C 
ATOM      8  C   UNL     1      31.033 -10.882 -22.709  0.00  0.00    +0.071 C 
ATOM      9  C   UNL     1      32.371 -12.656 -21.478  0.00  0.00    +0.248 C 
ATOM     10  H   UNL     1      30.487  -8.530 -21.590  0.00  0.00    -0.079 HD
BRANCH   3  12
ATOM     11  N   UNL     1      31.309  -4.799 -23.919  0.00  0.00    +0.385 N 
ATOM     12  C   UNL     1      31.829  -7.212 -22.347  0.00  0.00    -0.062 C 
ATOM     13  C   UNL     1      30.731  -6.213 -21.971  0.00  0.00    -0.044 C 
ATOM     14  C   UNL     1      32.107  -7.141 -23.851  0.00  0.00    -0.044 C 
ATOM     15  C   UNL     1      31.076  -4.807 -22.468  0.00  0.00    -0.080 C 
ATOM     16  C   UNL     1      32.406  -5.704 -24.287  0.00  0.00    -0.080 C 
ATOM     17  C   UNL     1      31.587  -3.442 -24.385  0.00  0.00    -0.101 C 
ATOM     18  H   UNL     1      30.460  -5.135 -24.375  0.00  0.00    -0.080 HD
ENDBRANCH   3  12
ENDBRANCH   1   9
BRANCH   1  19
ATOM     19  C   UNL     1      32.801 -13.109 -23.891  0.00  0.00    +0.004 C 
ATOM     20  C   UNL     1      32.590 -13.786 -25.087  0.00  0.00    -0.002 C 
ATOM     21  C   UNL     1      33.628 -11.994 -23.843  0.00  0.00    -0.002 C 
ATOM     22  C   UNL     1      33.216 -13.341 -26.251  0.00  0.00    -0.000 C 
ATOM     23  C   UNL     1      34.254 -11.548 -25.007  0.00  0.00    -0.000 C 
ATOM     24  C   UNL     1      34.048 -12.221 -26.211  0.00  0.00    -0.000 C 
ENDBRANCH   1  19
BRANCH   1  26
ATOM     25  O   UNL     1      34.821 -14.573 -22.735  0.00  0.00    -0.270 OA
ATOM     26  N   UNL     1      32.584 -14.876 -22.200  0.00  0.00    -0.291 N 
ATOM     27  C   UNL     1      33.916 -15.271 -22.286  0.00  0.00    +0.246 C 
ATOM     28  H   UNL     1      31.929 -15.507 -21.825  0.00  0.00    +0.150 HD
BRANCH  27  30
ATOM     29  N   UNL     1      32.727 -19.700 -20.363  0.00  0.00    -0.312 N 
ATOM     30  C   UNL     1      34.224 -16.646 -21.817  0.00  0.00    +0.055 C 
ATOM     31  C   UNL     1      33.187 -17.418 -21.325  0.00  0.00    +0.019 C 
ATOM     32  C   UNL     1      35.526 -17.090 -21.893  0.00  0.00    +0.005 C 
ATOM     33  C   UNL     1      33.519 -18.708 -20.894  0.00  0.00    +0.048 C 
ATOM     34  C   UNL     1      34.822 -19.207 -20.949  0.00  0.00    +0.015 C 
ATOM     35  C   UNL     1      35.845 -18.383 -21.458  0.00  0.00    +0.001 C 
ATOM     36  C   UNL     1      34.782 -20.534 -20.435  0.00  0.00    +0.017 C 
ATOM     37  C   UNL     1      33.481 -20.807 -20.082  0.00  0.00    +0.062 C 
ATOM     38  H   UNL     1      31.758 -19.624 -20.208  0.00  0.00    +0.152 HD
ENDBRANCH  27  30
ENDBRANCH   1  26
TORSDOF 5
ENDMDL
MODEL 7
REMARK VINA RESULT:      -8.8      7.835     14.086
REMARK  Name = 9939865
REMARK  5 active torsions:
REMARK  status: ('A' for Active; 'I' for Inactive)
REMARK    1  A    between atoms: C_1  and  C_9
REMARK    2  A    between atoms: C_1  and  C_19
REMARK    3  A    between atoms: C_1  and  N_26
REMARK    4  A    between atoms: N_3  and  C_12
REMARK    5  A    between atoms: C_27  and  C_30
REMARK                            x       y       z     vdW  Elec       q    Type
REMARK                         _______ _______ _______ _____ _____    ______ ____
ROOT
ATOM      1  C   UNL     1      36.631 -23.875 -15.795  0.00  0.00    +0.172 C 
ENDROOT
BRANCH   1   9
ATOM      2  O   UNL     1      38.482 -22.395 -15.817  0.00  0.00    -0.273 OA
ATOM      3  N   UNL     1      35.723 -20.408 -19.446  0.00  0.00    +0.390 N 
ATOM      4  N   UNL     1      36.655 -21.790 -17.117  0.00  0.00    -0.282 N 
ATOM      5  C   UNL     1      37.112 -20.250 -18.991  0.00  0.00    -0.055 C 
ATOM      6  C   UNL     1      35.229 -21.758 -19.136  0.00  0.00    -0.055 C 
ATOM      7  C   UNL     1      37.219 -20.493 -17.487  0.00  0.00    +0.071 C 
ATOM      8  C   UNL     1      35.304 -22.035 -17.633  0.00  0.00    +0.071 C 
ATOM      9  C   UNL     1      37.344 -22.623 -16.237  0.00  0.00    +0.248 C 
ATOM     10  H   UNL     1      35.142 -19.730 -18.952  0.00  0.00    -0.079 HD
BRANCH   3  12
ATOM     11  N   UNL     1      34.978 -18.301 -23.062  0.00  0.00    +0.385 N 
ATOM     12  C   UNL     1      35.619 -20.142 -20.880  0.00  0.00    -0.062 C 
ATOM     13  C   UNL     1      36.545 -18.987 -21.273  0.00  0.00    -0.044 C 
ATOM     14  C   UNL     1      34.177 -19.812 -21.274  0.00  0.00    -0.044 C 
ATOM     15  C   UNL     1      36.376 -18.629 -22.752  0.00  0.00    -0.080 C 
ATOM     16  C   UNL     1      34.086 -19.426 -22.752  0.00  0.00    -0.080 C 
ATOM     17  C   UNL     1      34.843 -17.912 -24.465  0.00  0.00    -0.101 C 
ATOM     18  H   UNL     1      34.703 -17.512 -22.476  0.00  0.00    -0.080 HD
ENDBRANCH   3  12
ENDBRANCH   1   9
BRANCH   1  19
ATOM     19  C   UNL     1      37.251 -24.465 -14.561  0.00  0.00    +0.004 C 
ATOM     20  C   UNL     1      38.018 -25.621 -14.662  0.00  0.00    -0.002 C 
ATOM     21  C   UNL     1      37.052 -23.850 -13.331  0.00  0.00    -0.002 C 
ATOM     22  C   UNL     1      38.594 -26.168 -13.516  0.00  0.00    -0.000 C 
ATOM     23  C   UNL     1      37.629 -24.397 -12.184  0.00  0.00    -0.000 C 
ATOM     24  C   UNL     1      38.400 -25.556 -12.277  0.00  0.00    -0.000 C 
ENDBRANCH   1  19
BRANCH   1  26
ATOM     25  O   UNL     1      34.478 -25.576 -14.951  0.00  0.00    -0.270 OA
ATOM     26  N   UNL     1      35.258 -23.495 -15.618  0.00  0.00    -0.291 N 
ATOM     27  C   UNL     1      34.277 -24.391 -15.204  0.00  0.00    +0.246 C 
ATOM     28  H   UNL     1      35.000 -22.563 -15.796  0.00  0.00    +0.150 HD
BRANCH  27  30
ATOM     29  N   UNL     1      29.958 -22.772 -17.063  0.00  0.00    -0.312 N 
ATOM     30  C   UNL     1      32.898 -23.849 -15.094  0.00  0.00    +0.055 C 
ATOM     31  C   UNL     1      32.192 -23.614 -16.259  0.00  0.00    +0.019 C 
ATOM     32  C   UNL     1      32.386 -23.605 -13.838  0.00  0.00    +0.005 C 
ATOM     33  C   UNL     1      30.897 -23.105 -16.112  0.00  0.00    +0.048 C 
ATOM     34  C   UNL     1      30.329 -22.840 -14.864  0.00  0.00    +0.015 C 
ATOM     35  C   UNL     1      31.088 -23.095 -13.705  0.00  0.00    +0.001 C 
ATOM     36  C   UNL     1      29.018 -22.339 -15.100  0.00  0.00    +0.017 C 
ATOM     37  C   UNL     1      28.820 -22.308 -16.461  0.00  0.00    +0.062 C 
ATOM     38  H   UNL     1      30.088 -22.856 -18.035  0.00  0.00    +0.152 HD
ENDBRANCH  27  30
ENDBRANCH   1  26
TORSDOF 5
ENDMDL
MODEL 8
REMARK VINA RESULT:      -8.4      2.765      5.469
REMARK  Name = 9939865
REMARK  5 active torsions:
REMARK  status: ('A' for Active; 'I' for Inactive)
REMARK    1  A    between atoms: C_1  and  C_9
REMARK    2  A    between atoms: C_1  and  C_19
REMARK    3  A    between atoms: C_1  and  N_26
REMARK    4  A    between atoms: N_3  and  C_12
REMARK    5  A    between atoms: C_27  and  C_30
REMARK                            x       y       z     vdW  Elec       q    Type
REMARK                         _______ _______ _______ _____ _____    ______ ____
ROOT
ATOM      1  C   UNL     1      32.379  -8.575 -23.485  0.00  0.00    +0.172 C 
ENDROOT
BRANCH   1   9
ATOM      2  O   UNL     1      34.595  -8.882 -24.265  0.00  0.00    -0.273 OA
ATOM      3  N   UNL     1      33.188 -13.621 -23.727  0.00  0.00    +0.390 N 
ATOM      4  N   UNL     1      33.273 -10.786 -24.124  0.00  0.00    -0.282 N 
ATOM      5  C   UNL     1      34.472 -12.934 -23.930  0.00  0.00    -0.055 C 
ATOM      6  C   UNL     1      32.240 -12.743 -23.025  0.00  0.00    -0.055 C 
ATOM      7  C   UNL     1      34.277 -11.652 -24.738  0.00  0.00    +0.071 C 
ATOM      8  C   UNL     1      32.004 -11.452 -23.811  0.00  0.00    +0.071 C 
ATOM      9  C   UNL     1      33.518  -9.420 -23.995  0.00  0.00    +0.248 C 
ATOM     10  H   UNL     1      32.798 -13.853 -24.640  0.00  0.00    -0.079 HD
BRANCH   3  12
ATOM     11  N   UNL     1      35.190 -16.854 -21.827  0.00  0.00    +0.385 N 
ATOM     12  C   UNL     1      33.382 -14.864 -22.983  0.00  0.00    -0.062 C 
ATOM     13  C   UNL     1      34.179 -14.597 -21.703  0.00  0.00    -0.044 C 
ATOM     14  C   UNL     1      34.104 -15.908 -23.840  0.00  0.00    -0.044 C 
ATOM     15  C   UNL     1      34.478 -15.903 -20.962  0.00  0.00    -0.080 C 
ATOM     16  C   UNL     1      34.406 -17.171 -23.028  0.00  0.00    -0.080 C 
ATOM     17  C   UNL     1      35.513 -18.074 -21.089  0.00  0.00    -0.101 C 
ATOM     18  H   UNL     1      36.060 -16.414 -22.128  0.00  0.00    -0.080 HD
ENDBRANCH   3  12
ENDBRANCH   1   9
BRANCH   1  19
ATOM     19  C   UNL     1      32.399  -8.453 -21.988  0.00  0.00    +0.004 C 
ATOM     20  C   UNL     1      33.042  -7.372 -21.395  0.00  0.00    -0.002 C 
ATOM     21  C   UNL     1      31.775  -9.422 -21.212  0.00  0.00    -0.002 C 
ATOM     22  C   UNL     1      33.061  -7.260 -20.005  0.00  0.00    -0.000 C 
ATOM     23  C   UNL     1      31.792  -9.308 -19.822  0.00  0.00    -0.000 C 
ATOM     24  C   UNL     1      32.435  -8.227 -19.218  0.00  0.00    -0.000 C 
ENDBRANCH   1  19
BRANCH   1  26
ATOM     25  O   UNL     1      30.525  -6.386 -23.376  0.00  0.00    -0.270 OA
ATOM     26  N   UNL     1      32.500  -7.314 -24.162  0.00  0.00    -0.291 N 
ATOM     27  C   UNL     1      31.548  -6.306 -24.051  0.00  0.00    +0.246 C 
ATOM     28  H   UNL     1      33.290  -7.157 -24.727  0.00  0.00    +0.150 HD
BRANCH  27  30
ATOM     29  N   UNL     1      33.404  -3.778 -27.909  0.00  0.00    -0.312 N 
ATOM     30  C   UNL     1      31.806  -5.071 -24.835  0.00  0.00    +0.055 C 
ATOM     31  C   UNL     1      32.520  -5.181 -26.014  0.00  0.00    +0.019 C 
ATOM     32  C   UNL     1      31.323  -3.873 -24.353  0.00  0.00    +0.005 C 
ATOM     33  C   UNL     1      32.740  -3.995 -26.723  0.00  0.00    +0.048 C 
ATOM     34  C   UNL     1      32.273  -2.755 -26.280  0.00  0.00    +0.015 C 
ATOM     35  C   UNL     1      31.551  -2.694 -25.072  0.00  0.00    +0.001 C 
ATOM     36  C   UNL     1      32.679  -1.788 -27.243  0.00  0.00    +0.017 C 
ATOM     37  C   UNL     1      33.372  -2.447 -28.232  0.00  0.00    +0.062 C 
ATOM     38  H   UNL     1      33.837  -4.477 -28.448  0.00  0.00    +0.152 HD
ENDBRANCH  27  30
ENDBRANCH   1  26
TORSDOF 5
ENDMDL
