MODEL 1
REMARK VINA RESULT:      -6.7      0.000      0.000
REMARK  Name = 439213
REMARK  6 active torsions:
REMARK  status: ('A' for Active; 'I' for Inactive)
REMARK    1  A    between atoms: C_2  and  O_11
REMARK    2  A    between atoms: C_3  and  O_13
REMARK    3  A    between atoms: C_4  and  N_7
REMARK    4  A    between atoms: C_5  and  C_17
REMARK    5  A    between atoms: C_6  and  O_15
REMARK    6  A    between atoms: C_17  and  O_18
REMARK                            x       y       z     vdW  Elec       q    Type
REMARK                         _______ _______ _______ _____ _____    ______ ____
ROOT
ATOM      1  O   UNL     1      39.228 -24.477 -13.134  0.00  0.00    -0.329 OA
ATOM      2  C   UNL     1      36.688 -24.841 -14.422  0.00  0.00    +0.125 C 
ATOM      3  C   UNL     1      37.996 -25.357 -15.029  0.00  0.00    +0.165 C 
ATOM      4  C   UNL     1      36.950 -23.695 -13.439  0.00  0.00    +0.022 C 
ATOM      5  C   UNL     1      39.024 -25.647 -13.930  0.00  0.00    +0.176 C 
ATOM      6  C   UNL     1      38.049 -24.069 -12.438  0.00  0.00    +0.213 C 
ENDROOT
BRANCH   4   7
ATOM      7  N   UNL     1      35.712 -23.363 -12.727  0.00  0.00    +0.387 N 
ATOM      8  H   UNL     1      34.925 -23.411 -13.374  0.00  0.00    -0.089 HD
ATOM      9  H   UNL     1      35.783 -22.419 -12.346  0.00  0.00    -0.089 HD
ATOM     10  H   UNL     1      35.570 -24.027 -11.966  0.00  0.00    -0.089 HD
ENDBRANCH   4   7
BRANCH   2  11
ATOM     11  O   UNL     1      35.848 -24.363 -15.474  0.00  0.00    -0.384 OA
ATOM     12  H   UNL     1      35.090 -24.960 -15.579  0.00  0.00    +0.210 HD
ENDBRANCH   2  11
BRANCH   3  13
ATOM     13  O   UNL     1      37.704 -26.543 -15.762  0.00  0.00    -0.380 OA
ATOM     14  H   UNL     1      38.287 -27.259 -15.464  0.00  0.00    +0.211 HD
ENDBRANCH   3  13
BRANCH   6  15
ATOM     15  O   UNL     1      38.346 -22.925 -11.639  0.00  0.00    -0.362 OA
ATOM     16  H   UNL     1      37.522 -22.476 -11.398  0.00  0.00    +0.213 HD
ENDBRANCH   6  15
BRANCH   5  17
ATOM     17  C   UNL     1      40.380 -26.048 -14.500  0.00  0.00    +0.169 C 
BRANCH  17  18
ATOM     18  O   UNL     1      40.362 -25.834 -15.900  0.00  0.00    -0.379 OA
ATOM     19  H   UNL     1      40.972 -25.113 -16.125  0.00  0.00    +0.211 HD
ENDBRANCH  17  18
ENDBRANCH   5  17
TORSDOF 6
ENDMDL
MODEL 2
REMARK VINA RESULT:      -5.9      1.316      3.026
REMARK  Name = 439213
REMARK  6 active torsions:
REMARK  status: ('A' for Active; 'I' for Inactive)
REMARK    1  A    between atoms: C_2  and  O_11
REMARK    2  A    between atoms: C_3  and  O_13
REMARK    3  A    between atoms: C_4  and  N_7
REMARK    4  A    between atoms: C_5  and  C_17
REMARK    5  A    between atoms: C_6  and  O_15
REMARK    6  A    between atoms: C_17  and  O_18
REMARK                            x       y       z     vdW  Elec       q    Type
REMARK                         _______ _______ _______ _____ _____    ______ ____
ROOT
ATOM      1  O   UNL     1      37.961 -25.991 -14.957  0.00  0.00    -0.329 OA
ATOM      2  C   UNL     1      37.030 -24.500 -12.687  0.00  0.00    +0.125 C 
ATOM      3  C   UNL     1      38.499 -24.895 -12.862  0.00  0.00    +0.165 C 
ATOM      4  C   UNL     1      36.111 -25.426 -13.491  0.00  0.00    +0.022 C 
ATOM      5  C   UNL     1      38.845 -25.048 -14.346  0.00  0.00    +0.176 C 
ATOM      6  C   UNL     1      36.598 -25.564 -14.938  0.00  0.00    +0.213 C 
ENDROOT
BRANCH   4   7
ATOM      7  N   UNL     1      34.742 -24.901 -13.469  0.00  0.00    +0.387 N 
ATOM      8  H   UNL     1      34.122 -25.548 -13.958  0.00  0.00    -0.089 HD
ATOM      9  H   UNL     1      34.719 -23.992 -13.931  0.00  0.00    -0.089 HD
ATOM     10  H   UNL     1      34.433 -24.799 -12.502  0.00  0.00    -0.089 HD
ENDBRANCH   4   7
BRANCH   2  11
ATOM     11  O   UNL     1      36.688 -24.597 -11.304  0.00  0.00    -0.384 OA
ATOM     12  H   UNL     1      36.203 -25.423 -11.148  0.00  0.00    +0.210 HD
ENDBRANCH   2  11
BRANCH   3  13
ATOM     13  O   UNL     1      39.303 -23.880 -12.266  0.00  0.00    -0.380 OA
ATOM     14  H   UNL     1      39.564 -23.236 -12.943  0.00  0.00    +0.211 HD
ENDBRANCH   3  13
BRANCH   6  15
ATOM     15  O   UNL     1      35.790 -26.537 -15.599  0.00  0.00    -0.362 OA
ATOM     16  H   UNL     1      35.211 -26.970 -14.953  0.00  0.00    +0.213 HD
ENDBRANCH   6  15
BRANCH   5  17
ATOM     17  C   UNL     1      40.266 -25.558 -14.559  0.00  0.00    +0.169 C 
BRANCH  17  18
ATOM     18  O   UNL     1      40.424 -25.898 -15.925  0.00  0.00    -0.379 OA
ATOM     19  H   UNL     1      40.086 -26.794 -16.076  0.00  0.00    +0.211 HD
ENDBRANCH  17  18
ENDBRANCH   5  17
TORSDOF 6
ENDMDL
MODEL 3
REMARK VINA RESULT:      -5.9      1.954      2.154
REMARK  Name = 439213
REMARK  6 active torsions:
REMARK  status: ('A' for Active; 'I' for Inactive)
REMARK    1  A    between atoms: C_2  and  O_11
REMARK    2  A    between atoms: C_3  and  O_13
REMARK    3  A    between atoms: C_4  and  N_7
REMARK    4  A    between atoms: C_5  and  C_17
REMARK    5  A    between atoms: C_6  and  O_15
REMARK    6  A    between atoms: C_17  and  O_18
REMARK                            x       y       z     vdW  Elec       q    Type
REMARK                         _______ _______ _______ _____ _____    ______ ____
ROOT
ATOM      1  O   UNL     1      38.700 -23.788 -15.370  0.00  0.00    -0.329 OA
ATOM      2  C   UNL     1      36.381 -25.331 -14.671  0.00  0.00    +0.125 C 
ATOM      3  C   UNL     1      37.770 -25.959 -14.819  0.00  0.00    +0.165 C 
ATOM      4  C   UNL     1      36.285 -24.017 -15.454  0.00  0.00    +0.022 C 
ATOM      5  C   UNL     1      38.864 -24.928 -14.523  0.00  0.00    +0.176 C 
ATOM      6  C   UNL     1      37.470 -23.099 -15.137  0.00  0.00    +0.213 C 
ENDROOT
BRANCH   4   7
ATOM      7  N   UNL     1      35.024 -23.342 -15.130  0.00  0.00    +0.387 N 
ATOM      8  H   UNL     1      34.241 -23.906 -15.461  0.00  0.00    -0.089 HD
ATOM      9  H   UNL     1      35.002 -22.428 -15.584  0.00  0.00    -0.089 HD
ATOM     10  H   UNL     1      34.954 -23.221 -14.120  0.00  0.00    -0.089 HD
ENDBRANCH   4   7
BRANCH   2  11
ATOM     11  O   UNL     1      35.406 -26.243 -15.178  0.00  0.00    -0.384 OA
ATOM     12  H   UNL     1      35.768 -26.706 -15.951  0.00  0.00    +0.210 HD
ENDBRANCH   2  11
BRANCH   3  13
ATOM     13  O   UNL     1      37.859 -27.053 -13.910  0.00  0.00    -0.380 OA
ATOM     14  H   UNL     1      37.242 -26.912 -13.175  0.00  0.00    +0.211 HD
ENDBRANCH   3  13
BRANCH   6  15
ATOM     15  O   UNL     1      37.402 -21.956 -15.989  0.00  0.00    -0.362 OA
ATOM     16  H   UNL     1      38.169 -21.386 -15.828  0.00  0.00    +0.213 HD
ENDBRANCH   6  15
BRANCH   5  17
ATOM     17  C   UNL     1      40.262 -25.481 -14.777  0.00  0.00    +0.169 C 
BRANCH  17  18
ATOM     18  O   UNL     1      40.342 -25.905 -16.126  0.00  0.00    -0.379 OA
ATOM     19  H   UNL     1      40.061 -26.832 -16.191  0.00  0.00    +0.211 HD
ENDBRANCH  17  18
ENDBRANCH   5  17
TORSDOF 6
ENDMDL
MODEL 4
REMARK VINA RESULT:      -5.9      2.260      4.799
REMARK  Name = 439213
REMARK  6 active torsions:
REMARK  status: ('A' for Active; 'I' for Inactive)
REMARK    1  A    between atoms: C_2  and  O_11
REMARK    2  A    between atoms: C_3  and  O_13
REMARK    3  A    between atoms: C_4  and  N_7
REMARK    4  A    between atoms: C_5  and  C_17
REMARK    5  A    between atoms: C_6  and  O_15
REMARK    6  A    between atoms: C_17  and  O_18
REMARK                            x       y       z     vdW  Elec       q    Type
REMARK                         _______ _______ _______ _____ _____    ______ ____
ROOT
ATOM      1  O   UNL     1      35.540 -25.471 -15.665  0.00  0.00    -0.329 OA
ATOM      2  C   UNL     1      37.408 -24.715 -13.621  0.00  0.00    +0.125 C 
ATOM      3  C   UNL     1      36.258 -23.803 -14.058  0.00  0.00    +0.165 C 
ATOM      4  C   UNL     1      37.761 -25.723 -14.720  0.00  0.00    +0.022 C 
ATOM      5  C   UNL     1      35.089 -24.630 -14.601  0.00  0.00    +0.176 C 
ATOM      6  C   UNL     1      36.506 -26.433 -15.239  0.00  0.00    +0.213 C 
ENDROOT
BRANCH   4   7
ATOM      7  N   UNL     1      38.716 -26.706 -14.199  0.00  0.00    +0.387 N 
ATOM      8  H   UNL     1      38.214 -27.542 -13.900  0.00  0.00    -0.089 HD
ATOM      9  H   UNL     1      39.215 -26.306 -13.403  0.00  0.00    -0.089 HD
ATOM     10  H   UNL     1      39.383 -26.951 -14.930  0.00  0.00    -0.089 HD
ENDBRANCH   4   7
BRANCH   2  11
ATOM     11  O   UNL     1      38.556 -23.910 -13.346  0.00  0.00    -0.384 OA
ATOM     12  H   UNL     1      39.273 -24.152 -13.954  0.00  0.00    +0.210 HD
ENDBRANCH   2  11
BRANCH   3  13
ATOM     13  O   UNL     1      35.846 -23.040 -12.928  0.00  0.00    -0.380 OA
ATOM     14  H   UNL     1      35.380 -23.616 -12.302  0.00  0.00    +0.211 HD
ENDBRANCH   3  13
BRANCH   6  15
ATOM     15  O   UNL     1      36.873 -27.255 -16.346  0.00  0.00    -0.362 OA
ATOM     16  H   UNL     1      37.788 -27.063 -16.602  0.00  0.00    +0.213 HD
ENDBRANCH   6  15
BRANCH   5  17
ATOM     17  C   UNL     1      33.972 -23.755 -15.159  0.00  0.00    +0.169 C 
BRANCH  17  18
ATOM     18  O   UNL     1      33.293 -23.144 -14.076  0.00  0.00    -0.379 OA
ATOM     19  H   UNL     1      33.080 -22.226 -14.305  0.00  0.00    +0.211 HD
ENDBRANCH  17  18
ENDBRANCH   5  17
TORSDOF 6
ENDMDL
MODEL 5
REMARK VINA RESULT:      -5.9      1.990      2.154
REMARK  Name = 439213
REMARK  6 active torsions:
REMARK  status: ('A' for Active; 'I' for Inactive)
REMARK    1  A    between atoms: C_2  and  O_11
REMARK    2  A    between atoms: C_3  and  O_13
REMARK    3  A    between atoms: C_4  and  N_7
REMARK    4  A    between atoms: C_5  and  C_17
REMARK    5  A    between atoms: C_6  and  O_15
REMARK    6  A    between atoms: C_17  and  O_18
REMARK                            x       y       z     vdW  Elec       q    Type
REMARK                         _______ _______ _______ _____ _____    ______ ____
ROOT
ATOM      1  O   UNL     1      38.423 -23.750 -13.310  0.00  0.00    -0.329 OA
ATOM      2  C   UNL     1      36.356 -25.072 -11.819  0.00  0.00    +0.125 C 
ATOM      3  C   UNL     1      36.838 -25.581 -13.181  0.00  0.00    +0.165 C 
ATOM      4  C   UNL     1      36.662 -23.580 -11.649  0.00  0.00    +0.022 C 
ATOM      5  C   UNL     1      38.293 -25.169 -13.428  0.00  0.00    +0.176 C 
ATOM      6  C   UNL     1      38.123 -23.274 -11.997  0.00  0.00    +0.213 C 
ENDROOT
BRANCH   4   7
ATOM      7  N   UNL     1      36.378 -23.173 -10.269  0.00  0.00    +0.387 N 
ATOM      8  H   UNL     1      35.573 -22.546 -10.259  0.00  0.00    -0.089 HD
ATOM      9  H   UNL     1      37.190 -22.691  -9.883  0.00  0.00    -0.089 HD
ATOM     10  H   UNL     1      36.173 -23.999  -9.707  0.00  0.00    -0.089 HD
ENDBRANCH   4   7
BRANCH   2  11
ATOM     11  O   UNL     1      34.944 -25.267 -11.727  0.00  0.00    -0.384 OA
ATOM     12  H   UNL     1      34.743 -25.811 -10.949  0.00  0.00    +0.210 HD
ENDBRANCH   2  11
BRANCH   3  13
ATOM     13  O   UNL     1      36.715 -27.001 -13.190  0.00  0.00    -0.380 OA
ATOM     14  H   UNL     1      37.069 -27.350 -14.023  0.00  0.00    +0.211 HD
ENDBRANCH   3  13
BRANCH   6  15
ATOM     15  O   UNL     1      38.315 -21.861 -11.953  0.00  0.00    -0.362 OA
ATOM     16  H   UNL     1      39.161 -21.636 -12.371  0.00  0.00    +0.213 HD
ENDBRANCH   6  15
BRANCH   5  17
ATOM     17  C   UNL     1      38.772 -25.553 -14.824  0.00  0.00    +0.169 C 
BRANCH  17  18
ATOM     18  O   UNL     1      39.322 -26.857 -14.770  0.00  0.00    -0.379 OA
ATOM     19  H   UNL     1      38.657 -27.474 -14.428  0.00  0.00    +0.211 HD
ENDBRANCH  17  18
ENDBRANCH   5  17
TORSDOF 6
ENDMDL
MODEL 6
REMARK VINA RESULT:      -5.8      1.928      3.289
REMARK  Name = 439213
REMARK  6 active torsions:
REMARK  status: ('A' for Active; 'I' for Inactive)
REMARK    1  A    between atoms: C_2  and  O_11
REMARK    2  A    between atoms: C_3  and  O_13
REMARK    3  A    between atoms: C_4  and  N_7
REMARK    4  A    between atoms: C_5  and  C_17
REMARK    5  A    between atoms: C_6  and  O_15
REMARK    6  A    between atoms: C_17  and  O_18
REMARK                            x       y       z     vdW  Elec       q    Type
REMARK                         _______ _______ _______ _____ _____    ______ ____
ROOT
ATOM      1  O   UNL     1      36.622 -24.818 -15.462  0.00  0.00    -0.329 OA
ATOM      2  C   UNL     1      35.537 -24.454 -12.828  0.00  0.00    +0.125 C 
ATOM      3  C   UNL     1      36.749 -25.351 -13.099  0.00  0.00    +0.165 C 
ATOM      4  C   UNL     1      34.693 -24.271 -14.093  0.00  0.00    +0.022 C 
ATOM      5  C   UNL     1      37.508 -24.874 -14.341  0.00  0.00    +0.176 C 
ATOM      6  C   UNL     1      35.568 -23.870 -15.287  0.00  0.00    +0.213 C 
ENDROOT
BRANCH   4   7
ATOM      7  N   UNL     1      33.665 -23.252 -13.857  0.00  0.00    +0.387 N 
ATOM      8  H   UNL     1      33.985 -22.356 -14.226  0.00  0.00    -0.089 HD
ATOM      9  H   UNL     1      33.496 -23.166 -12.855  0.00  0.00    -0.089 HD
ATOM     10  H   UNL     1      32.802 -23.525 -14.326  0.00  0.00    -0.089 HD
ENDBRANCH   4   7
BRANCH   2  11
ATOM     11  O   UNL     1      34.731 -25.061 -11.818  0.00  0.00    -0.384 OA
ATOM     12  H   UNL     1      34.762 -24.522 -11.012  0.00  0.00    +0.210 HD
ENDBRANCH   2  11
BRANCH   3  13
ATOM     13  O   UNL     1      37.594 -25.310 -11.953  0.00  0.00    -0.380 OA
ATOM     14  H   UNL     1      38.352 -24.731 -12.132  0.00  0.00    +0.211 HD
ENDBRANCH   3  13
BRANCH   6  15
ATOM     15  O   UNL     1      34.755 -23.847 -16.459  0.00  0.00    -0.362 OA
ATOM     16  H   UNL     1      33.828 -23.720 -16.208  0.00  0.00    +0.213 HD
ENDBRANCH   6  15
BRANCH   5  17
ATOM     17  C   UNL     1      38.650 -25.812 -14.716  0.00  0.00    +0.169 C 
BRANCH  17  18
ATOM     18  O   UNL     1      38.237 -27.145 -14.474  0.00  0.00    -0.379 OA
ATOM     19  H   UNL     1      38.638 -27.733 -15.133  0.00  0.00    +0.211 HD
ENDBRANCH  17  18
ENDBRANCH   5  17
TORSDOF 6
ENDMDL
MODEL 7
REMARK VINA RESULT:      -5.8     10.540     11.438
REMARK  Name = 439213
REMARK  6 active torsions:
REMARK  status: ('A' for Active; 'I' for Inactive)
REMARK    1  A    between atoms: C_2  and  O_11
REMARK    2  A    between atoms: C_3  and  O_13
REMARK    3  A    between atoms: C_4  and  N_7
REMARK    4  A    between atoms: C_5  and  C_17
REMARK    5  A    between atoms: C_6  and  O_15
REMARK    6  A    between atoms: C_17  and  O_18
REMARK                            x       y       z     vdW  Elec       q    Type
REMARK                         _______ _______ _______ _____ _____    ______ ____
ROOT
ATOM      1  O   UNL     1      35.200 -17.518 -20.687  0.00  0.00    -0.329 OA
ATOM      2  C   UNL     1      34.726 -17.090 -23.486  0.00  0.00    +0.125 C 
ATOM      3  C   UNL     1      35.303 -18.401 -22.943  0.00  0.00    +0.165 C 
ATOM      4  C   UNL     1      34.973 -15.934 -22.512  0.00  0.00    +0.022 C 
ATOM      5  C   UNL     1      34.844 -18.638 -21.501  0.00  0.00    +0.176 C 
ATOM      6  C   UNL     1      34.548 -16.312 -21.089  0.00  0.00    +0.213 C 
ENDROOT
BRANCH   4   7
ATOM      7  N   UNL     1      34.236 -14.747 -22.959  0.00  0.00    +0.387 N 
ATOM      8  H   UNL     1      34.896 -14.004 -23.187  0.00  0.00    -0.089 HD
ATOM      9  H   UNL     1      33.614 -14.434 -22.214  0.00  0.00    -0.089 HD
ATOM     10  H   UNL     1      33.686 -14.981 -23.786  0.00  0.00    -0.089 HD
ENDBRANCH   4   7
BRANCH   2  11
ATOM     11  O   UNL     1      35.358 -16.789 -24.732  0.00  0.00    -0.384 OA
ATOM     12  H   UNL     1      36.283 -16.545 -24.573  0.00  0.00    +0.210 HD
ENDBRANCH   2  11
BRANCH   3  13
ATOM     13  O   UNL     1      34.861 -19.461 -23.787  0.00  0.00    -0.380 OA
ATOM     14  H   UNL     1      34.072 -19.178 -24.275  0.00  0.00    +0.211 HD
ENDBRANCH   3  13
BRANCH   6  15
ATOM     15  O   UNL     1      34.924 -15.256 -20.206  0.00  0.00    -0.362 OA
ATOM     16  H   UNL     1      34.200 -14.615 -20.142  0.00  0.00    +0.213 HD
ENDBRANCH   6  15
BRANCH   5  17
ATOM     17  C   UNL     1      35.495 -19.871 -20.883  0.00  0.00    +0.169 C 
BRANCH  17  18
ATOM     18  O   UNL     1      36.657 -19.464 -20.183  0.00  0.00    -0.379 OA
ATOM     19  H   UNL     1      37.392 -20.057 -20.404  0.00  0.00    +0.211 HD
ENDBRANCH  17  18
ENDBRANCH   5  17
TORSDOF 6
ENDMDL
MODEL 8
REMARK VINA RESULT:      -5.7      2.546      4.718
REMARK  Name = 439213
REMARK  6 active torsions:
REMARK  status: ('A' for Active; 'I' for Inactive)
REMARK    1  A    between atoms: C_2  and  O_11
REMARK    2  A    between atoms: C_3  and  O_13
REMARK    3  A    between atoms: C_4  and  N_7
REMARK    4  A    between atoms: C_5  and  C_17
REMARK    5  A    between atoms: C_6  and  O_15
REMARK    6  A    between atoms: C_17  and  O_18
REMARK                            x       y       z     vdW  Elec       q    Type
REMARK                         _______ _______ _______ _____ _____    ______ ____
ROOT
ATOM      1  O   UNL     1      35.667 -24.002 -14.678  0.00  0.00    -0.329 OA
ATOM      2  C   UNL     1      37.064 -24.947 -12.355  0.00  0.00    +0.125 C 
ATOM      3  C   UNL     1      35.618 -24.443 -12.294  0.00  0.00    +0.165 C 
ATOM      4  C   UNL     1      37.796 -24.375 -13.573  0.00  0.00    +0.022 C 
ATOM      5  C   UNL     1      34.919 -24.644 -13.642  0.00  0.00    +0.176 C 
ATOM      6  C   UNL     1      36.969 -24.564 -14.850  0.00  0.00    +0.213 C 
ENDROOT
BRANCH   4   7
ATOM      7  N   UNL     1      39.100 -25.031 -13.717  0.00  0.00    +0.387 N 
ATOM      8  H   UNL     1      38.996 -25.872 -14.284  0.00  0.00    -0.089 HD
ATOM      9  H   UNL     1      39.456 -25.284 -12.795  0.00  0.00    -0.089 HD
ATOM     10  H   UNL     1      39.752 -24.392 -14.171  0.00  0.00    -0.089 HD
ENDBRANCH   4   7
BRANCH   2  11
ATOM     11  O   UNL     1      37.746 -24.532 -11.170  0.00  0.00    -0.384 OA
ATOM     12  H   UNL     1      37.101 -24.388 -10.460  0.00  0.00    +0.210 HD
ENDBRANCH   2  11
BRANCH   3  13
ATOM     13  O   UNL     1      34.941 -25.167 -11.270  0.00  0.00    -0.380 OA
ATOM     14  H   UNL     1      35.284 -24.897 -10.404  0.00  0.00    +0.211 HD
ENDBRANCH   3  13
BRANCH   6  15
ATOM     15  O   UNL     1      37.631 -23.898 -15.924  0.00  0.00    -0.362 OA
ATOM     16  H   UNL     1      37.215 -23.037 -16.077  0.00  0.00    +0.213 HD
ENDBRANCH   6  15
BRANCH   5  17
ATOM     17  C   UNL     1      33.517 -24.046 -13.660  0.00  0.00    +0.169 C 
BRANCH  17  18
ATOM     18  O   UNL     1      32.608 -25.010 -13.160  0.00  0.00    -0.379 OA
ATOM     19  H   UNL     1      31.920 -24.566 -12.640  0.00  0.00    +0.211 HD
ENDBRANCH  17  18
ENDBRANCH   5  17
TORSDOF 6
ENDMDL
MODEL 9
REMARK VINA RESULT:      -5.7      2.711      4.499
REMARK  Name = 439213
REMARK  6 active torsions:
REMARK  status: ('A' for Active; 'I' for Inactive)
REMARK    1  A    between atoms: C_2  and  O_11
REMARK    2  A    between atoms: C_3  and  O_13
REMARK    3  A    between atoms: C_4  and  N_7
REMARK    4  A    between atoms: C_5  and  C_17
REMARK    5  A    between atoms: C_6  and  O_15
REMARK    6  A    between atoms: C_17  and  O_18
REMARK                            x       y       z     vdW  Elec       q    Type
REMARK                         _______ _______ _______ _____ _____    ______ ____
ROOT
ATOM      1  O   UNL     1      34.192 -24.638 -12.461  0.00  0.00    -0.329 OA
ATOM      2  C   UNL     1      36.534 -24.739 -14.118  0.00  0.00    +0.125 C 
ATOM      3  C   UNL     1      35.117 -24.802 -14.697  0.00  0.00    +0.165 C 
ATOM      4  C   UNL     1      36.550 -25.180 -12.651  0.00  0.00    +0.022 C 
ATOM      5  C   UNL     1      34.126 -24.082 -13.777  0.00  0.00    +0.176 C 
ATOM      6  C   UNL     1      35.468 -24.453 -11.846  0.00  0.00    +0.213 C 
ENDROOT
BRANCH   4   7
ATOM      7  N   UNL     1      37.871 -24.916 -12.072  0.00  0.00    +0.387 N 
ATOM      8  H   UNL     1      38.459 -24.450 -12.764  0.00  0.00    -0.089 HD
ATOM      9  H   UNL     1      38.304 -25.798 -11.796  0.00  0.00    -0.089 HD
ATOM     10  H   UNL     1      37.769 -24.317 -11.253  0.00  0.00    -0.089 HD
ENDBRANCH   4   7
BRANCH   2  11
ATOM     11  O   UNL     1      37.378 -25.611 -14.872  0.00  0.00    -0.384 OA
ATOM     12  H   UNL     1      38.207 -25.153 -15.086  0.00  0.00    +0.210 HD
ENDBRANCH   2  11
BRANCH   3  13
ATOM     13  O   UNL     1      35.138 -24.188 -15.983  0.00  0.00    -0.380 OA
ATOM     14  H   UNL     1      34.909 -24.845 -16.658  0.00  0.00    +0.211 HD
ENDBRANCH   3  13
BRANCH   6  15
ATOM     15  O   UNL     1      35.439 -24.997 -10.527  0.00  0.00    -0.362 OA
ATOM     16  H   UNL     1      36.001 -25.785 -10.490  0.00  0.00    +0.213 HD
ENDBRANCH   6  15
BRANCH   5  17
ATOM     17  C   UNL     1      32.685 -24.226 -14.255  0.00  0.00    +0.169 C 
BRANCH  17  18
ATOM     18  O   UNL     1      32.195 -25.489 -13.840  0.00  0.00    -0.379 OA
ATOM     19  H   UNL     1      32.556 -25.703 -12.965  0.00  0.00    +0.211 HD
ENDBRANCH  17  18
ENDBRANCH   5  17
TORSDOF 6
ENDMDL
