MODEL 1
REMARK VINA RESULT:     -12.0      0.000      0.000
REMARK  Name = 32778
REMARK  7 active torsions:
REMARK  status: ('A' for Active; 'I' for Inactive)
REMARK    1  A    between atoms: C_1  and  S_7
REMARK    2  A    between atoms: C_2  and  C_23
REMARK    3  A    between atoms: S_7  and  N_12
REMARK    4  A    between atoms: N_11  and  N_16
REMARK    5  A    between atoms: C_23  and  C_24
REMARK    6  A    between atoms: C_24  and  N_26
REMARK    7  A    between atoms: C_27  and  C_31
REMARK                            x       y       z     vdW  Elec       q    Type
REMARK                         _______ _______ _______ _____ _____    ______ ____
ROOT
ATOM      1  C   UNL     1      34.417 -21.096 -19.850  0.00  0.00    +0.125 C 
ATOM      2  C   UNL     1      35.272 -18.935 -21.393  0.00  0.00    -0.020 C 
ATOM      3  C   UNL     1      35.778 -20.809 -19.953  0.00  0.00    +0.020 C 
ATOM      4  C   UNL     1      33.484 -20.304 -20.519  0.00  0.00    +0.020 C 
ATOM      5  C   UNL     1      36.206 -19.727 -20.724  0.00  0.00    -0.003 C 
ATOM      6  C   UNL     1      33.911 -19.223 -21.290  0.00  0.00    -0.003 C 
ENDROOT
BRANCH   1   7
ATOM      7  S   UNL     1      33.877 -22.468 -18.875  0.00  0.00    +0.077 S 
ATOM      8  O   UNL     1      34.079 -23.679 -19.646  0.00  0.00    -0.150 OA
ATOM      9  O   UNL     1      32.559 -22.129 -18.369  0.00  0.00    -0.150 OA
BRANCH   7  12
ATOM     10  O   UNL     1      34.285 -24.291 -16.395  0.00  0.00    -0.250 OA
ATOM     11  N   UNL     1      36.077 -23.048 -15.622  0.00  0.00    -0.230 N 
ATOM     12  N   UNL     1      35.003 -22.418 -17.590  0.00  0.00    -0.168 N 
ATOM     13  C   UNL     1      35.063 -23.346 -16.502  0.00  0.00    +0.333 C 
ATOM     14  H   UNL     1      36.660 -22.270 -15.778  0.00  0.00    +0.171 HD
ATOM     15  H   UNL     1      35.666 -21.690 -17.599  0.00  0.00    +0.178 HD
BRANCH  11  16
ATOM     16  N   UNL     1      36.268 -23.857 -14.512  0.00  0.00    -0.205 NA
ATOM     17  C   UNL     1      37.953 -24.519 -11.874  0.00  0.00    +0.002 C 
ATOM     18  C   UNL     1      37.971 -25.896 -12.526  0.00  0.00    +0.002 C 
ATOM     19  C   UNL     1      36.637 -23.764 -12.010  0.00  0.00    +0.019 C 
ATOM     20  C   UNL     1      37.244 -26.042 -13.859  0.00  0.00    +0.019 C 
ATOM     21  C   UNL     1      36.510 -23.014 -13.340  0.00  0.00    +0.092 C 
ATOM     22  C   UNL     1      37.325 -24.835 -14.792  0.00  0.00    +0.092 C 
ENDBRANCH  11  16
ENDBRANCH   7  12
ENDBRANCH   1   7
BRANCH   2  23
ATOM     23  C   UNL     1      35.730 -17.779 -22.216  0.00  0.00    +0.048 C 
BRANCH  23  24
ATOM     24  C   UNL     1      34.666 -17.264 -23.195  0.00  0.00    +0.094 C 
BRANCH  24  26
ATOM     25  O   UNL     1      33.495 -15.297 -24.872  0.00  0.00    -0.268 OA
ATOM     26  N   UNL     1      34.080 -16.024 -22.763  0.00  0.00    -0.299 N 
ATOM     27  C   UNL     1      33.524 -15.110 -23.656  0.00  0.00    +0.267 C 
ATOM     28  H   UNL     1      34.070 -15.814 -21.801  0.00  0.00    +0.150 HD
BRANCH  27  31
ATOM     29  O   UNL     1      32.560 -11.767 -22.856  0.00  0.00    -0.358 OA
ATOM     30  N   UNL     1      33.178 -12.705 -23.675  0.00  0.00    -0.073 NA
ATOM     31  C   UNL     1      32.993 -13.876 -23.059  0.00  0.00    +0.176 C 
ATOM     32  C   UNL     1      32.272 -13.741 -21.860  0.00  0.00    +0.063 C 
ATOM     33  C   UNL     1      32.025 -12.397 -21.779  0.00  0.00    +0.155 C 
ATOM     34  C   UNL     1      31.329 -11.548 -20.802  0.00  0.00    +0.075 C 
ENDBRANCH  27  31
ENDBRANCH  24  26
ENDBRANCH  23  24
ENDBRANCH   2  23
TORSDOF 7
ENDMDL
MODEL 2
REMARK VINA RESULT:     -11.8      0.897      1.332
REMARK  Name = 32778
REMARK  7 active torsions:
REMARK  status: ('A' for Active; 'I' for Inactive)
REMARK    1  A    between atoms: C_1  and  S_7
REMARK    2  A    between atoms: C_2  and  C_23
REMARK    3  A    between atoms: S_7  and  N_12
REMARK    4  A    between atoms: N_11  and  N_16
REMARK    5  A    between atoms: C_23  and  C_24
REMARK    6  A    between atoms: C_24  and  N_26
REMARK    7  A    between atoms: C_27  and  C_31
REMARK                            x       y       z     vdW  Elec       q    Type
REMARK                         _______ _______ _______ _____ _____    ______ ____
ROOT
ATOM      1  C   UNL     1      34.316 -21.084 -19.864  0.00  0.00    +0.125 C 
ATOM      2  C   UNL     1      35.194 -18.952 -21.433  0.00  0.00    -0.020 C 
ATOM      3  C   UNL     1      33.389 -20.253 -20.492  0.00  0.00    +0.020 C 
ATOM      4  C   UNL     1      35.682 -20.848 -20.019  0.00  0.00    +0.020 C 
ATOM      5  C   UNL     1      33.827 -19.188 -21.278  0.00  0.00    -0.003 C 
ATOM      6  C   UNL     1      36.121 -19.783 -20.805  0.00  0.00    -0.003 C 
ENDROOT
BRANCH   1   7
ATOM      7  S   UNL     1      33.759 -22.434 -18.867  0.00  0.00    +0.077 S 
ATOM      8  O   UNL     1      33.965 -23.661 -19.612  0.00  0.00    -0.150 OA
ATOM      9  O   UNL     1      32.437 -22.081 -18.384  0.00  0.00    -0.150 OA
BRANCH   7  12
ATOM     10  O   UNL     1      34.352 -24.384 -16.526  0.00  0.00    -0.250 OA
ATOM     11  N   UNL     1      36.001 -23.023 -15.644  0.00  0.00    -0.230 N 
ATOM     12  N   UNL     1      34.871 -22.363 -17.571  0.00  0.00    -0.168 N 
ATOM     13  C   UNL     1      35.026 -23.359 -16.555  0.00  0.00    +0.333 C 
ATOM     14  H   UNL     1      36.500 -22.178 -15.736  0.00  0.00    +0.171 HD
ATOM     15  H   UNL     1      35.454 -21.571 -17.519  0.00  0.00    +0.178 HD
BRANCH  11  16
ATOM     16  N   UNL     1      36.274 -23.888 -14.596  0.00  0.00    -0.205 NA
ATOM     17  C   UNL     1      37.870 -24.476 -11.886  0.00  0.00    +0.002 C 
ATOM     18  C   UNL     1      38.210 -25.749 -12.650  0.00  0.00    +0.002 C 
ATOM     19  C   UNL     1      36.441 -23.981 -12.072  0.00  0.00    +0.019 C 
ATOM     20  C   UNL     1      37.622 -25.897 -14.049  0.00  0.00    +0.019 C 
ATOM     21  C   UNL     1      36.258 -23.138 -13.338  0.00  0.00    +0.092 C 
ATOM     22  C   UNL     1      37.523 -24.609 -14.864  0.00  0.00    +0.092 C 
ENDBRANCH  11  16
ENDBRANCH   7  12
ENDBRANCH   1   7
BRANCH   2  23
ATOM     23  C   UNL     1      35.662 -17.813 -22.274  0.00  0.00    +0.048 C 
BRANCH  23  24
ATOM     24  C   UNL     1      34.632 -17.354 -23.314  0.00  0.00    +0.094 C 
BRANCH  24  26
ATOM     25  O   UNL     1      33.582 -15.593 -25.276  0.00  0.00    -0.268 OA
ATOM     26  N   UNL     1      34.194 -16.002 -23.091  0.00  0.00    -0.299 N 
ATOM     27  C   UNL     1      33.689 -15.202 -24.114  0.00  0.00    +0.267 C 
ATOM     28  H   UNL     1      34.252 -15.628 -22.182  0.00  0.00    +0.150 HD
BRANCH  27  31
ATOM     29  O   UNL     1      32.296 -12.254 -22.660  0.00  0.00    -0.358 OA
ATOM     30  N   UNL     1      32.410 -13.636 -22.767  0.00  0.00    -0.073 NA
ATOM     31  C   UNL     1      33.315 -13.834 -23.730  0.00  0.00    +0.176 C 
ATOM     32  C   UNL     1      33.802 -12.627 -24.261  0.00  0.00    +0.063 C 
ATOM     33  C   UNL     1      33.130 -11.666 -23.555  0.00  0.00    +0.155 C 
ATOM     34  C   UNL     1      33.137 -10.197 -23.577  0.00  0.00    +0.075 C 
ENDBRANCH  27  31
ENDBRANCH  24  26
ENDBRANCH  23  24
ENDBRANCH   2  23
TORSDOF 7
ENDMDL
MODEL 3
REMARK VINA RESULT:     -11.5      2.522     11.889
REMARK  Name = 32778
REMARK  7 active torsions:
REMARK  status: ('A' for Active; 'I' for Inactive)
REMARK    1  A    between atoms: C_1  and  S_7
REMARK    2  A    between atoms: C_2  and  C_23
REMARK    3  A    between atoms: S_7  and  N_12
REMARK    4  A    between atoms: N_11  and  N_16
REMARK    5  A    between atoms: C_23  and  C_24
REMARK    6  A    between atoms: C_24  and  N_26
REMARK    7  A    between atoms: C_27  and  C_31
REMARK                            x       y       z     vdW  Elec       q    Type
REMARK                         _______ _______ _______ _____ _____    ______ ____
ROOT
ATOM      1  C   UNL     1      34.715 -20.210 -20.567  0.00  0.00    +0.125 C 
ATOM      2  C   UNL     1      34.065 -22.228 -18.755  0.00  0.00    -0.020 C 
ATOM      3  C   UNL     1      35.726 -20.967 -19.975  0.00  0.00    +0.020 C 
ATOM      4  C   UNL     1      33.379 -20.461 -20.253  0.00  0.00    +0.020 C 
ATOM      5  C   UNL     1      35.401 -21.976 -19.069  0.00  0.00    -0.003 C 
ATOM      6  C   UNL     1      33.054 -21.471 -19.348  0.00  0.00    -0.003 C 
ENDROOT
BRANCH   1   7
ATOM      7  S   UNL     1      35.128 -18.929 -21.714  0.00  0.00    +0.077 S 
ATOM      8  O   UNL     1      34.836 -19.409 -23.051  0.00  0.00    -0.150 OA
ATOM      9  O   UNL     1      36.462 -18.474 -21.371  0.00  0.00    -0.150 OA
BRANCH   7  12
ATOM     10  O   UNL     1      35.060 -15.864 -22.200  0.00  0.00    -0.250 OA
ATOM     11  N   UNL     1      33.037 -15.610 -21.106  0.00  0.00    -0.230 N 
ATOM     12  N   UNL     1      33.993 -17.726 -21.283  0.00  0.00    -0.168 N 
ATOM     13  C   UNL     1      34.107 -16.332 -21.584  0.00  0.00    +0.333 C 
ATOM     14  H   UNL     1      32.309 -16.060 -20.619  0.00  0.00    +0.171 HD
ATOM     15  H   UNL     1      33.194 -18.017 -20.785  0.00  0.00    +0.178 HD
BRANCH  11  16
ATOM     16  N   UNL     1      32.997 -14.240 -21.319  0.00  0.00    -0.205 NA
ATOM     17  C   UNL     1      31.269 -11.553 -21.489  0.00  0.00    +0.002 C 
ATOM     18  C   UNL     1      32.010 -11.451 -22.816  0.00  0.00    +0.002 C 
ATOM     19  C   UNL     1      32.103 -12.089 -20.331  0.00  0.00    +0.019 C 
ATOM     20  C   UNL     1      32.990 -12.569 -23.153  0.00  0.00    +0.019 C 
ATOM     21  C   UNL     1      32.161 -13.619 -20.291  0.00  0.00    +0.092 C 
ATOM     22  C   UNL     1      32.578 -13.969 -22.698  0.00  0.00    +0.092 C 
ENDBRANCH  11  16
ENDBRANCH   7  12
ENDBRANCH   1   7
BRANCH   2  23
ATOM     23  C   UNL     1      33.718 -23.308 -17.787  0.00  0.00    +0.048 C 
BRANCH  23  24
ATOM     24  C   UNL     1      34.258 -23.061 -16.372  0.00  0.00    +0.094 C 
BRANCH  24  26
ATOM     25  O   UNL     1      34.686 -24.786 -14.160  0.00  0.00    -0.268 OA
ATOM     26  N   UNL     1      35.454 -23.813 -16.105  0.00  0.00    -0.299 N 
ATOM     27  C   UNL     1      35.583 -24.640 -14.991  0.00  0.00    +0.267 C 
ATOM     28  H   UNL     1      36.210 -23.741 -16.732  0.00  0.00    +0.150 HD
BRANCH  27  31
ATOM     29  O   UNL     1      38.294 -26.947 -14.719  0.00  0.00    -0.358 OA
ATOM     30  N   UNL     1      36.946 -26.648 -14.890  0.00  0.00    -0.073 NA
ATOM     31  C   UNL     1      36.880 -25.315 -14.842  0.00  0.00    +0.176 C 
ATOM     32  C   UNL     1      38.140 -24.724 -14.647  0.00  0.00    +0.063 C 
ATOM     33  C   UNL     1      38.993 -25.793 -14.576  0.00  0.00    +0.155 C 
ATOM     34  C   UNL     1      40.444 -25.924 -14.385  0.00  0.00    +0.075 C 
ENDBRANCH  27  31
ENDBRANCH  24  26
ENDBRANCH  23  24
ENDBRANCH   2  23
TORSDOF 7
ENDMDL
MODEL 4
REMARK VINA RESULT:     -11.0      4.144     10.251
REMARK  Name = 32778
REMARK  7 active torsions:
REMARK  status: ('A' for Active; 'I' for Inactive)
REMARK    1  A    between atoms: C_1  and  S_7
REMARK    2  A    between atoms: C_2  and  C_23
REMARK    3  A    between atoms: S_7  and  N_12
REMARK    4  A    between atoms: N_11  and  N_16
REMARK    5  A    between atoms: C_23  and  C_24
REMARK    6  A    between atoms: C_24  and  N_26
REMARK    7  A    between atoms: C_27  and  C_31
REMARK                            x       y       z     vdW  Elec       q    Type
REMARK                         _______ _______ _______ _____ _____    ______ ____
ROOT
ATOM      1  C   UNL     1      35.460 -21.964 -18.152  0.00  0.00    +0.125 C 
ATOM      2  C   UNL     1      33.752 -23.396 -16.476  0.00  0.00    -0.020 C 
ATOM      3  C   UNL     1      35.866 -22.292 -16.859  0.00  0.00    +0.020 C 
ATOM      4  C   UNL     1      34.200 -22.351 -18.607  0.00  0.00    +0.020 C 
ATOM      5  C   UNL     1      35.013 -23.009 -16.021  0.00  0.00    -0.003 C 
ATOM      6  C   UNL     1      33.346 -23.069 -17.769  0.00  0.00    -0.003 C 
ENDROOT
BRANCH   1   7
ATOM      7  S   UNL     1      36.542 -21.054 -19.213  0.00  0.00    +0.077 S 
ATOM      8  O   UNL     1      37.191 -21.992 -20.109  0.00  0.00    -0.150 OA
ATOM      9  O   UNL     1      37.332 -20.184 -18.361  0.00  0.00    -0.150 OA
BRANCH   7  12
ATOM     10  O   UNL     1      36.914 -18.848 -21.366  0.00  0.00    -0.250 OA
ATOM     11  N   UNL     1      34.636 -18.527 -21.609  0.00  0.00    -0.230 N 
ATOM     12  N   UNL     1      35.420 -20.113 -20.094  0.00  0.00    -0.168 N 
ATOM     13  C   UNL     1      35.754 -19.119 -21.068  0.00  0.00    +0.333 C 
ATOM     14  H   UNL     1      33.736 -18.800 -21.316  0.00  0.00    +0.171 HD
ATOM     15  H   UNL     1      34.463 -20.267 -19.917  0.00  0.00    +0.178 HD
BRANCH  11  16
ATOM     16  N   UNL     1      34.791 -17.541 -22.572  0.00  0.00    -0.205 NA
ATOM     17  C   UNL     1      33.515 -15.128 -24.239  0.00  0.00    +0.002 C 
ATOM     18  C   UNL     1      34.085 -15.945 -25.391  0.00  0.00    +0.002 C 
ATOM     19  C   UNL     1      34.392 -15.078 -22.994  0.00  0.00    +0.019 C 
ATOM     20  C   UNL     1      34.820 -17.232 -25.033  0.00  0.00    +0.019 C 
ATOM     21  C   UNL     1      34.206 -16.293 -22.080  0.00  0.00    +0.092 C 
ATOM     22  C   UNL     1      34.248 -18.012 -23.850  0.00  0.00    +0.092 C 
ENDBRANCH  11  16
ENDBRANCH   7  12
ENDBRANCH   1   7
BRANCH   2  23
ATOM     23  C   UNL     1      32.840 -24.164 -15.580  0.00  0.00    +0.048 C 
BRANCH  23  24
ATOM     24  C   UNL     1      31.883 -23.276 -14.773  0.00  0.00    +0.094 C 
BRANCH  24  26
ATOM     25  O   UNL     1      29.471 -24.755 -14.998  0.00  0.00    -0.268 OA
ATOM     26  N   UNL     1      30.723 -22.892 -15.531  0.00  0.00    -0.299 N 
ATOM     27  C   UNL     1      29.575 -23.680 -15.589  0.00  0.00    +0.267 C 
ATOM     28  H   UNL     1      30.740 -22.042 -16.026  0.00  0.00    +0.150 HD
BRANCH  27  31
ATOM     29  O   UNL     1      27.048 -23.109 -18.045  0.00  0.00    -0.358 OA
ATOM     30  N   UNL     1      28.064 -23.873 -17.482  0.00  0.00    -0.073 NA
ATOM     31  C   UNL     1      28.487 -23.164 -16.432  0.00  0.00    +0.176 C 
ATOM     32  C   UNL     1      27.783 -21.956 -16.284  0.00  0.00    +0.063 C 
ATOM     33  C   UNL     1      26.891 -21.970 -17.323  0.00  0.00    +0.155 C 
ATOM     34  C   UNL     1      25.851 -21.041 -17.782  0.00  0.00    +0.075 C 
ENDBRANCH  27  31
ENDBRANCH  24  26
ENDBRANCH  23  24
ENDBRANCH   2  23
TORSDOF 7
ENDMDL
MODEL 5
REMARK VINA RESULT:     -10.9      2.421     11.680
REMARK  Name = 32778
REMARK  7 active torsions:
REMARK  status: ('A' for Active; 'I' for Inactive)
REMARK    1  A    between atoms: C_1  and  S_7
REMARK    2  A    between atoms: C_2  and  C_23
REMARK    3  A    between atoms: S_7  and  N_12
REMARK    4  A    between atoms: N_11  and  N_16
REMARK    5  A    between atoms: C_23  and  C_24
REMARK    6  A    between atoms: C_24  and  N_26
REMARK    7  A    between atoms: C_27  and  C_31
REMARK                            x       y       z     vdW  Elec       q    Type
REMARK                         _______ _______ _______ _____ _____    ______ ____
ROOT
ATOM      1  C   UNL     1      34.667 -19.793 -20.998  0.00  0.00    +0.125 C 
ATOM      2  C   UNL     1      34.083 -22.008 -19.407  0.00  0.00    -0.020 C 
ATOM      3  C   UNL     1      35.701 -20.588 -20.505  0.00  0.00    +0.020 C 
ATOM      4  C   UNL     1      33.341 -20.104 -20.696  0.00  0.00    +0.020 C 
ATOM      5  C   UNL     1      35.408 -21.696 -19.709  0.00  0.00    -0.003 C 
ATOM      6  C   UNL     1      33.049 -21.212 -19.901  0.00  0.00    -0.003 C 
ENDROOT
BRANCH   1   7
ATOM      7  S   UNL     1      35.038 -18.388 -22.005  0.00  0.00    +0.077 S 
ATOM      8  O   UNL     1      34.682 -18.706 -23.374  0.00  0.00    -0.150 OA
ATOM      9  O   UNL     1      36.390 -17.979 -21.673  0.00  0.00    -0.150 OA
BRANCH   7  12
ATOM     10  O   UNL     1      34.801 -15.315 -22.378  0.00  0.00    -0.250 OA
ATOM     11  N   UNL     1      32.941 -15.167 -21.010  0.00  0.00    -0.230 N 
ATOM     12  N   UNL     1      33.934 -17.240 -21.384  0.00  0.00    -0.168 N 
ATOM     13  C   UNL     1      33.958 -15.835 -21.652  0.00  0.00    +0.333 C 
ATOM     14  H   UNL     1      32.303 -15.657 -20.442  0.00  0.00    +0.171 HD
ATOM     15  H   UNL     1      33.221 -17.574 -20.791  0.00  0.00    +0.178 HD
BRANCH  11  16
ATOM     16  N   UNL     1      32.827 -13.794 -21.171  0.00  0.00    -0.205 NA
ATOM     17  C   UNL     1      30.982 -11.181 -21.095  0.00  0.00    +0.002 C 
ATOM     18  C   UNL     1      31.596 -11.006 -22.478  0.00  0.00    +0.002 C 
ATOM     19  C   UNL     1      31.938 -11.716 -20.034  0.00  0.00    +0.019 C 
ATOM     20  C   UNL     1      32.587 -12.070 -22.938  0.00  0.00    +0.019 C 
ATOM     21  C   UNL     1      32.061 -13.242 -20.052  0.00  0.00    +0.092 C 
ATOM     22  C   UNL     1      32.274 -13.499 -22.497  0.00  0.00    +0.092 C 
ENDBRANCH  11  16
ENDBRANCH   7  12
ENDBRANCH   1   7
BRANCH   2  23
ATOM     23  C   UNL     1      33.771 -23.193 -18.557  0.00  0.00    +0.048 C 
BRANCH  23  24
ATOM     24  C   UNL     1      33.124 -22.832 -17.214  0.00  0.00    +0.094 C 
BRANCH  24  26
ATOM     25  O   UNL     1      32.118 -23.848 -14.763  0.00  0.00    -0.268 OA
ATOM     26  N   UNL     1      33.911 -23.269 -16.092  0.00  0.00    -0.299 N 
ATOM     27  C   UNL     1      33.335 -23.757 -14.921  0.00  0.00    +0.267 C 
ATOM     28  H   UNL     1      34.892 -23.223 -16.155  0.00  0.00    +0.150 HD
BRANCH  27  31
ATOM     29  O   UNL     1      34.946 -24.784 -11.905  0.00  0.00    -0.358 OA
ATOM     30  N   UNL     1      33.811 -24.498 -12.657  0.00  0.00    -0.073 NA
ATOM     31  C   UNL     1      34.275 -24.134 -13.856  0.00  0.00    +0.176 C 
ATOM     32  C   UNL     1      35.678 -24.170 -13.920  0.00  0.00    +0.063 C 
ATOM     33  C   UNL     1      36.051 -24.584 -12.669  0.00  0.00    +0.155 C 
ATOM     34  C   UNL     1      37.347 -24.841 -12.027  0.00  0.00    +0.075 C 
ENDBRANCH  27  31
ENDBRANCH  24  26
ENDBRANCH  23  24
ENDBRANCH   2  23
TORSDOF 7
ENDMDL
MODEL 6
REMARK VINA RESULT:     -10.8      3.400     12.455
REMARK  Name = 32778
REMARK  7 active torsions:
REMARK  status: ('A' for Active; 'I' for Inactive)
REMARK    1  A    between atoms: C_1  and  S_7
REMARK    2  A    between atoms: C_2  and  C_23
REMARK    3  A    between atoms: S_7  and  N_12
REMARK    4  A    between atoms: N_11  and  N_16
REMARK    5  A    between atoms: C_23  and  C_24
REMARK    6  A    between atoms: C_24  and  N_26
REMARK    7  A    between atoms: C_27  and  C_31
REMARK                            x       y       z     vdW  Elec       q    Type
REMARK                         _______ _______ _______ _____ _____    ______ ____
ROOT
ATOM      1  C   UNL     1      34.304 -17.097 -23.714  0.00  0.00    +0.125 C 
ATOM      2  C   UNL     1      34.479 -19.011 -21.692  0.00  0.00    -0.020 C 
ATOM      3  C   UNL     1      34.545 -18.433 -24.037  0.00  0.00    +0.020 C 
ATOM      4  C   UNL     1      34.151 -16.718 -22.380  0.00  0.00    +0.020 C 
ATOM      5  C   UNL     1      34.632 -19.389 -23.026  0.00  0.00    -0.003 C 
ATOM      6  C   UNL     1      34.238 -17.675 -21.369  0.00  0.00    -0.003 C 
ENDROOT
BRANCH   1   7
ATOM      7  S   UNL     1      34.195 -15.885 -24.996  0.00  0.00    +0.077 S 
ATOM      8  O   UNL     1      32.927 -16.059 -25.676  0.00  0.00    -0.150 OA
ATOM      9  O   UNL     1      35.441 -15.946 -25.738  0.00  0.00    -0.150 OA
BRANCH   7  12
ATOM     10  O   UNL     1      33.537 -12.950 -25.763  0.00  0.00    -0.250 OA
ATOM     11  N   UNL     1      33.880 -12.179 -23.609  0.00  0.00    -0.230 N 
ATOM     12  N   UNL     1      34.155 -14.443 -24.079  0.00  0.00    -0.168 N 
ATOM     13  C   UNL     1      33.828 -13.146 -24.587  0.00  0.00    +0.333 C 
ATOM     14  H   UNL     1      34.123 -12.416 -22.685  0.00  0.00    +0.171 HD
ATOM     15  H   UNL     1      34.375 -14.511 -23.121  0.00  0.00    +0.178 HD
BRANCH  11  16
ATOM     16  N   UNL     1      33.586 -10.865 -23.942  0.00  0.00    -0.205 NA
ATOM     17  C   UNL     1      34.159  -7.747 -23.512  0.00  0.00    +0.002 C 
ATOM     18  C   UNL     1      32.645  -7.742 -23.340  0.00  0.00    +0.002 C 
ATOM     19  C   UNL     1      34.677  -8.678 -24.601  0.00  0.00    +0.019 C 
ATOM     20  C   UNL     1      31.926  -9.080 -23.481  0.00  0.00    +0.019 C 
ATOM     21  C   UNL     1      34.837 -10.126 -24.126  0.00  0.00    +0.092 C 
ATOM     22  C   UNL     1      32.679 -10.294 -22.940  0.00  0.00    +0.092 C 
ENDBRANCH  11  16
ENDBRANCH   7  12
ENDBRANCH   1   7
BRANCH   2  23
ATOM     23  C   UNL     1      34.571 -20.034 -20.612  0.00  0.00    +0.048 C 
BRANCH  23  24
ATOM     24  C   UNL     1      33.280 -20.841 -20.419  0.00  0.00    +0.094 C 
BRANCH  24  26
ATOM     25  O   UNL     1      34.089 -23.439 -19.615  0.00  0.00    -0.268 OA
ATOM     26  N   UNL     1      33.170 -21.389 -19.094  0.00  0.00    -0.299 N 
ATOM     27  C   UNL     1      33.593 -22.680 -18.783  0.00  0.00    +0.267 C 
ATOM     28  H   UNL     1      32.782 -20.832 -18.381  0.00  0.00    +0.150 HD
BRANCH  27  31
ATOM     29  O   UNL     1      33.865 -23.886 -15.434  0.00  0.00    -0.358 OA
ATOM     30  N   UNL     1      34.403 -23.592 -16.682  0.00  0.00    -0.073 NA
ATOM     31  C   UNL     1      33.383 -23.103 -17.391  0.00  0.00    +0.176 C 
ATOM     32  C   UNL     1      32.188 -23.065 -16.652  0.00  0.00    +0.063 C 
ATOM     33  C   UNL     1      32.545 -23.568 -15.430  0.00  0.00    +0.155 C 
ATOM     34  C   UNL     1      31.815 -23.816 -14.179  0.00  0.00    +0.075 C 
ENDBRANCH  27  31
ENDBRANCH  24  26
ENDBRANCH  23  24
ENDBRANCH   2  23
TORSDOF 7
ENDMDL
MODEL 7
REMARK VINA RESULT:     -10.7      3.688     10.995
REMARK  Name = 32778
REMARK  7 active torsions:
REMARK  status: ('A' for Active; 'I' for Inactive)
REMARK    1  A    between atoms: C_1  and  S_7
REMARK    2  A    between atoms: C_2  and  C_23
REMARK    3  A    between atoms: S_7  and  N_12
REMARK    4  A    between atoms: N_11  and  N_16
REMARK    5  A    between atoms: C_23  and  C_24
REMARK    6  A    between atoms: C_24  and  N_26
REMARK    7  A    between atoms: C_27  and  C_31
REMARK                            x       y       z     vdW  Elec       q    Type
REMARK                         _______ _______ _______ _____ _____    ______ ____
ROOT
ATOM      1  C   UNL     1      34.773 -19.910 -20.914  0.00  0.00    +0.125 C 
ATOM      2  C   UNL     1      34.128 -22.151 -19.383  0.00  0.00    -0.020 C 
ATOM      3  C   UNL     1      35.787 -20.707 -20.383  0.00  0.00    +0.020 C 
ATOM      4  C   UNL     1      33.436 -20.233 -20.679  0.00  0.00    +0.020 C 
ATOM      5  C   UNL     1      35.465 -21.828 -19.618  0.00  0.00    -0.003 C 
ATOM      6  C   UNL     1      33.114 -21.354 -19.915  0.00  0.00    -0.003 C 
ENDROOT
BRANCH   1   7
ATOM      7  S   UNL     1      35.183 -18.489 -21.882  0.00  0.00    +0.077 S 
ATOM      8  O   UNL     1      34.769 -18.739 -23.249  0.00  0.00    -0.150 OA
ATOM      9  O   UNL     1      36.563 -18.160 -21.580  0.00  0.00    -0.150 OA
BRANCH   7  12
ATOM     10  O   UNL     1      34.765 -15.473 -22.486  0.00  0.00    -0.250 OA
ATOM     11  N   UNL     1      33.162 -15.236 -20.834  0.00  0.00    -0.230 N 
ATOM     12  N   UNL     1      34.157 -17.313 -21.185  0.00  0.00    -0.168 N 
ATOM     13  C   UNL     1      34.080 -15.940 -21.580  0.00  0.00    +0.333 C 
ATOM     14  H   UNL     1      32.650 -15.684 -20.121  0.00  0.00    +0.171 HD
ATOM     15  H   UNL     1      33.571 -17.604 -20.448  0.00  0.00    +0.178 HD
BRANCH  11  16
ATOM     16  N   UNL     1      32.968 -13.889 -21.097  0.00  0.00    -0.205 NA
ATOM     17  C   UNL     1      30.972 -11.391 -21.217  0.00  0.00    +0.002 C 
ATOM     18  C   UNL     1      31.581 -11.283 -22.609  0.00  0.00    +0.002 C 
ATOM     19  C   UNL     1      31.952 -11.788 -20.119  0.00  0.00    +0.019 C 
ATOM     20  C   UNL     1      32.635 -12.318 -22.988  0.00  0.00    +0.019 C 
ATOM     21  C   UNL     1      32.165 -13.301 -20.023  0.00  0.00    +0.092 C 
ATOM     22  C   UNL     1      32.406 -13.726 -22.442  0.00  0.00    +0.092 C 
ENDBRANCH  11  16
ENDBRANCH   7  12
ENDBRANCH   1   7
BRANCH   2  23
ATOM     23  C   UNL     1      33.783 -23.350 -18.567  0.00  0.00    +0.048 C 
BRANCH  23  24
ATOM     24  C   UNL     1      33.430 -23.020 -17.110  0.00  0.00    +0.094 C 
BRANCH  24  26
ATOM     25  O   UNL     1      32.047 -24.141 -14.901  0.00  0.00    -0.268 OA
ATOM     26  N   UNL     1      32.010 -22.973 -16.889  0.00  0.00    -0.299 N 
ATOM     27  C   UNL     1      31.409 -23.552 -15.773  0.00  0.00    +0.267 C 
ATOM     28  H   UNL     1      31.442 -22.514 -17.550  0.00  0.00    +0.150 HD
BRANCH  27  31
ATOM     29  O   UNL     1      27.895 -24.068 -15.412  0.00  0.00    -0.358 OA
ATOM     30  N   UNL     1      29.212 -24.512 -15.378  0.00  0.00    -0.073 NA
ATOM     31  C   UNL     1      29.944 -23.445 -15.709  0.00  0.00    +0.176 C 
ATOM     32  C   UNL     1      29.153 -22.310 -15.959  0.00  0.00    +0.063 C 
ATOM     33  C   UNL     1      27.873 -22.756 -15.759  0.00  0.00    +0.155 C 
ATOM     34  C   UNL     1      26.551 -22.122 -15.843  0.00  0.00    +0.075 C 
ENDBRANCH  27  31
ENDBRANCH  24  26
ENDBRANCH  23  24
ENDBRANCH   2  23
TORSDOF 7
ENDMDL
MODEL 8
REMARK VINA RESULT:     -10.7      2.535     12.005
REMARK  Name = 32778
REMARK  7 active torsions:
REMARK  status: ('A' for Active; 'I' for Inactive)
REMARK    1  A    between atoms: C_1  and  S_7
REMARK    2  A    between atoms: C_2  and  C_23
REMARK    3  A    between atoms: S_7  and  N_12
REMARK    4  A    between atoms: N_11  and  N_16
REMARK    5  A    between atoms: C_23  and  C_24
REMARK    6  A    between atoms: C_24  and  N_26
REMARK    7  A    between atoms: C_27  and  C_31
REMARK                            x       y       z     vdW  Elec       q    Type
REMARK                         _______ _______ _______ _____ _____    ______ ____
ROOT
ATOM      1  C   UNL     1      34.706 -19.669 -21.320  0.00  0.00    +0.125 C 
ATOM      2  C   UNL     1      33.576 -21.320 -19.377  0.00  0.00    -0.020 C 
ATOM      3  C   UNL     1      33.328 -19.653 -21.108  0.00  0.00    +0.020 C 
ATOM      4  C   UNL     1      35.520 -20.510 -20.561  0.00  0.00    +0.020 C 
ATOM      5  C   UNL     1      32.762 -20.478 -20.136  0.00  0.00    -0.003 C 
ATOM      6  C   UNL     1      34.954 -21.335 -19.589  0.00  0.00    -0.003 C 
ENDROOT
BRANCH   1   7
ATOM      7  S   UNL     1      35.421 -18.623 -22.554  0.00  0.00    +0.077 S 
ATOM      8  O   UNL     1      35.259 -19.268 -23.842  0.00  0.00    -0.150 OA
ATOM      9  O   UNL     1      36.742 -18.255 -22.077  0.00  0.00    -0.150 OA
BRANCH   7  12
ATOM     10  O   UNL     1      34.912 -16.270 -24.513  0.00  0.00    -0.250 OA
ATOM     11  N   UNL     1      33.358 -15.279 -23.115  0.00  0.00    -0.230 N 
ATOM     12  N   UNL     1      34.391 -17.263 -22.466  0.00  0.00    -0.168 N 
ATOM     13  C   UNL     1      34.268 -16.249 -23.468  0.00  0.00    +0.333 C 
ATOM     14  H   UNL     1      32.880 -15.333 -22.256  0.00  0.00    +0.171 HD
ATOM     15  H   UNL     1      33.835 -17.168 -21.658  0.00  0.00    +0.178 HD
BRANCH  11  16
ATOM     16  N   UNL     1      33.123 -14.224 -23.984  0.00  0.00    -0.205 NA
ATOM     17  C   UNL     1      33.881 -12.697 -26.691  0.00  0.00    +0.002 C 
ATOM     18  C   UNL     1      33.925 -11.519 -25.726  0.00  0.00    +0.002 C 
ATOM     19  C   UNL     1      32.758 -13.694 -26.431  0.00  0.00    +0.019 C 
ATOM     20  C   UNL     1      33.604 -11.806 -24.263  0.00  0.00    +0.019 C 
ATOM     21  C   UNL     1      33.111 -14.729 -25.358  0.00  0.00    +0.092 C 
ATOM     22  C   UNL     1      34.093 -13.153 -23.732  0.00  0.00    +0.092 C 
ENDBRANCH  11  16
ENDBRANCH   7  12
ENDBRANCH   1   7
BRANCH   2  23
ATOM     23  C   UNL     1      32.971 -22.201 -18.337  0.00  0.00    +0.048 C 
BRANCH  23  24
ATOM     24  C   UNL     1      33.819 -23.439 -18.014  0.00  0.00    +0.094 C 
BRANCH  24  26
ATOM     25  O   UNL     1      35.897 -22.612 -16.268  0.00  0.00    -0.268 OA
ATOM     26  N   UNL     1      33.891 -23.699 -16.602  0.00  0.00    -0.299 N 
ATOM     27  C   UNL     1      34.951 -23.255 -15.814  0.00  0.00    +0.267 C 
ATOM     28  H   UNL     1      33.164 -24.209 -16.175  0.00  0.00    +0.150 HD
BRANCH  27  31
ATOM     29  O   UNL     1      34.041 -24.326 -12.532  0.00  0.00    -0.358 OA
ATOM     30  N   UNL     1      33.746 -24.064 -13.866  0.00  0.00    -0.073 NA
ATOM     31  C   UNL     1      34.893 -23.630 -14.394  0.00  0.00    +0.176 C 
ATOM     32  C   UNL     1      35.937 -23.596 -13.452  0.00  0.00    +0.063 C 
ATOM     33  C   UNL     1      35.349 -24.043 -12.299  0.00  0.00    +0.155 C 
ATOM     34  C   UNL     1      35.833 -24.263 -10.930  0.00  0.00    +0.075 C 
ENDBRANCH  27  31
ENDBRANCH  24  26
ENDBRANCH  23  24
ENDBRANCH   2  23
TORSDOF 7
ENDMDL
MODEL 9
REMARK VINA RESULT:     -10.6      3.356      3.859
REMARK  Name = 32778
REMARK  7 active torsions:
REMARK  status: ('A' for Active; 'I' for Inactive)
REMARK    1  A    between atoms: C_1  and  S_7
REMARK    2  A    between atoms: C_2  and  C_23
REMARK    3  A    between atoms: S_7  and  N_12
REMARK    4  A    between atoms: N_11  and  N_16
REMARK    5  A    between atoms: C_23  and  C_24
REMARK    6  A    between atoms: C_24  and  N_26
REMARK    7  A    between atoms: C_27  and  C_31
REMARK                            x       y       z     vdW  Elec       q    Type
REMARK                         _______ _______ _______ _____ _____    ______ ____
ROOT
ATOM      1  C   UNL     1      34.864 -20.869 -20.053  0.00  0.00    +0.125 C 
ATOM      2  C   UNL     1      35.225 -18.484 -21.455  0.00  0.00    -0.020 C 
ATOM      3  C   UNL     1      36.150 -20.370 -20.260  0.00  0.00    +0.020 C 
ATOM      4  C   UNL     1      33.759 -20.176 -20.548  0.00  0.00    +0.020 C 
ATOM      5  C   UNL     1      36.331 -19.177 -20.960  0.00  0.00    -0.003 C 
ATOM      6  C   UNL     1      33.939 -18.984 -21.248  0.00  0.00    -0.003 C 
ENDROOT
BRANCH   1   7
ATOM      7  S   UNL     1      34.636 -22.381 -19.167  0.00  0.00    +0.077 S 
ATOM      8  O   UNL     1      35.579 -22.406 -18.066  0.00  0.00    -0.150 OA
ATOM      9  O   UNL     1      34.627 -23.447 -20.152  0.00  0.00    -0.150 OA
BRANCH   7  12
ATOM     10  O   UNL     1      33.169 -23.603 -16.719  0.00  0.00    -0.250 OA
ATOM     11  N   UNL     1      31.216 -22.440 -17.153  0.00  0.00    -0.230 N 
ATOM     12  N   UNL     1      33.055 -22.166 -18.555  0.00  0.00    -0.168 N 
ATOM     13  C   UNL     1      32.518 -22.812 -17.397  0.00  0.00    +0.333 C 
ATOM     14  H   UNL     1      30.761 -21.798 -17.745  0.00  0.00    +0.171 HD
ATOM     15  H   UNL     1      32.463 -21.545 -19.041  0.00  0.00    +0.178 HD
BRANCH  11  16
ATOM     16  N   UNL     1      30.552 -22.979 -16.061  0.00  0.00    -0.205 NA
ATOM     17  C   UNL     1      30.604 -24.931 -13.527  0.00  0.00    +0.002 C 
ATOM     18  C   UNL     1      29.323 -25.425 -14.188  0.00  0.00    +0.002 C 
ATOM     19  C   UNL     1      30.813 -23.423 -13.583  0.00  0.00    +0.019 C 
ATOM     20  C   UNL     1      28.897 -24.733 -15.479  0.00  0.00    +0.019 C 
ATOM     21  C   UNL     1      31.442 -22.953 -14.898  0.00  0.00    +0.092 C 
ATOM     22  C   UNL     1      30.034 -24.307 -16.406  0.00  0.00    +0.092 C 
ENDBRANCH  11  16
ENDBRANCH   7  12
ENDBRANCH   1   7
BRANCH   2  23
ATOM     23  C   UNL     1      35.419 -17.208 -22.202  0.00  0.00    +0.048 C 
BRANCH  23  24
ATOM     24  C   UNL     1      34.206 -16.805 -23.051  0.00  0.00    +0.094 C 
BRANCH  24  26
ATOM     25  O   UNL     1      33.561 -14.998 -25.142  0.00  0.00    -0.268 OA
ATOM     26  N   UNL     1      33.866 -15.417 -22.895  0.00  0.00    -0.299 N 
ATOM     27  C   UNL     1      33.561 -14.596 -23.979  0.00  0.00    +0.267 C 
ATOM     28  H   UNL     1      33.847 -15.032 -21.988  0.00  0.00    +0.150 HD
BRANCH  27  31
ATOM     29  O   UNL     1      32.396 -11.512 -22.608  0.00  0.00    -0.358 OA
ATOM     30  N   UNL     1      32.455 -12.901 -22.634  0.00  0.00    -0.073 NA
ATOM     31  C   UNL     1      33.266 -13.193 -23.655  0.00  0.00    +0.176 C 
ATOM     32  C   UNL     1      33.744 -12.041 -24.303  0.00  0.00    +0.063 C 
ATOM     33  C   UNL     1      33.167 -11.012 -23.607  0.00  0.00    +0.155 C 
ATOM     34  C   UNL     1      33.220  -9.550 -23.726  0.00  0.00    +0.075 C 
ENDBRANCH  27  31
ENDBRANCH  24  26
ENDBRANCH  23  24
ENDBRANCH   2  23
TORSDOF 7
ENDMDL
