MODEL 1
REMARK VINA RESULT:      -9.8      0.000      0.000
REMARK  Name = 11414799
REMARK  2 active torsions:
REMARK  status: ('A' for Active; 'I' for Inactive)
REMARK    1  A    between atoms: N_1  and  C_14
REMARK    2  A    between atoms: C_19  and  O_20
REMARK                            x       y       z     vdW  Elec       q    Type
REMARK                         _______ _______ _______ _____ _____    ______ ____
ROOT
ATOM      1  N   UNL     1      35.687 -18.887 -21.372  0.00  0.00    -0.263 N 
ATOM      2  N   UNL     1      35.120 -18.379 -23.598  0.00  0.00    -0.332 NA
ATOM      3  N   UNL     1      34.154 -16.245 -24.165  0.00  0.00    -0.347 NA
ATOM      4  C   UNL     1      35.160 -17.972 -22.316  0.00  0.00    +0.186 C 
ATOM      5  C   UNL     1      34.718 -16.724 -21.884  0.00  0.00    +0.143 C 
ATOM      6  C   UNL     1      34.209 -15.871 -22.875  0.00  0.00    +0.133 C 
ATOM      7  C   UNL     1      37.146 -19.037 -21.306  0.00  0.00    +0.119 C 
ATOM      8  C   UNL     1      34.770 -16.321 -20.538  0.00  0.00    -0.011 C 
ATOM      9  C   UNL     1      34.612 -17.480 -24.457  0.00  0.00    +0.115 C 
ATOM     10  C   UNL     1      33.757 -14.613 -22.480  0.00  0.00    +0.029 C 
ATOM     11  C   UNL     1      34.311 -15.060 -20.172  0.00  0.00    -0.004 C 
ATOM     12  C   UNL     1      33.804 -14.205 -21.145  0.00  0.00    +0.002 C 
ATOM     13  C   UNL     1      34.549 -17.889 -25.889  0.00  0.00    +0.143 C 
ENDROOT
BRANCH   1  14
ATOM     14  C   UNL     1      34.953 -19.860 -20.644  0.00  0.00    +0.054 C 
ATOM     15  C   UNL     1      33.564 -19.807 -20.633  0.00  0.00    +0.018 C 
ATOM     16  C   UNL     1      35.629 -20.856 -19.948  0.00  0.00    +0.018 C 
ATOM     17  C   UNL     1      32.841 -20.762 -19.917  0.00  0.00    +0.038 C 
ATOM     18  C   UNL     1      34.907 -21.811 -19.233  0.00  0.00    +0.038 C 
ATOM     19  C   UNL     1      33.513 -21.764 -19.218  0.00  0.00    +0.139 C 
BRANCH  19  20
ATOM     20  O   UNL     1      32.809 -22.695 -18.519  0.00  0.00    -0.471 OA
ATOM     21  C   UNL     1      33.427 -23.234 -17.350  0.00  0.00    +0.252 C 
ENDBRANCH  19  20
ENDBRANCH   1  14
TORSDOF 2
ENDMDL
MODEL 2
REMARK VINA RESULT:      -9.4      3.464      7.940
REMARK  Name = 11414799
REMARK  2 active torsions:
REMARK  status: ('A' for Active; 'I' for Inactive)
REMARK    1  A    between atoms: N_1  and  C_14
REMARK    2  A    between atoms: C_19  and  O_20
REMARK                            x       y       z     vdW  Elec       q    Type
REMARK                         _______ _______ _______ _____ _____    ______ ____
ROOT
ATOM      1  N   UNL     1      33.971 -22.879 -18.799  0.00  0.00    -0.263 N 
ATOM      2  N   UNL     1      35.329 -23.207 -16.907  0.00  0.00    -0.332 NA
ATOM      3  N   UNL     1      34.359 -23.329 -14.703  0.00  0.00    -0.347 NA
ATOM      4  C   UNL     1      34.087 -23.032 -17.396  0.00  0.00    +0.186 C 
ATOM      5  C   UNL     1      32.940 -22.994 -16.607  0.00  0.00    +0.143 C 
ATOM      6  C   UNL     1      33.134 -23.151 -15.226  0.00  0.00    +0.133 C 
ATOM      7  C   UNL     1      34.060 -24.088 -19.628  0.00  0.00    +0.119 C 
ATOM      8  C   UNL     1      31.653 -22.809 -17.141  0.00  0.00    -0.011 C 
ATOM      9  C   UNL     1      35.392 -23.347 -15.573  0.00  0.00    +0.115 C 
ATOM     10  C   UNL     1      32.009 -23.118 -14.404  0.00  0.00    +0.029 C 
ATOM     11  C   UNL     1      30.548 -22.779 -16.297  0.00  0.00    -0.004 C 
ATOM     12  C   UNL     1      30.726 -22.934 -14.927  0.00  0.00    +0.002 C 
ATOM     13  C   UNL     1      36.748 -23.544 -14.987  0.00  0.00    +0.143 C 
ENDROOT
BRANCH   1  14
ATOM     14  C   UNL     1      34.017 -21.656 -19.518  0.00  0.00    +0.054 C 
ATOM     15  C   UNL     1      35.243 -21.142 -19.923  0.00  0.00    +0.018 C 
ATOM     16  C   UNL     1      32.835 -20.984 -19.812  0.00  0.00    +0.018 C 
ATOM     17  C   UNL     1      35.290 -19.940 -20.630  0.00  0.00    +0.038 C 
ATOM     18  C   UNL     1      32.882 -19.783 -20.520  0.00  0.00    +0.038 C 
ATOM     19  C   UNL     1      34.109 -19.261 -20.928  0.00  0.00    +0.139 C 
BRANCH  19  20
ATOM     20  O   UNL     1      34.154 -18.089 -21.617  0.00  0.00    -0.471 OA
ATOM     21  C   UNL     1      34.957 -17.044 -21.069  0.00  0.00    +0.252 C 
ENDBRANCH  19  20
ENDBRANCH   1  14
TORSDOF 2
ENDMDL
MODEL 3
REMARK VINA RESULT:      -8.7      3.620      8.131
REMARK  Name = 11414799
REMARK  2 active torsions:
REMARK  status: ('A' for Active; 'I' for Inactive)
REMARK    1  A    between atoms: N_1  and  C_14
REMARK    2  A    between atoms: C_19  and  O_20
REMARK                            x       y       z     vdW  Elec       q    Type
REMARK                         _______ _______ _______ _____ _____    ______ ____
ROOT
ATOM      1  N   UNL     1      34.013 -23.271 -18.438  0.00  0.00    -0.263 N 
ATOM      2  N   UNL     1      35.179 -23.742 -16.450  0.00  0.00    -0.332 NA
ATOM      3  N   UNL     1      34.057 -23.666 -14.319  0.00  0.00    -0.347 NA
ATOM      4  C   UNL     1      34.012 -23.403 -17.028  0.00  0.00    +0.186 C 
ATOM      5  C   UNL     1      32.832 -23.180 -16.322  0.00  0.00    +0.143 C 
ATOM      6  C   UNL     1      32.908 -23.328 -14.928  0.00  0.00    +0.133 C 
ATOM      7  C   UNL     1      33.982 -24.501 -19.240  0.00  0.00    +0.119 C 
ATOM      8  C   UNL     1      31.624 -22.826 -16.948  0.00  0.00    -0.011 C 
ATOM      9  C   UNL     1      35.131 -23.854 -15.113  0.00  0.00    +0.115 C 
ATOM     10  C   UNL     1      31.747 -23.113 -14.188  0.00  0.00    +0.029 C 
ATOM     11  C   UNL     1      30.481 -22.616 -16.184  0.00  0.00    -0.004 C 
ATOM     12  C   UNL     1      30.543 -22.760 -14.803  0.00  0.00    +0.002 C 
ATOM     13  C   UNL     1      36.403 -24.229 -14.431  0.00  0.00    +0.143 C 
ENDROOT
BRANCH   1  14
ATOM     14  C   UNL     1      34.284 -22.086 -19.172  0.00  0.00    +0.054 C 
ATOM     15  C   UNL     1      33.235 -21.262 -19.559  0.00  0.00    +0.018 C 
ATOM     16  C   UNL     1      35.597 -21.762 -19.495  0.00  0.00    +0.018 C 
ATOM     17  C   UNL     1      33.500 -20.098 -20.281  0.00  0.00    +0.038 C 
ATOM     18  C   UNL     1      35.863 -20.596 -20.215  0.00  0.00    +0.038 C 
ATOM     19  C   UNL     1      34.815 -19.765 -20.608  0.00  0.00    +0.139 C 
BRANCH  19  20
ATOM     20  O   UNL     1      35.074 -18.630 -21.312  0.00  0.00    -0.471 OA
ATOM     21  C   UNL     1      34.017 -17.678 -21.422  0.00  0.00    +0.252 C 
ENDBRANCH  19  20
ENDBRANCH   1  14
TORSDOF 2
ENDMDL
MODEL 4
REMARK VINA RESULT:      -8.1      8.960     12.652
REMARK  Name = 11414799
REMARK  2 active torsions:
REMARK  status: ('A' for Active; 'I' for Inactive)
REMARK    1  A    between atoms: N_1  and  C_14
REMARK    2  A    between atoms: C_19  and  O_20
REMARK                            x       y       z     vdW  Elec       q    Type
REMARK                         _______ _______ _______ _____ _____    ______ ____
ROOT
ATOM      1  N   UNL     1      32.950  -7.564 -22.166  0.00  0.00    -0.263 N 
ATOM      2  N   UNL     1      31.756  -9.526 -21.654  0.00  0.00    -0.332 NA
ATOM      3  N   UNL     1      32.207 -11.582 -22.828  0.00  0.00    -0.347 NA
ATOM      4  C   UNL     1      32.708  -8.940 -22.404  0.00  0.00    +0.186 C 
ATOM      5  C   UNL     1      33.446  -9.604 -23.380  0.00  0.00    +0.143 C 
ATOM      6  C   UNL     1      33.151 -10.964 -23.560  0.00  0.00    +0.133 C 
ATOM      7  C   UNL     1      33.746  -7.205 -20.985  0.00  0.00    +0.119 C 
ATOM      8  C   UNL     1      34.435  -8.969 -24.152  0.00  0.00    -0.011 C 
ATOM      9  C   UNL     1      31.560 -10.828 -21.914  0.00  0.00    +0.115 C 
ATOM     10  C   UNL     1      33.869 -11.663 -24.528  0.00  0.00    +0.029 C 
ATOM     11  C   UNL     1      35.137  -9.691 -25.112  0.00  0.00    -0.004 C 
ATOM     12  C   UNL     1      34.853 -11.039 -25.300  0.00  0.00    +0.002 C 
ATOM     13  C   UNL     1      30.515 -11.519 -21.106  0.00  0.00    +0.143 C 
ENDROOT
BRANCH   1  14
ATOM     14  C   UNL     1      32.306  -6.474 -22.807  0.00  0.00    +0.054 C 
ATOM     15  C   UNL     1      31.474  -5.637 -22.073  0.00  0.00    +0.018 C 
ATOM     16  C   UNL     1      32.515  -6.252 -24.164  0.00  0.00    +0.018 C 
ATOM     17  C   UNL     1      30.841  -4.566 -22.703  0.00  0.00    +0.038 C 
ATOM     18  C   UNL     1      31.882  -5.180 -24.794  0.00  0.00    +0.038 C 
ATOM     19  C   UNL     1      31.046  -4.337 -24.063  0.00  0.00    +0.139 C 
BRANCH  19  20
ATOM     20  O   UNL     1      30.428  -3.292 -24.678  0.00  0.00    -0.471 OA
ATOM     21  C   UNL     1      31.159  -2.617 -25.702  0.00  0.00    +0.252 C 
ENDBRANCH  19  20
ENDBRANCH   1  14
TORSDOF 2
ENDMDL
MODEL 5
REMARK VINA RESULT:      -7.7      3.993      6.720
REMARK  Name = 11414799
REMARK  2 active torsions:
REMARK  status: ('A' for Active; 'I' for Inactive)
REMARK    1  A    between atoms: N_1  and  C_14
REMARK    2  A    between atoms: C_19  and  O_20
REMARK                            x       y       z     vdW  Elec       q    Type
REMARK                         _______ _______ _______ _____ _____    ______ ____
ROOT
ATOM      1  N   UNL     1      32.903 -13.726 -24.275  0.00  0.00    -0.263 N 
ATOM      2  N   UNL     1      31.718 -12.432 -22.708  0.00  0.00    -0.332 NA
ATOM      3  N   UNL     1      32.293 -10.121 -22.335  0.00  0.00    -0.347 NA
ATOM      4  C   UNL     1      32.707 -12.485 -23.620  0.00  0.00    +0.186 C 
ATOM      5  C   UNL     1      33.525 -11.406 -23.941  0.00  0.00    +0.143 C 
ATOM      6  C   UNL     1      33.272 -10.210 -23.251  0.00  0.00    +0.133 C 
ATOM      7  C   UNL     1      31.973 -14.085 -25.353  0.00  0.00    +0.119 C 
ATOM      8  C   UNL     1      34.553 -11.486 -24.898  0.00  0.00    -0.011 C 
ATOM      9  C   UNL     1      31.568 -11.238 -22.112  0.00  0.00    +0.115 C 
ATOM     10  C   UNL     1      34.071  -9.108 -23.546  0.00  0.00    +0.029 C 
ATOM     11  C   UNL     1      35.336 -10.370 -25.171  0.00  0.00    -0.004 C 
ATOM     12  C   UNL     1      35.095  -9.179 -24.495  0.00  0.00    +0.002 C 
ATOM     13  C   UNL     1      30.484 -11.132 -21.095  0.00  0.00    +0.143 C 
ENDROOT
BRANCH   1  14
ATOM     14  C   UNL     1      33.756 -14.776 -23.846  0.00  0.00    +0.054 C 
ATOM     15  C   UNL     1      34.203 -14.807 -22.531  0.00  0.00    +0.018 C 
ATOM     16  C   UNL     1      34.136 -15.766 -24.746  0.00  0.00    +0.018 C 
ATOM     17  C   UNL     1      35.041 -15.839 -22.109  0.00  0.00    +0.038 C 
ATOM     18  C   UNL     1      34.973 -16.799 -24.324  0.00  0.00    +0.038 C 
ATOM     19  C   UNL     1      35.426 -16.835 -23.006  0.00  0.00    +0.139 C 
BRANCH  19  20
ATOM     20  O   UNL     1      36.244 -17.842 -22.595  0.00  0.00    -0.471 OA
ATOM     21  C   UNL     1      35.926 -18.471 -21.354  0.00  0.00    +0.252 C 
ENDBRANCH  19  20
ENDBRANCH   1  14
TORSDOF 2
ENDMDL
MODEL 6
REMARK VINA RESULT:      -7.4      1.829      3.582
REMARK  Name = 11414799
REMARK  2 active torsions:
REMARK  status: ('A' for Active; 'I' for Inactive)
REMARK    1  A    between atoms: N_1  and  C_14
REMARK    2  A    between atoms: C_19  and  O_20
REMARK                            x       y       z     vdW  Elec       q    Type
REMARK                         _______ _______ _______ _____ _____    ______ ____
ROOT
ATOM      1  N   UNL     1      33.593 -19.340 -20.951  0.00  0.00    -0.263 N 
ATOM      2  N   UNL     1      33.641 -16.990 -20.840  0.00  0.00    -0.332 NA
ATOM      3  N   UNL     1      34.295 -15.682 -22.756  0.00  0.00    -0.347 NA
ATOM      4  C   UNL     1      33.837 -18.096 -21.583  0.00  0.00    +0.186 C 
ATOM      5  C   UNL     1      34.259 -18.075 -22.910  0.00  0.00    +0.143 C 
ATOM      6  C   UNL     1      34.481 -16.806 -23.468  0.00  0.00    +0.133 C 
ATOM      7  C   UNL     1      32.196 -19.766 -20.797  0.00  0.00    +0.119 C 
ATOM      8  C   UNL     1      34.458 -19.244 -23.666  0.00  0.00    -0.011 C 
ATOM      9  C   UNL     1      33.885 -15.835 -21.479  0.00  0.00    +0.115 C 
ATOM     10  C   UNL     1      34.905 -16.745 -24.794  0.00  0.00    +0.029 C 
ATOM     11  C   UNL     1      34.881 -19.153 -24.987  0.00  0.00    -0.004 C 
ATOM     12  C   UNL     1      35.105 -17.902 -25.552  0.00  0.00    +0.002 C 
ATOM     13  C   UNL     1      33.680 -14.584 -20.695  0.00  0.00    +0.143 C 
ENDROOT
BRANCH   1  14
ATOM     14  C   UNL     1      34.538 -20.116 -20.231  0.00  0.00    +0.054 C 
ATOM     15  C   UNL     1      34.101 -21.171 -19.439  0.00  0.00    +0.018 C 
ATOM     16  C   UNL     1      35.892 -19.815 -20.324  0.00  0.00    +0.018 C 
ATOM     17  C   UNL     1      35.028 -21.935 -18.729  0.00  0.00    +0.038 C 
ATOM     18  C   UNL     1      36.820 -20.580 -19.616  0.00  0.00    +0.038 C 
ATOM     19  C   UNL     1      36.388 -21.639 -18.819  0.00  0.00    +0.139 C 
BRANCH  19  20
ATOM     20  O   UNL     1      37.293 -22.383 -18.128  0.00  0.00    -0.471 OA
ATOM     21  C   UNL     1      37.278 -22.268 -16.706  0.00  0.00    +0.252 C 
ENDBRANCH  19  20
ENDBRANCH   1  14
TORSDOF 2
ENDMDL
MODEL 7
REMARK VINA RESULT:      -7.4      6.023      8.802
REMARK  Name = 11414799
REMARK  2 active torsions:
REMARK  status: ('A' for Active; 'I' for Inactive)
REMARK    1  A    between atoms: N_1  and  C_14
REMARK    2  A    between atoms: C_19  and  O_20
REMARK                            x       y       z     vdW  Elec       q    Type
REMARK                         _______ _______ _______ _____ _____    ______ ____
ROOT
ATOM      1  N   UNL     1      35.871 -22.960 -15.476  0.00  0.00    -0.263 N 
ATOM      2  N   UNL     1      34.820 -22.694 -17.563  0.00  0.00    -0.332 NA
ATOM      3  N   UNL     1      32.461 -23.117 -17.815  0.00  0.00    -0.347 NA
ATOM      4  C   UNL     1      34.695 -23.018 -16.263  0.00  0.00    +0.186 C 
ATOM      5  C   UNL     1      33.494 -23.399 -15.670  0.00  0.00    +0.143 C 
ATOM      6  C   UNL     1      32.372 -23.435 -16.512  0.00  0.00    +0.133 C 
ATOM      7  C   UNL     1      36.336 -21.638 -15.038  0.00  0.00    +0.119 C 
ATOM      8  C   UNL     1      33.389 -23.734 -14.308  0.00  0.00    -0.011 C 
ATOM      9  C   UNL     1      33.681 -22.764 -18.271  0.00  0.00    +0.115 C 
ATOM     10  C   UNL     1      31.152 -23.812 -15.954  0.00  0.00    +0.029 C 
ATOM     11  C   UNL     1      32.158 -24.108 -13.778  0.00  0.00    -0.004 C 
ATOM     12  C   UNL     1      31.039 -24.146 -14.602  0.00  0.00    +0.002 C 
ATOM     13  C   UNL     1      33.772 -22.413 -19.716  0.00  0.00    +0.143 C 
ENDROOT
BRANCH   1  14
ATOM     14  C   UNL     1      36.791 -24.019 -15.260  0.00  0.00    +0.054 C 
ATOM     15  C   UNL     1      38.154 -23.749 -15.223  0.00  0.00    +0.018 C 
ATOM     16  C   UNL     1      36.321 -25.317 -15.087  0.00  0.00    +0.018 C 
ATOM     17  C   UNL     1      39.060 -24.789 -15.012  0.00  0.00    +0.038 C 
ATOM     18  C   UNL     1      37.227 -26.357 -14.875  0.00  0.00    +0.038 C 
ATOM     19  C   UNL     1      38.596 -26.093 -14.837  0.00  0.00    +0.139 C 
BRANCH  19  20
ATOM     20  O   UNL     1      39.478 -27.108 -14.631  0.00  0.00    -0.471 OA
ATOM     21  C   UNL     1      40.787 -26.750 -14.187  0.00  0.00    +0.252 C 
ENDBRANCH  19  20
ENDBRANCH   1  14
TORSDOF 2
ENDMDL
MODEL 8
REMARK VINA RESULT:      -7.3      2.631      6.287
REMARK  Name = 11414799
REMARK  2 active torsions:
REMARK  status: ('A' for Active; 'I' for Inactive)
REMARK    1  A    between atoms: N_1  and  C_14
REMARK    2  A    between atoms: C_19  and  O_20
REMARK                            x       y       z     vdW  Elec       q    Type
REMARK                         _______ _______ _______ _____ _____    ______ ____
ROOT
ATOM      1  N   UNL     1      34.187 -17.376 -22.903  0.00  0.00    -0.263 N 
ATOM      2  N   UNL     1      36.382 -18.031 -22.367  0.00  0.00    -0.332 NA
ATOM      3  N   UNL     1      36.784 -19.853 -20.842  0.00  0.00    -0.347 NA
ATOM      4  C   UNL     1      35.063 -18.233 -22.191  0.00  0.00    +0.186 C 
ATOM      5  C   UNL     1      34.532 -19.217 -21.363  0.00  0.00    +0.143 C 
ATOM      6  C   UNL     1      35.460 -20.027 -20.690  0.00  0.00    +0.133 C 
ATOM      7  C   UNL     1      33.976 -17.648 -24.331  0.00  0.00    +0.119 C 
ATOM      8  C   UNL     1      33.149 -19.408 -21.195  0.00  0.00    -0.011 C 
ATOM      9  C   UNL     1      37.174 -18.864 -21.673  0.00  0.00    +0.115 C 
ATOM     10  C   UNL     1      34.966 -21.024 -19.851  0.00  0.00    +0.029 C 
ATOM     11  C   UNL     1      32.683 -20.411 -20.351  0.00  0.00    -0.004 C 
ATOM     12  C   UNL     1      33.593 -21.220 -19.678  0.00  0.00    +0.002 C 
ATOM     13  C   UNL     1      38.644 -18.677 -21.838  0.00  0.00    +0.143 C 
ENDROOT
BRANCH   1  14
ATOM     14  C   UNL     1      33.672 -16.134 -22.449  0.00  0.00    +0.054 C 
ATOM     15  C   UNL     1      33.434 -15.943 -21.093  0.00  0.00    +0.018 C 
ATOM     16  C   UNL     1      33.412 -15.120 -23.364  0.00  0.00    +0.018 C 
ATOM     17  C   UNL     1      32.927 -14.723 -20.645  0.00  0.00    +0.038 C 
ATOM     18  C   UNL     1      32.907 -13.898 -22.916  0.00  0.00    +0.038 C 
ATOM     19  C   UNL     1      32.665 -13.700 -21.557  0.00  0.00    +0.139 C 
BRANCH  19  20
ATOM     20  O   UNL     1      32.171 -12.510 -21.121  0.00  0.00    -0.471 OA
ATOM     21  C   UNL     1      31.591 -11.649 -22.101  0.00  0.00    +0.252 C 
ENDBRANCH  19  20
ENDBRANCH   1  14
TORSDOF 2
ENDMDL
MODEL 9
REMARK VINA RESULT:      -7.1      8.064     10.972
REMARK  Name = 11414799
REMARK  2 active torsions:
REMARK  status: ('A' for Active; 'I' for Inactive)
REMARK    1  A    between atoms: N_1  and  C_14
REMARK    2  A    between atoms: C_19  and  O_20
REMARK                            x       y       z     vdW  Elec       q    Type
REMARK                         _______ _______ _______ _____ _____    ______ ____
ROOT
ATOM      1  N   UNL     1      34.418 -23.475 -14.658  0.00  0.00    -0.263 N 
ATOM      2  N   UNL     1      35.348 -23.436 -12.498  0.00  0.00    -0.332 NA
ATOM      3  N   UNL     1      36.967 -25.090 -11.826  0.00  0.00    -0.347 NA
ATOM      4  C   UNL     1      35.295 -24.040 -13.700  0.00  0.00    +0.186 C 
ATOM      5  C   UNL     1      36.043 -25.164 -14.037  0.00  0.00    +0.143 C 
ATOM      6  C   UNL     1      36.890 -25.668 -13.037  0.00  0.00    +0.133 C 
ATOM      7  C   UNL     1      34.857 -22.260 -15.356  0.00  0.00    +0.119 C 
ATOM      8  C   UNL     1      35.970 -25.778 -15.301  0.00  0.00    -0.011 C 
ATOM      9  C   UNL     1      36.192 -24.005 -11.622  0.00  0.00    +0.115 C 
ATOM     10  C   UNL     1      37.654 -26.793 -13.338  0.00  0.00    +0.029 C 
ATOM     11  C   UNL     1      36.744 -26.901 -15.573  0.00  0.00    -0.004 C 
ATOM     12  C   UNL     1      37.587 -27.409 -14.591  0.00  0.00    +0.002 C 
ATOM     13  C   UNL     1      36.283 -23.369 -10.277  0.00  0.00    +0.143 C 
ENDROOT
BRANCH   1  14
ATOM     14  C   UNL     1      33.053 -23.815 -14.851  0.00  0.00    +0.054 C 
ATOM     15  C   UNL     1      32.430 -24.689 -13.968  0.00  0.00    +0.018 C 
ATOM     16  C   UNL     1      32.352 -23.269 -15.921  0.00  0.00    +0.018 C 
ATOM     17  C   UNL     1      31.089 -25.024 -14.157  0.00  0.00    +0.038 C 
ATOM     18  C   UNL     1      31.010 -23.603 -16.109  0.00  0.00    +0.038 C 
ATOM     19  C   UNL     1      30.379 -24.480 -15.227  0.00  0.00    +0.139 C 
BRANCH  19  20
ATOM     20  O   UNL     1      29.071 -24.806 -15.412  0.00  0.00    -0.471 OA
ATOM     21  C   UNL     1      28.393 -24.177 -16.499  0.00  0.00    +0.252 C 
ENDBRANCH  19  20
ENDBRANCH   1  14
TORSDOF 2
ENDMDL
