MODEL 1
REMARK VINA RESULT:      -9.1      0.000      0.000
REMARK  Name = 656966
REMARK  5 active torsions:
REMARK  status: ('A' for Active; 'I' for Inactive)
REMARK    1  A    between atoms: N_1  and  C_8
REMARK    2  A    between atoms: C_4  and  C_18
REMARK    3  A    between atoms: C_13  and  N_14
REMARK    4  A    between atoms: C_18  and  O_19
REMARK    5  A    between atoms: O_19  and  C_20
REMARK                            x       y       z     vdW  Elec       q    Type
REMARK                         _______ _______ _______ _____ _____    ______ ____
ROOT
ATOM      1  N   UNL     1      34.500 -18.054 -21.920  0.00  0.00    -0.234 N 
ATOM      2  N   UNL     1      34.476 -16.830 -21.351  0.00  0.00    -0.170 NA
ATOM      3  C   UNL     1      34.488 -18.005 -23.292  0.00  0.00    +0.068 A 
ATOM      4  C   UNL     1      34.454 -16.674 -23.629  0.00  0.00    +0.104 A 
ATOM      5  C   UNL     1      34.448 -15.998 -22.395  0.00  0.00    +0.087 A 
ATOM      6  C   UNL     1      34.510 -19.218 -24.135  0.00  0.00    +0.052 C 
ATOM      7  C   UNL     1      34.417 -14.543 -22.161  0.00  0.00    +0.054 C 
ENDROOT
BRANCH   1   8
ATOM      8  C   UNL     1      34.534 -19.188 -21.130  0.00  0.00    +0.083 C 
ATOM      9  C   UNL     1      33.343 -19.767 -20.692  0.00  0.00    +0.020 C 
ATOM     10  C   UNL     1      35.758 -19.752 -20.772  0.00  0.00    +0.020 C 
ATOM     11  C   UNL     1      33.378 -20.912 -19.895  0.00  0.00    +0.016 C 
ATOM     12  C   UNL     1      35.792 -20.896 -19.975  0.00  0.00    +0.016 C 
ATOM     13  C   UNL     1      34.602 -21.476 -19.536  0.00  0.00    +0.042 C 
BRANCH  13  14
ATOM     14  N   UNL     1      34.636 -22.634 -18.731  0.00  0.00    -0.357 N 
ATOM     15  H   UNL     1      34.698 -22.551 -17.752  0.00  0.00    +0.142 HD
ATOM     16  H   UNL     1      34.598 -23.525 -19.149  0.00  0.00    +0.142 HD
ENDBRANCH  13  14
ENDBRANCH   1   8
BRANCH   4  18
ATOM     17  O   UNL     1      35.100 -16.596 -25.906  0.00  0.00    -0.245 OA
ATOM     18  C   UNL     1      34.432 -16.143 -24.959  0.00  0.00    +0.344 C 
BRANCH  18  19
ATOM     19  O   UNL     1      33.590 -15.059 -25.125  0.00  0.00    -0.445 OA
BRANCH  19  20
ATOM     20  C   UNL     1      32.903 -14.948 -26.376  0.00  0.00    +0.209 C 
ATOM     21  C   UNL     1      33.245 -13.617 -27.010  0.00  0.00    +0.051 C 
ENDBRANCH  19  20
ENDBRANCH  18  19
ENDBRANCH   4  18
TORSDOF 5
ENDMDL
MODEL 2
REMARK VINA RESULT:      -9.0      3.763      7.291
REMARK  Name = 656966
REMARK  5 active torsions:
REMARK  status: ('A' for Active; 'I' for Inactive)
REMARK    1  A    between atoms: N_1  and  C_8
REMARK    2  A    between atoms: C_4  and  C_18
REMARK    3  A    between atoms: C_13  and  N_14
REMARK    4  A    between atoms: C_18  and  O_19
REMARK    5  A    between atoms: O_19  and  C_20
REMARK                            x       y       z     vdW  Elec       q    Type
REMARK                         _______ _______ _______ _____ _____    ______ ____
ROOT
ATOM      1  N   UNL     1      34.924 -19.471 -20.730  0.00  0.00    -0.234 N 
ATOM      2  N   UNL     1      36.095 -19.842 -20.170  0.00  0.00    -0.170 NA
ATOM      3  C   UNL     1      33.903 -20.349 -20.465  0.00  0.00    +0.068 A 
ATOM      4  C   UNL     1      34.444 -21.345 -19.690  0.00  0.00    +0.104 A 
ATOM      5  C   UNL     1      35.795 -20.981 -19.540  0.00  0.00    +0.087 A 
ATOM      6  C   UNL     1      32.529 -20.154 -20.972  0.00  0.00    +0.052 C 
ATOM      7  C   UNL     1      36.847 -21.695 -18.796  0.00  0.00    +0.054 C 
ENDROOT
BRANCH   1   8
ATOM      8  C   UNL     1      34.847 -18.310 -21.477  0.00  0.00    +0.083 C 
ATOM      9  C   UNL     1      35.007 -18.361 -22.862  0.00  0.00    +0.020 C 
ATOM     10  C   UNL     1      34.610 -17.089 -20.847  0.00  0.00    +0.020 C 
ATOM     11  C   UNL     1      34.929 -17.190 -23.616  0.00  0.00    +0.016 C 
ATOM     12  C   UNL     1      34.533 -15.919 -21.601  0.00  0.00    +0.016 C 
ATOM     13  C   UNL     1      34.693 -15.969 -22.985  0.00  0.00    +0.042 C 
BRANCH  13  14
ATOM     14  N   UNL     1      34.614 -14.784 -23.749  0.00  0.00    -0.357 N 
ATOM     15  H   UNL     1      33.780 -14.262 -23.763  0.00  0.00    +0.142 HD
ATOM     16  H   UNL     1      35.394 -14.482 -24.270  0.00  0.00    +0.142 HD
ENDBRANCH  13  14
ENDBRANCH   1   8
BRANCH   4  18
ATOM     17  O   UNL     1      33.951 -23.656 -19.531  0.00  0.00    -0.245 OA
ATOM     18  C   UNL     1      33.745 -22.483 -19.172  0.00  0.00    +0.344 C 
BRANCH  18  19
ATOM     19  O   UNL     1      32.796 -22.179 -18.214  0.00  0.00    -0.445 OA
BRANCH  19  20
ATOM     20  C   UNL     1      32.612 -23.122 -17.151  0.00  0.00    +0.209 C 
ATOM     21  C   UNL     1      31.241 -22.918 -16.543  0.00  0.00    +0.051 C 
ENDBRANCH  19  20
ENDBRANCH  18  19
ENDBRANCH   4  18
TORSDOF 5
ENDMDL
MODEL 3
REMARK VINA RESULT:      -8.8      1.812      3.068
REMARK  Name = 656966
REMARK  5 active torsions:
REMARK  status: ('A' for Active; 'I' for Inactive)
REMARK    1  A    between atoms: N_1  and  C_8
REMARK    2  A    between atoms: C_4  and  C_18
REMARK    3  A    between atoms: C_13  and  N_14
REMARK    4  A    between atoms: C_18  and  O_19
REMARK    5  A    between atoms: O_19  and  C_20
REMARK                            x       y       z     vdW  Elec       q    Type
REMARK                         _______ _______ _______ _____ _____    ______ ____
ROOT
ATOM      1  N   UNL     1      34.567 -17.327 -22.427  0.00  0.00    -0.234 N 
ATOM      2  N   UNL     1      34.490 -17.454 -23.769  0.00  0.00    -0.170 NA
ATOM      3  C   UNL     1      34.231 -16.071 -21.989  0.00  0.00    +0.068 A 
ATOM      4  C   UNL     1      33.918 -15.344 -23.111  0.00  0.00    +0.104 A 
ATOM      5  C   UNL     1      34.095 -16.246 -24.177  0.00  0.00    +0.087 A 
ATOM      6  C   UNL     1      34.240 -15.694 -20.560  0.00  0.00    +0.052 C 
ATOM      7  C   UNL     1      33.897 -15.996 -25.615  0.00  0.00    +0.054 C 
ENDROOT
BRANCH   1   8
ATOM      8  C   UNL     1      34.952 -18.403 -21.647  0.00  0.00    +0.083 C 
ATOM      9  C   UNL     1      33.989 -19.281 -21.150  0.00  0.00    +0.020 C 
ATOM     10  C   UNL     1      36.300 -18.609 -21.357  0.00  0.00    +0.020 C 
ATOM     11  C   UNL     1      34.376 -20.367 -20.363  0.00  0.00    +0.016 C 
ATOM     12  C   UNL     1      36.687 -19.693 -20.571  0.00  0.00    +0.016 C 
ATOM     13  C   UNL     1      35.725 -20.572 -20.074  0.00  0.00    +0.042 C 
BRANCH  13  14
ATOM     14  N   UNL     1      36.116 -21.671 -19.278  0.00  0.00    -0.357 N 
ATOM     15  H   UNL     1      35.524 -22.452 -19.194  0.00  0.00    +0.142 HD
ATOM     16  H   UNL     1      36.980 -21.653 -18.806  0.00  0.00    +0.142 HD
ENDBRANCH  13  14
ENDBRANCH   1   8
BRANCH   4  18
ATOM     17  O   UNL     1      34.189 -13.044 -23.609  0.00  0.00    -0.245 OA
ATOM     18  C   UNL     1      33.507 -13.972 -23.137  0.00  0.00    +0.344 C 
BRANCH  18  19
ATOM     19  O   UNL     1      32.260 -13.742 -22.587  0.00  0.00    -0.445 OA
BRANCH  19  20
ATOM     20  C   UNL     1      31.989 -12.420 -22.106  0.00  0.00    +0.209 C 
ATOM     21  C   UNL     1      31.912 -12.451 -20.595  0.00  0.00    +0.051 C 
ENDBRANCH  19  20
ENDBRANCH  18  19
ENDBRANCH   4  18
TORSDOF 5
ENDMDL
MODEL 4
REMARK VINA RESULT:      -8.7      1.902      2.830
REMARK  Name = 656966
REMARK  5 active torsions:
REMARK  status: ('A' for Active; 'I' for Inactive)
REMARK    1  A    between atoms: N_1  and  C_8
REMARK    2  A    between atoms: C_4  and  C_18
REMARK    3  A    between atoms: C_13  and  N_14
REMARK    4  A    between atoms: C_18  and  O_19
REMARK    5  A    between atoms: O_19  and  C_20
REMARK                            x       y       z     vdW  Elec       q    Type
REMARK                         _______ _______ _______ _____ _____    ______ ____
ROOT
ATOM      1  N   UNL     1      34.493 -17.146 -22.557  0.00  0.00    -0.234 N 
ATOM      2  N   UNL     1      34.420 -17.243 -23.902  0.00  0.00    -0.170 NA
ATOM      3  C   UNL     1      34.111 -15.914 -22.089  0.00  0.00    +0.068 A 
ATOM      4  C   UNL     1      33.771 -15.171 -23.194  0.00  0.00    +0.104 A 
ATOM      5  C   UNL     1      33.980 -16.040 -24.281  0.00  0.00    +0.087 A 
ATOM      6  C   UNL     1      34.106 -15.570 -20.652  0.00  0.00    +0.052 C 
ATOM      7  C   UNL     1      33.772 -15.763 -25.713  0.00  0.00    +0.054 C 
ENDROOT
BRANCH   1   8
ATOM      8  C   UNL     1      34.918 -18.224 -21.804  0.00  0.00    +0.083 C 
ATOM      9  C   UNL     1      33.985 -19.128 -21.294  0.00  0.00    +0.020 C 
ATOM     10  C   UNL     1      36.277 -18.409 -21.553  0.00  0.00    +0.020 C 
ATOM     11  C   UNL     1      34.413 -20.216 -20.534  0.00  0.00    +0.016 C 
ATOM     12  C   UNL     1      36.704 -19.497 -20.793  0.00  0.00    +0.016 C 
ATOM     13  C   UNL     1      35.773 -20.401 -20.283  0.00  0.00    +0.042 C 
BRANCH  13  14
ATOM     14  N   UNL     1      36.204 -21.503 -19.514  0.00  0.00    -0.357 N 
ATOM     15  H   UNL     1      36.622 -21.356 -18.636  0.00  0.00    +0.142 HD
ATOM     16  H   UNL     1      36.088 -22.418 -19.858  0.00  0.00    +0.142 HD
ENDBRANCH  13  14
ENDBRANCH   1   8
BRANCH   4  18
ATOM     17  O   UNL     1      32.183 -13.460 -22.790  0.00  0.00    -0.245 OA
ATOM     18  C   UNL     1      33.308 -13.816 -23.187  0.00  0.00    +0.344 C 
BRANCH  18  19
ATOM     19  O   UNL     1      34.226 -12.900 -23.665  0.00  0.00    -0.445 OA
BRANCH  19  20
ATOM     20  C   UNL     1      33.814 -12.064 -24.752  0.00  0.00    +0.209 C 
ATOM     21  C   UNL     1      34.210 -10.634 -24.453  0.00  0.00    +0.051 C 
ENDBRANCH  19  20
ENDBRANCH  18  19
ENDBRANCH   4  18
TORSDOF 5
ENDMDL
MODEL 5
REMARK VINA RESULT:      -8.5      1.175      2.346
REMARK  Name = 656966
REMARK  5 active torsions:
REMARK  status: ('A' for Active; 'I' for Inactive)
REMARK    1  A    between atoms: N_1  and  C_8
REMARK    2  A    between atoms: C_4  and  C_18
REMARK    3  A    between atoms: C_13  and  N_14
REMARK    4  A    between atoms: C_18  and  O_19
REMARK    5  A    between atoms: O_19  and  C_20
REMARK                            x       y       z     vdW  Elec       q    Type
REMARK                         _______ _______ _______ _____ _____    ______ ____
ROOT
ATOM      1  N   UNL     1      34.470 -18.270 -22.177  0.00  0.00    -0.234 N 
ATOM      2  N   UNL     1      34.705 -18.499 -23.487  0.00  0.00    -0.170 NA
ATOM      3  C   UNL     1      34.213 -16.950 -21.903  0.00  0.00    +0.068 A 
ATOM      4  C   UNL     1      34.286 -16.287 -23.104  0.00  0.00    +0.104 A 
ATOM      5  C   UNL     1      34.591 -17.290 -24.043  0.00  0.00    +0.087 A 
ATOM      6  C   UNL     1      33.926 -16.458 -20.540  0.00  0.00    +0.052 C 
ATOM      7  C   UNL     1      34.784 -17.140 -25.496  0.00  0.00    +0.054 C 
ENDROOT
BRANCH   1   8
ATOM      8  C   UNL     1      34.502 -19.315 -21.272  0.00  0.00    +0.083 C 
ATOM      9  C   UNL     1      35.727 -19.791 -20.802  0.00  0.00    +0.020 C 
ATOM     10  C   UNL     1      33.313 -19.892 -20.829  0.00  0.00    +0.020 C 
ATOM     11  C   UNL     1      35.760 -20.845 -19.889  0.00  0.00    +0.016 C 
ATOM     12  C   UNL     1      33.347 -20.945 -19.917  0.00  0.00    +0.016 C 
ATOM     13  C   UNL     1      34.570 -21.422 -19.446  0.00  0.00    +0.042 C 
BRANCH  13  14
ATOM     14  N   UNL     1      34.605 -22.488 -18.522  0.00  0.00    -0.357 N 
ATOM     15  H   UNL     1      33.835 -22.653 -17.932  0.00  0.00    +0.142 HD
ATOM     16  H   UNL     1      35.401 -23.065 -18.466  0.00  0.00    +0.142 HD
ENDBRANCH  13  14
ENDBRANCH   1   8
BRANCH   4  18
ATOM     17  O   UNL     1      34.780 -13.994 -22.778  0.00  0.00    -0.245 OA
ATOM     18  C   UNL     1      34.085 -14.883 -23.303  0.00  0.00    +0.344 C 
BRANCH  18  19
ATOM     19  O   UNL     1      33.036 -14.573 -24.148  0.00  0.00    -0.445 OA
BRANCH  19  20
ATOM     20  C   UNL     1      33.289 -13.619 -25.185  0.00  0.00    +0.209 C 
ATOM     21  C   UNL     1      32.778 -14.171 -26.499  0.00  0.00    +0.051 C 
ENDBRANCH  19  20
ENDBRANCH  18  19
ENDBRANCH   4  18
TORSDOF 5
ENDMDL
MODEL 6
REMARK VINA RESULT:      -8.5      1.456      1.971
REMARK  Name = 656966
REMARK  5 active torsions:
REMARK  status: ('A' for Active; 'I' for Inactive)
REMARK    1  A    between atoms: N_1  and  C_8
REMARK    2  A    between atoms: C_4  and  C_18
REMARK    3  A    between atoms: C_13  and  N_14
REMARK    4  A    between atoms: C_18  and  O_19
REMARK    5  A    between atoms: O_19  and  C_20
REMARK                            x       y       z     vdW  Elec       q    Type
REMARK                         _______ _______ _______ _____ _____    ______ ____
ROOT
ATOM      1  N   UNL     1      34.020 -16.633 -21.779  0.00  0.00    -0.234 N 
ATOM      2  N   UNL     1      33.352 -15.825 -20.928  0.00  0.00    -0.170 NA
ATOM      3  C   UNL     1      34.175 -16.083 -23.027  0.00  0.00    +0.068 A 
ATOM      4  C   UNL     1      33.573 -14.849 -22.981  0.00  0.00    +0.104 A 
ATOM      5  C   UNL     1      33.084 -14.744 -21.665  0.00  0.00    +0.087 A 
ATOM      6  C   UNL     1      34.874 -16.779 -24.127  0.00  0.00    +0.052 C 
ATOM      7  C   UNL     1      32.349 -13.620 -21.060  0.00  0.00    +0.054 C 
ENDROOT
BRANCH   1   8
ATOM      8  C   UNL     1      34.470 -17.870 -21.356  0.00  0.00    +0.083 C 
ATOM      9  C   UNL     1      33.554 -18.881 -21.065  0.00  0.00    +0.020 C 
ATOM     10  C   UNL     1      35.837 -18.107 -21.220  0.00  0.00    +0.020 C 
ATOM     11  C   UNL     1      34.007 -20.130 -20.639  0.00  0.00    +0.016 C 
ATOM     12  C   UNL     1      36.289 -19.355 -20.793  0.00  0.00    +0.016 C 
ATOM     13  C   UNL     1      35.374 -20.366 -20.502  0.00  0.00    +0.042 C 
BRANCH  13  14
ATOM     14  N   UNL     1      35.831 -21.630 -20.071  0.00  0.00    -0.357 N 
ATOM     15  H   UNL     1      35.248 -22.204 -19.525  0.00  0.00    +0.142 HD
ATOM     16  H   UNL     1      36.735 -21.936 -20.316  0.00  0.00    +0.142 HD
ENDBRANCH  13  14
ENDBRANCH   1   8
BRANCH   4  18
ATOM     17  O   UNL     1      34.131 -12.848 -24.117  0.00  0.00    -0.245 OA
ATOM     18  C   UNL     1      33.488 -13.912 -24.061  0.00  0.00    +0.344 C 
BRANCH  18  19
ATOM     19  O   UNL     1      32.619 -14.283 -25.069  0.00  0.00    -0.445 OA
BRANCH  19  20
ATOM     20  C   UNL     1      33.188 -14.583 -26.349  0.00  0.00    +0.209 C 
ATOM     21  C   UNL     1      33.119 -13.347 -27.221  0.00  0.00    +0.051 C 
ENDBRANCH  19  20
ENDBRANCH  18  19
ENDBRANCH   4  18
TORSDOF 5
ENDMDL
MODEL 7
REMARK VINA RESULT:      -8.5      4.825      6.999
REMARK  Name = 656966
REMARK  5 active torsions:
REMARK  status: ('A' for Active; 'I' for Inactive)
REMARK    1  A    between atoms: N_1  and  C_8
REMARK    2  A    between atoms: C_4  and  C_18
REMARK    3  A    between atoms: C_13  and  N_14
REMARK    4  A    between atoms: C_18  and  O_19
REMARK    5  A    between atoms: O_19  and  C_20
REMARK                            x       y       z     vdW  Elec       q    Type
REMARK                         _______ _______ _______ _____ _____    ______ ____
ROOT
ATOM      1  N   UNL     1      32.804 -12.693 -23.016  0.00  0.00    -0.234 N 
ATOM      2  N   UNL     1      31.967 -12.748 -21.958  0.00  0.00    -0.170 NA
ATOM      3  C   UNL     1      32.989 -11.417 -23.486  0.00  0.00    +0.068 A 
ATOM      4  C   UNL     1      32.228 -10.599 -22.686  0.00  0.00    +0.104 A 
ATOM      5  C   UNL     1      31.622 -11.472 -21.763  0.00  0.00    +0.087 A 
ATOM      6  C   UNL     1      33.862 -11.106 -24.637  0.00  0.00    +0.052 C 
ATOM      7  C   UNL     1      30.698 -11.131 -20.668  0.00  0.00    +0.054 C 
ENDROOT
BRANCH   1   8
ATOM      8  C   UNL     1      33.375 -13.850 -23.513  0.00  0.00    +0.083 C 
ATOM      9  C   UNL     1      34.315 -14.544 -22.751  0.00  0.00    +0.020 C 
ATOM     10  C   UNL     1      33.013 -14.323 -24.773  0.00  0.00    +0.020 C 
ATOM     11  C   UNL     1      34.892 -15.712 -23.251  0.00  0.00    +0.016 C 
ATOM     12  C   UNL     1      33.590 -15.489 -25.273  0.00  0.00    +0.016 C 
ATOM     13  C   UNL     1      34.529 -16.184 -24.512  0.00  0.00    +0.042 C 
BRANCH  13  14
ATOM     14  N   UNL     1      35.113 -17.366 -25.017  0.00  0.00    -0.357 N 
ATOM     15  H   UNL     1      35.647 -17.943 -24.425  0.00  0.00    +0.142 HD
ATOM     16  H   UNL     1      34.986 -17.612 -25.962  0.00  0.00    +0.142 HD
ENDBRANCH  13  14
ENDBRANCH   1   8
BRANCH   4  18
ATOM     17  O   UNL     1      31.219  -8.597 -23.449  0.00  0.00    -0.245 OA
ATOM     18  C   UNL     1      32.112  -9.176 -22.804  0.00  0.00    +0.344 C 
BRANCH  18  19
ATOM     19  O   UNL     1      33.090  -8.468 -22.131  0.00  0.00    -0.445 OA
BRANCH  19  20
ATOM     20  C   UNL     1      33.592  -7.284 -22.761  0.00  0.00    +0.209 C 
ATOM     21  C   UNL     1      34.856  -7.628 -23.521  0.00  0.00    +0.051 C 
ENDBRANCH  19  20
ENDBRANCH  18  19
ENDBRANCH   4  18
TORSDOF 5
ENDMDL
MODEL 8
REMARK VINA RESULT:      -8.5      3.203      7.015
REMARK  Name = 656966
REMARK  5 active torsions:
REMARK  status: ('A' for Active; 'I' for Inactive)
REMARK    1  A    between atoms: N_1  and  C_8
REMARK    2  A    between atoms: C_4  and  C_18
REMARK    3  A    between atoms: C_13  and  N_14
REMARK    4  A    between atoms: C_18  and  O_19
REMARK    5  A    between atoms: O_19  and  C_20
REMARK                            x       y       z     vdW  Elec       q    Type
REMARK                         _______ _______ _______ _____ _____    ______ ____
ROOT
ATOM      1  N   UNL     1      33.861 -14.906 -23.086  0.00  0.00    -0.234 N 
ATOM      2  N   UNL     1      33.858 -15.560 -24.267  0.00  0.00    -0.170 NA
ATOM      3  C   UNL     1      34.418 -15.640 -22.070  0.00  0.00    +0.068 A 
ATOM      4  C   UNL     1      34.797 -16.838 -22.625  0.00  0.00    +0.104 A 
ATOM      5  C   UNL     1      34.428 -16.732 -23.979  0.00  0.00    +0.087 A 
ATOM      6  C   UNL     1      34.533 -15.134 -20.687  0.00  0.00    +0.052 C 
ATOM      7  C   UNL     1      34.602 -17.734 -25.045  0.00  0.00    +0.054 C 
ENDROOT
BRANCH   1   8
ATOM      8  C   UNL     1      33.338 -13.628 -22.997  0.00  0.00    +0.083 C 
ATOM      9  C   UNL     1      32.293 -13.364 -22.112  0.00  0.00    +0.020 C 
ATOM     10  C   UNL     1      33.855 -12.606 -23.791  0.00  0.00    +0.020 C 
ATOM     11  C   UNL     1      31.766 -12.076 -22.021  0.00  0.00    +0.016 C 
ATOM     12  C   UNL     1      33.328 -11.318 -23.701  0.00  0.00    +0.016 C 
ATOM     13  C   UNL     1      32.283 -11.053 -22.816  0.00  0.00    +0.042 C 
BRANCH  13  14
ATOM     14  N   UNL     1      31.749  -9.750 -22.723  0.00  0.00    -0.357 N 
ATOM     15  H   UNL     1      31.786  -9.147 -23.499  0.00  0.00    +0.142 HD
ATOM     16  H   UNL     1      31.341  -9.444 -21.880  0.00  0.00    +0.142 HD
ENDBRANCH  13  14
ENDBRANCH   1   8
BRANCH   4  18
ATOM     17  O   UNL     1      36.599 -18.293 -22.131  0.00  0.00    -0.245 OA
ATOM     18  C   UNL     1      35.427 -17.924 -21.935  0.00  0.00    +0.344 C 
BRANCH  18  19
ATOM     19  O   UNL     1      34.619 -18.553 -21.006  0.00  0.00    -0.445 OA
BRANCH  19  20
ATOM     20  C   UNL     1      33.882 -19.698 -21.447  0.00  0.00    +0.209 C 
ATOM     21  C   UNL     1      32.996 -20.179 -20.317  0.00  0.00    +0.051 C 
ENDBRANCH  19  20
ENDBRANCH  18  19
ENDBRANCH   4  18
TORSDOF 5
ENDMDL
MODEL 9
REMARK VINA RESULT:      -8.2      9.795     11.818
REMARK  Name = 656966
REMARK  5 active torsions:
REMARK  status: ('A' for Active; 'I' for Inactive)
REMARK    1  A    between atoms: N_1  and  C_8
REMARK    2  A    between atoms: C_4  and  C_18
REMARK    3  A    between atoms: C_13  and  N_14
REMARK    4  A    between atoms: C_18  and  O_19
REMARK    5  A    between atoms: O_19  and  C_20
REMARK                            x       y       z     vdW  Elec       q    Type
REMARK                         _______ _______ _______ _____ _____    ______ ____
ROOT
ATOM      1  N   UNL     1      33.629 -24.038 -13.867  0.00  0.00    -0.234 N 
ATOM      2  N   UNL     1      33.937 -24.232 -12.567  0.00  0.00    -0.170 NA
ATOM      3  C   UNL     1      34.738 -23.898 -14.664  0.00  0.00    +0.068 A 
ATOM      4  C   UNL     1      35.825 -24.007 -13.832  0.00  0.00    +0.104 A 
ATOM      5  C   UNL     1      35.272 -24.212 -12.554  0.00  0.00    +0.087 A 
ATOM      6  C   UNL     1      34.652 -23.677 -16.122  0.00  0.00    +0.052 C 
ATOM      7  C   UNL     1      35.987 -24.396 -11.278  0.00  0.00    +0.054 C 
ENDROOT
BRANCH   1   8
ATOM      8  C   UNL     1      32.307 -24.000 -14.271  0.00  0.00    +0.083 C 
ATOM      9  C   UNL     1      31.524 -25.152 -14.195  0.00  0.00    +0.020 C 
ATOM     10  C   UNL     1      31.758 -22.814 -14.754  0.00  0.00    +0.020 C 
ATOM     11  C   UNL     1      30.190 -25.115 -14.602  0.00  0.00    +0.016 C 
ATOM     12  C   UNL     1      30.426 -22.777 -15.162  0.00  0.00    +0.016 C 
ATOM     13  C   UNL     1      29.641 -23.927 -15.086  0.00  0.00    +0.042 C 
BRANCH  13  14
ATOM     14  N   UNL     1      28.291 -23.891 -15.497  0.00  0.00    -0.357 N 
ATOM     15  H   UNL     1      27.844 -24.716 -15.792  0.00  0.00    +0.142 HD
ATOM     16  H   UNL     1      27.798 -23.038 -15.490  0.00  0.00    +0.142 HD
ENDBRANCH  13  14
ENDBRANCH   1   8
BRANCH   4  18
ATOM     17  O   UNL     1      37.791 -22.861 -14.490  0.00  0.00    -0.245 OA
ATOM     18  C   UNL     1      37.200 -23.925 -14.227  0.00  0.00    +0.344 C 
BRANCH  18  19
ATOM     19  O   UNL     1      37.845 -25.145 -14.297  0.00  0.00    -0.445 OA
BRANCH  19  20
ATOM     20  C   UNL     1      38.940 -25.359 -13.398  0.00  0.00    +0.209 C 
ATOM     21  C   UNL     1      40.198 -25.605 -14.204  0.00  0.00    +0.051 C 
ENDBRANCH  19  20
ENDBRANCH  18  19
ENDBRANCH   4  18
TORSDOF 5
ENDMDL
