MODEL 1
REMARK VINA RESULT:      -7.8      0.000      0.000
REMARK  Name = 9427
REMARK  5 active torsions:
REMARK  status: ('A' for Active; 'I' for Inactive)
REMARK    1  A    between atoms: C2*_2  and  O2*_16
REMARK    2  A    between atoms: C3*_3  and  O3*_18
REMARK    3  A    between atoms: C1*_4  and  N_9
REMARK    4  A    between atoms: C4*_5  and  C5*_20
REMARK    5  A    between atoms: C5*_20  and  O5*_21
REMARK                            x       y       z     vdW  Elec       q    Type
REMARK                         _______ _______ _______ _____ _____    ______ ____
ROOT
ATOM      1  O4* UNL     1      34.952 -24.893 -14.778  0.00  0.00    -0.333 OA
ATOM      2  C2* UNL     1      35.910 -22.842 -15.479  0.00  0.00    +0.187 C 
ATOM      3  C3* UNL     1      36.870 -23.526 -14.528  0.00  0.00    +0.171 C 
ATOM      4  C1* UNL     1      35.007 -23.991 -15.895  0.00  0.00    +0.229 C 
ATOM      5  C4* UNL     1      35.960 -24.517 -13.815  0.00  0.00    +0.175 C 
ENDROOT
BRANCH   4   9
ATOM      6  F   UNL     1      30.551 -23.151 -14.401  0.00  0.00    -0.198 F 
ATOM      7  O   UNL     1      34.119 -23.127 -18.465  0.00  0.00    -0.252 OA
ATOM      8  O   UNL     1      29.846 -22.354 -16.903  0.00  0.00    -0.267 OA
ATOM      9  N   UNL     1      33.676 -23.556 -16.210  0.00  0.00    -0.214 N 
ATOM     10  N   UNL     1      31.992 -22.744 -17.688  0.00  0.00    -0.234 N 
ATOM     11  C   UNL     1      33.328 -23.144 -17.520  0.00  0.00    +0.316 C 
ATOM     12  C   UNL     1      32.723 -23.544 -15.198  0.00  0.00    +0.106 C 
ATOM     13  C   UNL     1      31.464 -23.158 -15.390  0.00  0.00    +0.208 C 
ATOM     14  C   UNL     1      31.003 -22.713 -16.714  0.00  0.00    +0.282 C 
ATOM     15  H   UNL     1      31.730 -22.454 -18.591  0.00  0.00    +0.159 HD
ENDBRANCH   4   9
BRANCH   2  16
ATOM     16  O2* UNL     1      36.573 -22.248 -16.575  0.00  0.00    -0.378 OA
ATOM     17  H2* UNL     1      36.780 -21.324 -16.366  0.00  0.00    +0.211 HD
ENDBRANCH   2  16
BRANCH   3  18
ATOM     18  O3* UNL     1      37.845 -24.270 -15.258  0.00  0.00    -0.379 OA
ATOM     19  H3* UNL     1      37.412 -24.743 -15.985  0.00  0.00    +0.211 HD
ENDBRANCH   3  18
BRANCH   5  20
ATOM     20  C5* UNL     1      35.260 -23.924 -12.600  0.00  0.00    +0.169 C 
BRANCH  20  21
ATOM     21  O5* UNL     1      34.823 -24.984 -11.766  0.00  0.00    -0.379 OA
ATOM     22  H5* UNL     1      33.922 -25.241 -12.017  0.00  0.00    +0.211 HD
ENDBRANCH  20  21
ENDBRANCH   5  20
TORSDOF 5
ENDMDL
MODEL 2
REMARK VINA RESULT:      -7.8      3.515      6.435
REMARK  Name = 9427
REMARK  5 active torsions:
REMARK  status: ('A' for Active; 'I' for Inactive)
REMARK    1  A    between atoms: C2*_2  and  O2*_16
REMARK    2  A    between atoms: C3*_3  and  O3*_18
REMARK    3  A    between atoms: C1*_4  and  N_9
REMARK    4  A    between atoms: C4*_5  and  C5*_20
REMARK    5  A    between atoms: C5*_20  and  O5*_21
REMARK                            x       y       z     vdW  Elec       q    Type
REMARK                         _______ _______ _______ _____ _____    ______ ____
ROOT
ATOM      1  O4* UNL     1      34.946 -25.103 -15.157  0.00  0.00    -0.333 OA
ATOM      2  C2* UNL     1      34.854 -24.355 -12.910  0.00  0.00    +0.187 C 
ATOM      3  C3* UNL     1      33.524 -24.066 -13.572  0.00  0.00    +0.171 C 
ATOM      4  C1* UNL     1      35.452 -25.394 -13.844  0.00  0.00    +0.229 C 
ATOM      5  C4* UNL     1      33.882 -24.133 -15.051  0.00  0.00    +0.175 C 
ENDROOT
BRANCH   4   9
ATOM      6  F   UNL     1      39.415 -23.842 -16.008  0.00  0.00    -0.198 F 
ATOM      7  O   UNL     1      37.186 -26.641 -11.952  0.00  0.00    -0.252 OA
ATOM      8  O   UNL     1      40.943 -25.084 -14.133  0.00  0.00    -0.267 OA
ATOM      9  N   UNL     1      36.886 -25.344 -13.874  0.00  0.00    -0.214 N 
ATOM     10  N   UNL     1      39.056 -25.867 -13.038  0.00  0.00    -0.234 N 
ATOM     11  C   UNL     1      37.665 -25.998 -12.888  0.00  0.00    +0.316 C 
ATOM     12  C   UNL     1      37.505 -24.637 -14.898  0.00  0.00    +0.106 C 
ATOM     13  C   UNL     1      38.828 -24.531 -15.011  0.00  0.00    +0.208 C 
ATOM     14  C   UNL     1      39.724 -25.174 -14.039  0.00  0.00    +0.282 C 
ATOM     15  H   UNL     1      39.615 -26.314 -12.363  0.00  0.00    +0.159 HD
ENDBRANCH   4   9
BRANCH   2  16
ATOM     16  O2* UNL     1      34.705 -24.833 -11.590  0.00  0.00    -0.378 OA
ATOM     17  H2* UNL     1      34.461 -25.772 -11.612  0.00  0.00    +0.211 HD
ENDBRANCH   2  16
BRANCH   3  18
ATOM     18  O3* UNL     1      32.596 -25.115 -13.296  0.00  0.00    -0.379 OA
ATOM     19  H3* UNL     1      32.094 -24.901 -12.495  0.00  0.00    +0.211 HD
ENDBRANCH   3  18
BRANCH   5  20
ATOM     20  C5* UNL     1      34.387 -22.809 -15.607  0.00  0.00    +0.169 C 
BRANCH  20  21
ATOM     21  O5* UNL     1      34.999 -23.049 -16.863  0.00  0.00    -0.379 OA
ATOM     22  H5* UNL     1      34.424 -23.616 -17.399  0.00  0.00    +0.211 HD
ENDBRANCH  20  21
ENDBRANCH   5  20
TORSDOF 5
ENDMDL
MODEL 3
REMARK VINA RESULT:      -7.8      2.075      3.204
REMARK  Name = 9427
REMARK  5 active torsions:
REMARK  status: ('A' for Active; 'I' for Inactive)
REMARK    1  A    between atoms: C2*_2  and  O2*_16
REMARK    2  A    between atoms: C3*_3  and  O3*_18
REMARK    3  A    between atoms: C1*_4  and  N_9
REMARK    4  A    between atoms: C4*_5  and  C5*_20
REMARK    5  A    between atoms: C5*_20  and  O5*_21
REMARK                            x       y       z     vdW  Elec       q    Type
REMARK                         _______ _______ _______ _____ _____    ______ ____
ROOT
ATOM      1  O4* UNL     1      35.853 -23.398 -13.886  0.00  0.00    -0.333 OA
ATOM      2  C2* UNL     1      35.953 -25.400 -15.150  0.00  0.00    +0.187 C 
ATOM      3  C3* UNL     1      37.338 -25.089 -14.624  0.00  0.00    +0.171 C 
ATOM      4  C1* UNL     1      35.075 -24.551 -14.246  0.00  0.00    +0.229 C 
ATOM      5  C4* UNL     1      37.225 -23.609 -14.284  0.00  0.00    +0.175 C 
ENDROOT
BRANCH   4   9
ATOM      6  F   UNL     1      33.021 -22.581 -18.080  0.00  0.00    -0.198 F 
ATOM      7  O   UNL     1      32.445 -24.744 -13.156  0.00  0.00    -0.252 OA
ATOM      8  O   UNL     1      30.576 -22.827 -16.916  0.00  0.00    -0.267 OA
ATOM      9  N   UNL     1      33.872 -24.117 -14.899  0.00  0.00    -0.214 N 
ATOM     10  N   UNL     1      31.515 -23.789 -15.027  0.00  0.00    -0.234 N 
ATOM     11  C   UNL     1      32.607 -24.254 -14.276  0.00  0.00    +0.316 C 
ATOM     12  C   UNL     1      33.969 -23.555 -16.166  0.00  0.00    +0.106 C 
ATOM     13  C   UNL     1      32.913 -23.124 -16.852  0.00  0.00    +0.208 C 
ATOM     14  C   UNL     1      31.557 -23.221 -16.293  0.00  0.00    +0.282 C 
ATOM     15  H   UNL     1      30.627 -23.875 -14.612  0.00  0.00    +0.159 HD
ENDBRANCH   4   9
BRANCH   2  16
ATOM     16  O2* UNL     1      35.645 -26.776 -15.070  0.00  0.00    -0.378 OA
ATOM     17  H2* UNL     1      36.179 -27.265 -15.714  0.00  0.00    +0.211 HD
ENDBRANCH   2  16
BRANCH   3  18
ATOM     18  O3* UNL     1      37.579 -25.802 -13.412  0.00  0.00    -0.379 OA
ATOM     19  H3* UNL     1      36.888 -25.588 -12.768  0.00  0.00    +0.211 HD
ENDBRANCH   3  18
BRANCH   5  20
ATOM     20  C5* UNL     1      37.524 -22.696 -15.465  0.00  0.00    +0.169 C 
BRANCH  20  21
ATOM     21  O5* UNL     1      38.639 -23.214 -16.168  0.00  0.00    -0.379 OA
ATOM     22  H5* UNL     1      39.163 -23.775 -15.575  0.00  0.00    +0.211 HD
ENDBRANCH  20  21
ENDBRANCH   5  20
TORSDOF 5
ENDMDL
MODEL 4
REMARK VINA RESULT:      -7.7      6.468      8.654
REMARK  Name = 9427
REMARK  5 active torsions:
REMARK  status: ('A' for Active; 'I' for Inactive)
REMARK    1  A    between atoms: C2*_2  and  O2*_16
REMARK    2  A    between atoms: C3*_3  and  O3*_18
REMARK    3  A    between atoms: C1*_4  and  N_9
REMARK    4  A    between atoms: C4*_5  and  C5*_20
REMARK    5  A    between atoms: C5*_20  and  O5*_21
REMARK                            x       y       z     vdW  Elec       q    Type
REMARK                         _______ _______ _______ _____ _____    ______ ____
ROOT
ATOM      1  O4* UNL     1      35.285 -16.954 -20.795  0.00  0.00    -0.333 OA
ATOM      2  C2* UNL     1      34.695 -17.994 -22.842  0.00  0.00    +0.187 C 
ATOM      3  C3* UNL     1      34.475 -16.502 -22.975  0.00  0.00    +0.171 C 
ATOM      4  C1* UNL     1      35.618 -18.070 -21.637  0.00  0.00    +0.229 C 
ATOM      5  C4* UNL     1      34.415 -16.057 -21.520  0.00  0.00    +0.175 C 
ENDROOT
BRANCH   4   9
ATOM      6  F   UNL     1      32.645 -21.313 -19.784  0.00  0.00    -0.198 F 
ATOM      7  O   UNL     1      37.732 -19.644 -20.544  0.00  0.00    -0.252 OA
ATOM      8  O   UNL     1      34.758 -22.711 -18.799  0.00  0.00    -0.267 OA
ATOM      9  N   UNL     1      35.448 -19.285 -20.891  0.00  0.00    -0.214 N 
ATOM     10  N   UNL     1      36.252 -21.170 -19.675  0.00  0.00    -0.234 N 
ATOM     11  C   UNL     1      36.562 -19.999 -20.386  0.00  0.00    +0.316 C 
ATOM     12  C   UNL     1      34.159 -19.754 -20.669  0.00  0.00    +0.106 C 
ATOM     13  C   UNL     1      33.898 -20.869 -19.991  0.00  0.00    +0.208 C 
ATOM     14  C   UNL     1      34.986 -21.682 -19.426  0.00  0.00    +0.282 C 
ATOM     15  H   UNL     1      37.012 -21.681 -19.316  0.00  0.00    +0.159 HD
ENDBRANCH   4   9
BRANCH   2  16
ATOM     16  O2* UNL     1      35.269 -18.558 -24.002  0.00  0.00    -0.378 OA
ATOM     17  H2* UNL     1      34.989 -19.483 -24.084  0.00  0.00    +0.211 HD
ENDBRANCH   2  16
BRANCH   3  18
ATOM     18  O3* UNL     1      35.613 -15.886 -23.577  0.00  0.00    -0.379 OA
ATOM     19  H3* UNL     1      36.114 -15.402 -22.902  0.00  0.00    +0.211 HD
ENDBRANCH   3  18
BRANCH   5  20
ATOM     20  C5* UNL     1      33.021 -16.157 -20.917  0.00  0.00    +0.169 C 
BRANCH  20  21
ATOM     21  O5* UNL     1      32.187 -15.197 -21.543  0.00  0.00    -0.379 OA
ATOM     22  H5* UNL     1      32.336 -14.328 -21.141  0.00  0.00    +0.211 HD
ENDBRANCH  20  21
ENDBRANCH   5  20
TORSDOF 5
ENDMDL
MODEL 5
REMARK VINA RESULT:      -7.6      1.509      1.856
REMARK  Name = 9427
REMARK  5 active torsions:
REMARK  status: ('A' for Active; 'I' for Inactive)
REMARK    1  A    between atoms: C2*_2  and  O2*_16
REMARK    2  A    between atoms: C3*_3  and  O3*_18
REMARK    3  A    between atoms: C1*_4  and  N_9
REMARK    4  A    between atoms: C4*_5  and  C5*_20
REMARK    5  A    between atoms: C5*_20  and  O5*_21
REMARK                            x       y       z     vdW  Elec       q    Type
REMARK                         _______ _______ _______ _____ _____    ______ ____
ROOT
ATOM      1  O4* UNL     1      35.876 -25.244 -13.102  0.00  0.00    -0.333 OA
ATOM      2  C2* UNL     1      36.823 -23.201 -13.840  0.00  0.00    +0.187 C 
ATOM      3  C3* UNL     1      37.714 -23.788 -12.766  0.00  0.00    +0.171 C 
ATOM      4  C1* UNL     1      36.003 -24.408 -14.264  0.00  0.00    +0.229 C 
ATOM      5  C4* UNL     1      36.777 -24.771 -12.077  0.00  0.00    +0.175 C 
ENDROOT
BRANCH   4   9
ATOM      6  F   UNL     1      31.325 -24.098 -13.358  0.00  0.00    -0.198 F 
ATOM      7  O   UNL     1      35.396 -23.331 -16.835  0.00  0.00    -0.252 OA
ATOM      8  O   UNL     1      30.896 -23.080 -15.843  0.00  0.00    -0.267 OA
ATOM      9  N   UNL     1      34.692 -24.047 -14.723  0.00  0.00    -0.214 N 
ATOM     10  N   UNL     1      33.156 -23.208 -16.341  0.00  0.00    -0.234 N 
ATOM     11  C   UNL     1      34.488 -23.518 -16.022  0.00  0.00    +0.316 C 
ATOM     12  C   UNL     1      33.613 -24.225 -13.865  0.00  0.00    +0.106 C 
ATOM     13  C   UNL     1      32.361 -23.920 -14.199  0.00  0.00    +0.208 C 
ATOM     14  C   UNL     1      32.045 -23.366 -15.524  0.00  0.00    +0.282 C 
ATOM     15  H   UNL     1      32.994 -22.839 -17.239  0.00  0.00    +0.159 HD
ENDBRANCH   4   9
BRANCH   2  16
ATOM     16  O2* UNL     1      37.563 -22.646 -14.907  0.00  0.00    -0.378 OA
ATOM     17  H2* UNL     1      38.492 -22.559 -14.646  0.00  0.00    +0.211 HD
ENDBRANCH   2  16
BRANCH   3  18
ATOM     18  O3* UNL     1      38.777 -24.533 -13.358  0.00  0.00    -0.379 OA
ATOM     19  H3* UNL     1      39.299 -23.952 -13.932  0.00  0.00    +0.211 HD
ENDBRANCH   3  18
BRANCH   5  20
ATOM     20  C5* UNL     1      35.947 -24.137 -10.970  0.00  0.00    +0.169 C 
BRANCH  20  21
ATOM     21  O5* UNL     1      35.248 -25.161 -10.283  0.00  0.00    -0.379 OA
ATOM     22  H5* UNL     1      34.665 -24.764  -9.618  0.00  0.00    +0.211 HD
ENDBRANCH  20  21
ENDBRANCH   5  20
TORSDOF 5
ENDMDL
MODEL 6
REMARK VINA RESULT:      -7.6      1.681      2.388
REMARK  Name = 9427
REMARK  5 active torsions:
REMARK  status: ('A' for Active; 'I' for Inactive)
REMARK    1  A    between atoms: C2*_2  and  O2*_16
REMARK    2  A    between atoms: C3*_3  and  O3*_18
REMARK    3  A    between atoms: C1*_4  and  N_9
REMARK    4  A    between atoms: C4*_5  and  C5*_20
REMARK    5  A    between atoms: C5*_20  and  O5*_21
REMARK                            x       y       z     vdW  Elec       q    Type
REMARK                         _______ _______ _______ _____ _____    ______ ____
ROOT
ATOM      1  O4* UNL     1      36.441 -24.528 -15.687  0.00  0.00    -0.333 OA
ATOM      2  C2* UNL     1      35.905 -24.191 -13.403  0.00  0.00    +0.187 C 
ATOM      3  C3* UNL     1      37.291 -24.795 -13.492  0.00  0.00    +0.171 C 
ATOM      4  C1* UNL     1      35.702 -23.661 -14.812  0.00  0.00    +0.229 C 
ATOM      5  C4* UNL     1      37.292 -25.386 -14.895  0.00  0.00    +0.175 C 
ENDROOT
BRANCH   4   9
ATOM      6  F   UNL     1      31.154 -24.547 -13.661  0.00  0.00    -0.198 F 
ATOM      7  O   UNL     1      34.713 -22.859 -17.366  0.00  0.00    -0.252 OA
ATOM      8  O   UNL     1      30.356 -23.754 -16.136  0.00  0.00    -0.267 OA
ATOM      9  N   UNL     1      34.322 -23.667 -15.207  0.00  0.00    -0.214 N 
ATOM     10  N   UNL     1      32.545 -23.306 -16.754  0.00  0.00    -0.234 N 
ATOM     11  C   UNL     1      33.926 -23.249 -16.502  0.00  0.00    +0.316 C 
ATOM     12  C   UNL     1      33.369 -24.092 -14.289  0.00  0.00    +0.106 C 
ATOM     13  C   UNL     1      32.066 -24.133 -14.560  0.00  0.00    +0.208 C 
ATOM     14  C   UNL     1      31.554 -23.721 -15.875  0.00  0.00    +0.282 C 
ATOM     15  H   UNL     1      32.250 -23.020 -17.648  0.00  0.00    +0.159 HD
ENDBRANCH   4   9
BRANCH   2  16
ATOM     16  O2* UNL     1      35.823 -23.177 -12.424  0.00  0.00    -0.378 OA
ATOM     17  H2* UNL     1      36.699 -23.032 -12.034  0.00  0.00    +0.211 HD
ENDBRANCH   2  16
BRANCH   3  18
ATOM     18  O3* UNL     1      38.282 -23.768 -13.446  0.00  0.00    -0.379 OA
ATOM     19  H3* UNL     1      38.444 -23.517 -12.524  0.00  0.00    +0.211 HD
ENDBRANCH   3  18
BRANCH   5  20
ATOM     20  C5* UNL     1      36.729 -26.799 -14.953  0.00  0.00    +0.169 C 
BRANCH  20  21
ATOM     21  O5* UNL     1      36.780 -27.252 -16.295  0.00  0.00    -0.379 OA
ATOM     22  H5* UNL     1      35.995 -27.791 -16.484  0.00  0.00    +0.211 HD
ENDBRANCH  20  21
ENDBRANCH   5  20
TORSDOF 5
ENDMDL
MODEL 7
REMARK VINA RESULT:      -7.5      6.297      8.483
REMARK  Name = 9427
REMARK  5 active torsions:
REMARK  status: ('A' for Active; 'I' for Inactive)
REMARK    1  A    between atoms: C2*_2  and  O2*_16
REMARK    2  A    between atoms: C3*_3  and  O3*_18
REMARK    3  A    between atoms: C1*_4  and  N_9
REMARK    4  A    between atoms: C4*_5  and  C5*_20
REMARK    5  A    between atoms: C5*_20  and  O5*_21
REMARK                            x       y       z     vdW  Elec       q    Type
REMARK                         _______ _______ _______ _____ _____    ______ ____
ROOT
ATOM      1  O4* UNL     1      35.320 -17.261 -20.705  0.00  0.00    -0.333 OA
ATOM      2  C2* UNL     1      34.690 -18.318 -22.731  0.00  0.00    +0.187 C 
ATOM      3  C3* UNL     1      34.621 -16.818 -22.925  0.00  0.00    +0.171 C 
ATOM      4  C1* UNL     1      35.566 -18.436 -21.495  0.00  0.00    +0.229 C 
ATOM      5  C4* UNL     1      34.563 -16.314 -21.489  0.00  0.00    +0.175 C 
ENDROOT
BRANCH   4   9
ATOM      6  F   UNL     1      37.123 -21.982 -18.703  0.00  0.00    -0.198 F 
ATOM      7  O   UNL     1      32.957 -19.530 -21.127  0.00  0.00    -0.252 OA
ATOM      8  O   UNL     1      34.581 -22.913 -18.442  0.00  0.00    -0.267 OA
ATOM      9  N   UNL     1      35.257 -19.598 -20.712  0.00  0.00    -0.214 N 
ATOM     10  N   UNL     1      33.766 -21.214 -19.792  0.00  0.00    -0.234 N 
ATOM     11  C   UNL     1      33.926 -20.068 -20.588  0.00  0.00    +0.316 C 
ATOM     12  C   UNL     1      36.295 -20.263 -20.069  0.00  0.00    +0.106 C 
ATOM     13  C   UNL     1      36.109 -21.348 -19.320  0.00  0.00    +0.208 C 
ATOM     14  C   UNL     1      34.765 -21.915 -19.130  0.00  0.00    +0.282 C 
ATOM     15  H   UNL     1      32.849 -21.556 -19.693  0.00  0.00    +0.159 HD
ENDBRANCH   4   9
BRANCH   2  16
ATOM     16  O2* UNL     1      35.239 -18.980 -23.851  0.00  0.00    -0.378 OA
ATOM     17  H2* UNL     1      35.915 -19.609 -23.555  0.00  0.00    +0.211 HD
ENDBRANCH   2  16
BRANCH   3  18
ATOM     18  O3* UNL     1      35.830 -16.339 -23.511  0.00  0.00    -0.379 OA
ATOM     19  H3* UNL     1      35.756 -16.372 -24.477  0.00  0.00    +0.211 HD
ENDBRANCH   3  18
BRANCH   5  20
ATOM     20  C5* UNL     1      33.149 -16.254 -20.929  0.00  0.00    +0.169 C 
BRANCH  20  21
ATOM     21  O5* UNL     1      32.399 -15.322 -21.688  0.00  0.00    -0.379 OA
ATOM     22  H5* UNL     1      32.943 -14.987 -22.417  0.00  0.00    +0.211 HD
ENDBRANCH  20  21
ENDBRANCH   5  20
TORSDOF 5
ENDMDL
MODEL 8
REMARK VINA RESULT:      -7.5      2.259      3.843
REMARK  Name = 9427
REMARK  5 active torsions:
REMARK  status: ('A' for Active; 'I' for Inactive)
REMARK    1  A    between atoms: C2*_2  and  O2*_16
REMARK    2  A    between atoms: C3*_3  and  O3*_18
REMARK    3  A    between atoms: C1*_4  and  N_9
REMARK    4  A    between atoms: C4*_5  and  C5*_20
REMARK    5  A    between atoms: C5*_20  and  O5*_21
REMARK                            x       y       z     vdW  Elec       q    Type
REMARK                         _______ _______ _______ _____ _____    ______ ____
ROOT
ATOM      1  O4* UNL     1      37.262 -23.158 -13.777  0.00  0.00    -0.333 OA
ATOM      2  C2* UNL     1      36.018 -24.911 -12.777  0.00  0.00    +0.187 C 
ATOM      3  C3* UNL     1      37.436 -24.960 -12.249  0.00  0.00    +0.171 C 
ATOM      4  C1* UNL     1      35.938 -23.499 -13.334  0.00  0.00    +0.229 C 
ATOM      5  C4* UNL     1      38.193 -24.150 -13.292  0.00  0.00    +0.175 C 
ENDROOT
BRANCH   4   9
ATOM      6  F   UNL     1      35.298 -22.604 -17.980  0.00  0.00    -0.198 F 
ATOM      7  O   UNL     1      33.123 -23.946 -13.214  0.00  0.00    -0.252 OA
ATOM      8  O   UNL     1      32.630 -23.059 -17.716  0.00  0.00    -0.267 OA
ATOM      9  N   UNL     1      35.034 -23.397 -14.444  0.00  0.00    -0.214 N 
ATOM     10  N   UNL     1      32.878 -23.503 -15.454  0.00  0.00    -0.234 N 
ATOM     11  C   UNL     1      33.646 -23.638 -14.286  0.00  0.00    +0.316 C 
ATOM     12  C   UNL     1      35.546 -23.054 -15.690  0.00  0.00    +0.106 C 
ATOM     13  C   UNL     1      34.789 -22.936 -16.779  0.00  0.00    +0.208 C 
ATOM     14  C   UNL     1      33.338 -23.165 -16.720  0.00  0.00    +0.282 C 
ATOM     15  H   UNL     1      31.912 -23.667 -15.366  0.00  0.00    +0.159 HD
ENDBRANCH   4   9
BRANCH   2  16
ATOM     16  O2* UNL     1      35.060 -25.151 -11.768  0.00  0.00    -0.378 OA
ATOM     17  H2* UNL     1      34.860 -24.322 -11.308  0.00  0.00    +0.211 HD
ENDBRANCH   2  16
BRANCH   3  18
ATOM     18  O3* UNL     1      37.525 -24.267 -11.004  0.00  0.00    -0.379 OA
ATOM     19  H3* UNL     1      36.669 -23.859 -10.800  0.00  0.00    +0.211 HD
ENDBRANCH   3  18
BRANCH   5  20
ATOM     20  C5* UNL     1      38.661 -24.983 -14.478  0.00  0.00    +0.169 C 
BRANCH  20  21
ATOM     21  O5* UNL     1      39.086 -24.107 -15.508  0.00  0.00    -0.379 OA
ATOM     22  H5* UNL     1      39.929 -23.699 -15.258  0.00  0.00    +0.211 HD
ENDBRANCH  20  21
ENDBRANCH   5  20
TORSDOF 5
ENDMDL
MODEL 9
REMARK VINA RESULT:      -7.4      2.339      3.589
REMARK  Name = 9427
REMARK  5 active torsions:
REMARK  status: ('A' for Active; 'I' for Inactive)
REMARK    1  A    between atoms: C2*_2  and  O2*_16
REMARK    2  A    between atoms: C3*_3  and  O3*_18
REMARK    3  A    between atoms: C1*_4  and  N_9
REMARK    4  A    between atoms: C4*_5  and  C5*_20
REMARK    5  A    between atoms: C5*_20  and  O5*_21
REMARK                            x       y       z     vdW  Elec       q    Type
REMARK                         _______ _______ _______ _____ _____    ______ ____
ROOT
ATOM      1  O4* UNL     1      37.803 -24.568 -14.385  0.00  0.00    -0.333 OA
ATOM      2  C2* UNL     1      35.806 -24.364 -13.125  0.00  0.00    +0.187 C 
ATOM      3  C3* UNL     1      36.748 -25.296 -12.393  0.00  0.00    +0.171 C 
ATOM      4  C1* UNL     1      36.749 -23.642 -14.072  0.00  0.00    +0.229 C 
ATOM      5  C4* UNL     1      37.716 -25.703 -13.496  0.00  0.00    +0.175 C 
ENDROOT
BRANCH   4   9
ATOM      6  F   UNL     1      32.842 -23.727 -16.814  0.00  0.00    -0.198 F 
ATOM      7  O   UNL     1      37.936 -22.047 -16.119  0.00  0.00    -0.252 OA
ATOM      8  O   UNL     1      34.101 -22.203 -18.681  0.00  0.00    -0.267 OA
ATOM      9  N   UNL     1      36.104 -23.240 -15.289  0.00  0.00    -0.214 N 
ATOM     10  N   UNL     1      36.027 -22.126 -17.394  0.00  0.00    -0.234 N 
ATOM     11  C   UNL     1      36.777 -22.445 -16.250  0.00  0.00    +0.316 C 
ATOM     12  C   UNL     1      34.794 -23.648 -15.513  0.00  0.00    +0.106 C 
ATOM     13  C   UNL     1      34.111 -23.326 -16.610  0.00  0.00    +0.208 C 
ATOM     14  C   UNL     1      34.720 -22.505 -17.667  0.00  0.00    +0.282 C 
ATOM     15  H   UNL     1      36.477 -21.574 -18.074  0.00  0.00    +0.159 HD
ENDBRANCH   4   9
BRANCH   2  16
ATOM     16  O2* UNL     1      35.135 -23.483 -12.249  0.00  0.00    -0.378 OA
ATOM     17  H2* UNL     1      35.126 -22.592 -12.632  0.00  0.00    +0.211 HD
ENDBRANCH   2  16
BRANCH   3  18
ATOM     18  O3* UNL     1      37.485 -24.578 -11.404  0.00  0.00    -0.379 OA
ATOM     19  H3* UNL     1      37.616 -25.141 -10.626  0.00  0.00    +0.211 HD
ENDBRANCH   3  18
BRANCH   5  20
ATOM     20  C5* UNL     1      37.238 -26.903 -14.302  0.00  0.00    +0.169 C 
BRANCH  20  21
ATOM     21  O5* UNL     1      37.389 -26.611 -15.681  0.00  0.00    -0.379 OA
ATOM     22  H5* UNL     1      36.760 -25.919 -15.936  0.00  0.00    +0.211 HD
ENDBRANCH  20  21
ENDBRANCH   5  20
TORSDOF 5
ENDMDL
