MODEL 1
REMARK VINA RESULT:     -12.0      0.000      0.000
REMARK  Name = 9933475
REMARK  8 active torsions:
REMARK  status: ('A' for Active; 'I' for Inactive)
REMARK    1  A    between atoms: C_3  and  O_13
REMARK    2  A    between atoms: C_4  and  O_11
REMARK    3  A    between atoms: C_9  and  O_23
REMARK    4  A    between atoms: O_13  and  C_14
REMARK    5  A    between atoms: C_14  and  C_15
REMARK    6  A    between atoms: C_15  and  C_16
REMARK    7  A    between atoms: C_16  and  N_17
REMARK    8  A    between atoms: O_23  and  C_31
REMARK                            x       y       z     vdW  Elec       q    Type
REMARK                         _______ _______ _______ _____ _____    ______ ____
ROOT
ATOM      1  N   UNL     1      34.256 -17.633 -25.686  0.00  0.00    -0.248 NA
ATOM      2  N   UNL     1      35.260 -19.145 -24.102  0.00  0.00    -0.214 NA
ATOM      3  C   UNL     1      33.528 -14.443 -24.053  0.00  0.00    +0.173 C 
ATOM      4  C   UNL     1      33.976 -14.675 -22.761  0.00  0.00    +0.169 C 
ATOM      5  C   UNL     1      33.624 -15.435 -25.028  0.00  0.00    +0.055 C 
ATOM      6  C   UNL     1      34.620 -16.914 -23.428  0.00  0.00    +0.141 C 
ATOM      7  C   UNL     1      34.168 -16.684 -24.738  0.00  0.00    +0.072 C 
ATOM      8  C   UNL     1      34.524 -15.914 -22.444  0.00  0.00    +0.029 C 
ATOM      9  C   UNL     1      35.157 -18.173 -23.176  0.00  0.00    +0.213 C 
ATOM     10  C   UNL     1      34.796 -18.812 -25.317  0.00  0.00    +0.253 C 
ENDROOT
BRANCH   4  11
ATOM     11  O   UNL     1      33.886 -13.712 -21.803  0.00  0.00    -0.469 OA
ATOM     12  C   UNL     1      32.716 -13.716 -20.986  0.00  0.00    +0.253 C 
ENDBRANCH   4  11
BRANCH   3  13
ATOM     13  O   UNL     1      32.983 -13.231 -24.388  0.00  0.00    -0.472 OA
BRANCH  13  14
ATOM     14  C   UNL     1      33.677 -12.463 -25.361  0.00  0.00    +0.203 C 
BRANCH  14  15
ATOM     15  C   UNL     1      34.207 -11.197 -24.701  0.00  0.00    +0.025 C 
BRANCH  15  16
ATOM     16  C   UNL     1      33.226 -10.650 -23.669  0.00  0.00    -0.074 C 
BRANCH  16  17
ATOM     17  N   UNL     1      33.590  -9.292 -23.295  0.00  0.00    +0.387 N 
ATOM     18  C   UNL     1      34.756  -8.804 -24.030  0.00  0.00    -0.077 C 
ATOM     19  C   UNL     1      32.527  -8.329 -23.587  0.00  0.00    -0.077 C 
ATOM     20  C   UNL     1      34.709  -7.303 -23.787  0.00  0.00    -0.025 C 
ATOM     21  C   UNL     1      33.245  -6.991 -23.491  0.00  0.00    -0.025 C 
ATOM     22  H   UNL     1      33.776  -9.352 -22.295  0.00  0.00    -0.080 HD
ENDBRANCH  16  17
ENDBRANCH  15  16
ENDBRANCH  14  15
ENDBRANCH  13  14
ENDBRANCH   3  13
BRANCH   9  23
ATOM     23  O   UNL     1      35.626 -18.491 -21.927  0.00  0.00    -0.437 OA
BRANCH  23  31
ATOM     24  F   UNL     1      36.825 -20.406 -20.366  0.00  0.00    -0.201 F 
ATOM     25  N   UNL     1      32.774 -21.979 -18.803  0.00  0.00    -0.316 N 
ATOM     26  C   UNL     1      34.693 -21.168 -19.600  0.00  0.00    +0.045 C 
ATOM     27  C   UNL     1      33.305 -21.025 -19.642  0.00  0.00    +0.050 C 
ATOM     28  C   UNL     1      33.776 -22.716 -18.233  0.00  0.00    +0.026 C 
ATOM     29  C   UNL     1      34.977 -22.238 -18.706  0.00  0.00    +0.014 C 
ATOM     30  C   UNL     1      35.488 -20.303 -20.378  0.00  0.00    +0.176 C 
ATOM     31  C   UNL     1      34.856 -19.341 -21.160  0.00  0.00    +0.174 C 
ATOM     32  C   UNL     1      32.668 -20.058 -20.428  0.00  0.00    +0.018 C 
ATOM     33  C   UNL     1      33.476 -19.212 -21.193  0.00  0.00    +0.041 C 
ATOM     34  C   UNL     1      33.481 -23.809 -17.288  0.00  0.00    +0.047 C 
ATOM     35  H   UNL     1      31.813 -22.110 -18.637  0.00  0.00    +0.152 HD
ENDBRANCH  23  31
ENDBRANCH   9  23
TORSDOF 8
ENDMDL
MODEL 2
REMARK VINA RESULT:     -11.0      1.843      2.730
REMARK  Name = 9933475
REMARK  8 active torsions:
REMARK  status: ('A' for Active; 'I' for Inactive)
REMARK    1  A    between atoms: C_3  and  O_13
REMARK    2  A    between atoms: C_4  and  O_11
REMARK    3  A    between atoms: C_9  and  O_23
REMARK    4  A    between atoms: O_13  and  C_14
REMARK    5  A    between atoms: C_14  and  C_15
REMARK    6  A    between atoms: C_15  and  C_16
REMARK    7  A    between atoms: C_16  and  N_17
REMARK    8  A    between atoms: O_23  and  C_31
REMARK                            x       y       z     vdW  Elec       q    Type
REMARK                         _______ _______ _______ _____ _____    ______ ____
ROOT
ATOM      1  N   UNL     1      34.273 -14.505 -20.914  0.00  0.00    -0.248 NA
ATOM      2  N   UNL     1      35.143 -16.720 -20.537  0.00  0.00    -0.214 NA
ATOM      3  C   UNL     1      33.491 -14.076 -24.460  0.00  0.00    +0.173 C 
ATOM      4  C   UNL     1      33.846 -15.310 -24.982  0.00  0.00    +0.169 C 
ATOM      5  C   UNL     1      33.636 -13.811 -23.099  0.00  0.00    +0.055 C 
ATOM      6  C   UNL     1      34.497 -16.020 -22.758  0.00  0.00    +0.141 C 
ATOM      7  C   UNL     1      34.138 -14.772 -22.225  0.00  0.00    +0.072 C 
ATOM      8  C   UNL     1      34.351 -16.288 -24.131  0.00  0.00    +0.029 C 
ATOM      9  C   UNL     1      34.995 -16.954 -21.855  0.00  0.00    +0.213 C 
ATOM     10  C   UNL     1      34.767 -15.493 -20.141  0.00  0.00    +0.253 C 
ENDROOT
BRANCH   4  11
ATOM     11  O   UNL     1      33.709 -15.577 -26.310  0.00  0.00    -0.469 OA
ATOM     12  C   UNL     1      32.460 -16.118 -26.738  0.00  0.00    +0.253 C 
ENDBRANCH   4  11
BRANCH   3  13
ATOM     13  O   UNL     1      32.993 -13.096 -25.279  0.00  0.00    -0.472 OA
BRANCH  13  14
ATOM     14  C   UNL     1      33.939 -12.322 -26.003  0.00  0.00    +0.203 C 
BRANCH  14  15
ATOM     15  C   UNL     1      34.369 -11.141 -25.145  0.00  0.00    +0.025 C 
BRANCH  15  16
ATOM     16  C   UNL     1      33.207 -10.598 -24.317  0.00  0.00    -0.074 C 
BRANCH  16  17
ATOM     17  N   UNL     1      33.639  -9.454 -23.528  0.00  0.00    +0.387 N 
ATOM     18  C   UNL     1      34.826  -8.807 -24.086  0.00  0.00    -0.077 C 
ATOM     19  C   UNL     1      32.625  -8.402 -23.469  0.00  0.00    -0.077 C 
ATOM     20  C   UNL     1      34.854  -7.468 -23.366  0.00  0.00    -0.025 C 
ATOM     21  C   UNL     1      33.409  -7.202 -22.956  0.00  0.00    -0.025 C 
ATOM     22  H   UNL     1      33.826  -9.847 -22.606  0.00  0.00    -0.080 HD
ENDBRANCH  16  17
ENDBRANCH  15  16
ENDBRANCH  14  15
ENDBRANCH  13  14
ENDBRANCH   3  13
BRANCH   9  23
ATOM     23  O   UNL     1      35.371 -18.202 -22.281  0.00  0.00    -0.437 OA
BRANCH  23  31
ATOM     24  F   UNL     1      33.042 -19.404 -21.458  0.00  0.00    -0.201 F 
ATOM     25  N   UNL     1      35.267 -22.214 -18.546  0.00  0.00    -0.316 N 
ATOM     26  C   UNL     1      34.259 -20.826 -19.972  0.00  0.00    +0.045 C 
ATOM     27  C   UNL     1      35.499 -21.208 -19.457  0.00  0.00    +0.050 C 
ATOM     28  C   UNL     1      33.926 -22.480 -18.469  0.00  0.00    +0.026 C 
ATOM     29  C   UNL     1      33.276 -21.638 -19.341  0.00  0.00    +0.014 C 
ATOM     30  C   UNL     1      34.213 -19.800 -20.938  0.00  0.00    +0.176 C 
ATOM     31  C   UNL     1      35.407 -19.209 -21.338  0.00  0.00    +0.174 C 
ATOM     32  C   UNL     1      36.701 -20.613 -19.859  0.00  0.00    +0.018 C 
ATOM     33  C   UNL     1      36.630 -19.598 -20.817  0.00  0.00    +0.041 C 
ATOM     34  C   UNL     1      33.403 -23.521 -17.564  0.00  0.00    +0.047 C 
ATOM     35  H   UNL     1      35.964 -22.676 -18.026  0.00  0.00    +0.152 HD
ENDBRANCH  23  31
ENDBRANCH   9  23
TORSDOF 8
ENDMDL
MODEL 3
REMARK VINA RESULT:     -10.9      3.433     11.455
REMARK  Name = 9933475
REMARK  8 active torsions:
REMARK  status: ('A' for Active; 'I' for Inactive)
REMARK    1  A    between atoms: C_3  and  O_13
REMARK    2  A    between atoms: C_4  and  O_11
REMARK    3  A    between atoms: C_9  and  O_23
REMARK    4  A    between atoms: O_13  and  C_14
REMARK    5  A    between atoms: C_14  and  C_15
REMARK    6  A    between atoms: C_15  and  C_16
REMARK    7  A    between atoms: C_16  and  N_17
REMARK    8  A    between atoms: O_23  and  C_31
REMARK                            x       y       z     vdW  Elec       q    Type
REMARK                         _______ _______ _______ _____ _____    ______ ____
ROOT
ATOM      1  N   UNL     1      32.520 -21.418 -19.909  0.00  0.00    -0.248 NA
ATOM      2  N   UNL     1      33.429 -19.764 -21.407  0.00  0.00    -0.214 NA
ATOM      3  C   UNL     1      35.158 -22.665 -17.706  0.00  0.00    +0.173 C 
ATOM      4  C   UNL     1      36.257 -21.939 -18.137  0.00  0.00    +0.169 C 
ATOM      5  C   UNL     1      33.910 -22.488 -18.301  0.00  0.00    +0.055 C 
ATOM      6  C   UNL     1      34.845 -20.848 -19.775  0.00  0.00    +0.141 C 
ATOM      7  C   UNL     1      33.728 -21.581 -19.342  0.00  0.00    +0.072 C 
ATOM      8  C   UNL     1      36.104 -21.026 -19.175  0.00  0.00    +0.029 C 
ATOM      9  C   UNL     1      34.625 -19.952 -20.817  0.00  0.00    +0.213 C 
ATOM     10  C   UNL     1      32.436 -20.518 -20.910  0.00  0.00    +0.253 C 
ENDROOT
BRANCH   4  11
ATOM     11  O   UNL     1      37.480 -22.107 -17.561  0.00  0.00    -0.469 OA
ATOM     12  C   UNL     1      37.606 -21.744 -16.187  0.00  0.00    +0.253 C 
ENDBRANCH   4  11
BRANCH   3  13
ATOM     13  O   UNL     1      35.284 -23.572 -16.685  0.00  0.00    -0.472 OA
BRANCH  13  14
ATOM     14  C   UNL     1      34.245 -23.598 -15.717  0.00  0.00    +0.203 C 
BRANCH  14  15
ATOM     15  C   UNL     1      34.627 -24.572 -14.611  0.00  0.00    +0.025 C 
BRANCH  15  16
ATOM     16  C   UNL     1      35.785 -25.471 -15.032  0.00  0.00    -0.074 C 
BRANCH  16  17
ATOM     17  N   UNL     1      37.030 -25.001 -14.443  0.00  0.00    +0.387 N 
ATOM     18  C   UNL     1      36.900 -24.717 -13.015  0.00  0.00    -0.077 C 
ATOM     19  C   UNL     1      38.102 -25.992 -14.538  0.00  0.00    -0.077 C 
ATOM     20  C   UNL     1      38.346 -24.634 -12.550  0.00  0.00    -0.025 C 
ATOM     21  C   UNL     1      39.137 -25.468 -13.553  0.00  0.00    -0.025 C 
ATOM     22  H   UNL     1      37.251 -24.159 -14.974  0.00  0.00    -0.080 HD
ENDBRANCH  16  17
ENDBRANCH  15  16
ENDBRANCH  14  15
ENDBRANCH  13  14
ENDBRANCH   3  13
BRANCH   9  23
ATOM     23  O   UNL     1      35.654 -19.190 -21.308  0.00  0.00    -0.437 OA
BRANCH  23  31
ATOM     24  F   UNL     1      35.053 -16.711 -20.289  0.00  0.00    -0.201 F 
ATOM     25  N   UNL     1      34.314 -14.926 -24.483  0.00  0.00    -0.316 N 
ATOM     26  C   UNL     1      34.687 -15.855 -22.489  0.00  0.00    +0.045 C 
ATOM     27  C   UNL     1      34.669 -16.103 -23.864  0.00  0.00    +0.050 C 
ATOM     28  C   UNL     1      34.109 -13.945 -23.550  0.00  0.00    +0.026 C 
ATOM     29  C   UNL     1      34.332 -14.490 -22.306  0.00  0.00    +0.014 C 
ATOM     30  C   UNL     1      35.024 -16.908 -21.615  0.00  0.00    +0.176 C 
ATOM     31  C   UNL     1      35.325 -18.153 -22.157  0.00  0.00    +0.174 C 
ATOM     32  C   UNL     1      34.972 -17.356 -24.410  0.00  0.00    +0.018 C 
ATOM     33  C   UNL     1      35.303 -18.384 -23.523  0.00  0.00    +0.041 C 
ATOM     34  C   UNL     1      33.717 -12.580 -23.948  0.00  0.00    +0.047 C 
ATOM     35  H   UNL     1      34.223 -14.806 -25.456  0.00  0.00    +0.152 HD
ENDBRANCH  23  31
ENDBRANCH   9  23
TORSDOF 8
ENDMDL
MODEL 4
REMARK VINA RESULT:     -10.7      3.145      5.824
REMARK  Name = 9933475
REMARK  8 active torsions:
REMARK  status: ('A' for Active; 'I' for Inactive)
REMARK    1  A    between atoms: C_3  and  O_13
REMARK    2  A    between atoms: C_4  and  O_11
REMARK    3  A    between atoms: C_9  and  O_23
REMARK    4  A    between atoms: O_13  and  C_14
REMARK    5  A    between atoms: C_14  and  C_15
REMARK    6  A    between atoms: C_15  and  C_16
REMARK    7  A    between atoms: C_16  and  N_17
REMARK    8  A    between atoms: O_23  and  C_31
REMARK                            x       y       z     vdW  Elec       q    Type
REMARK                         _______ _______ _______ _____ _____    ______ ____
ROOT
ATOM      1  N   UNL     1      34.120 -10.123 -24.442  0.00  0.00    -0.248 NA
ATOM      2  N   UNL     1      33.752 -12.446 -24.965  0.00  0.00    -0.214 NA
ATOM      3  C   UNL     1      32.232  -9.222 -21.443  0.00  0.00    +0.173 C 
ATOM      4  C   UNL     1      31.615 -10.421 -21.123  0.00  0.00    +0.169 C 
ATOM      5  C   UNL     1      33.069  -9.126 -22.554  0.00  0.00    +0.055 C 
ATOM      6  C   UNL     1      32.682 -11.438 -23.046  0.00  0.00    +0.141 C 
ATOM      7  C   UNL     1      33.311 -10.226 -23.374  0.00  0.00    +0.072 C 
ATOM      8  C   UNL     1      31.838 -11.535 -21.925  0.00  0.00    +0.029 C 
ATOM      9  C   UNL     1      32.947 -12.515 -23.888  0.00  0.00    +0.213 C 
ATOM     10  C   UNL     1      34.297 -11.237 -25.180  0.00  0.00    +0.253 C 
ENDROOT
BRANCH   4  11
ATOM     11  O   UNL     1      30.795 -10.523 -20.041  0.00  0.00    -0.469 OA
ATOM     12  C   UNL     1      31.394 -10.918 -18.808  0.00  0.00    +0.253 C 
ENDBRANCH   4  11
BRANCH   3  13
ATOM     13  O   UNL     1      32.026  -8.109 -20.668  0.00  0.00    -0.472 OA
BRANCH  13  14
ATOM     14  C   UNL     1      32.551  -6.882 -21.155  0.00  0.00    +0.203 C 
BRANCH  14  15
ATOM     15  C   UNL     1      31.398  -5.927 -21.428  0.00  0.00    +0.025 C 
BRANCH  15  16
ATOM     16  C   UNL     1      30.908  -6.038 -22.869  0.00  0.00    -0.074 C 
BRANCH  16  17
ATOM     17  N   UNL     1      31.768  -5.268 -23.755  0.00  0.00    +0.387 N 
ATOM     18  C   UNL     1      32.484  -6.112 -24.711  0.00  0.00    -0.077 C 
ATOM     19  C   UNL     1      31.016  -4.319 -24.576  0.00  0.00    -0.077 C 
ATOM     20  C   UNL     1      32.981  -5.112 -25.744  0.00  0.00    -0.025 C 
ATOM     21  C   UNL     1      32.018  -3.931 -25.653  0.00  0.00    -0.025 C 
ATOM     22  H   UNL     1      32.409  -4.790 -23.123  0.00  0.00    -0.080 HD
ENDBRANCH  16  17
ENDBRANCH  15  16
ENDBRANCH  14  15
ENDBRANCH  13  14
ENDBRANCH   3  13
BRANCH   9  23
ATOM     23  O   UNL     1      32.381 -13.740 -23.648  0.00  0.00    -0.437 OA
BRANCH  23  31
ATOM     24  F   UNL     1      33.140 -14.648 -21.169  0.00  0.00    -0.201 F 
ATOM     25  N   UNL     1      35.757 -18.004 -22.960  0.00  0.00    -0.316 N 
ATOM     26  C   UNL     1      34.475 -16.361 -22.166  0.00  0.00    +0.045 C 
ATOM     27  C   UNL     1      34.932 -16.969 -23.337  0.00  0.00    +0.050 C 
ATOM     28  C   UNL     1      35.836 -18.073 -21.595  0.00  0.00    +0.026 C 
ATOM     29  C   UNL     1      35.052 -17.069 -21.075  0.00  0.00    +0.014 C 
ATOM     30  C   UNL     1      33.603 -15.259 -22.270  0.00  0.00    +0.176 C 
ATOM     31  C   UNL     1      33.233 -14.820 -23.537  0.00  0.00    +0.174 C 
ATOM     32  C   UNL     1      34.561 -16.527 -24.612  0.00  0.00    +0.018 C 
ATOM     33  C   UNL     1      33.696 -15.433 -24.690  0.00  0.00    +0.041 C 
ATOM     34  C   UNL     1      36.657 -19.099 -20.926  0.00  0.00    +0.047 C 
ATOM     35  H   UNL     1      36.222 -18.609 -23.582  0.00  0.00    +0.152 HD
ENDBRANCH  23  31
ENDBRANCH   9  23
TORSDOF 8
ENDMDL
MODEL 5
REMARK VINA RESULT:     -10.6      2.912     10.942
REMARK  Name = 9933475
REMARK  8 active torsions:
REMARK  status: ('A' for Active; 'I' for Inactive)
REMARK    1  A    between atoms: C_3  and  O_13
REMARK    2  A    between atoms: C_4  and  O_11
REMARK    3  A    between atoms: C_9  and  O_23
REMARK    4  A    between atoms: O_13  and  C_14
REMARK    5  A    between atoms: C_14  and  C_15
REMARK    6  A    between atoms: C_15  and  C_16
REMARK    7  A    between atoms: C_16  and  N_17
REMARK    8  A    between atoms: O_23  and  C_31
REMARK                            x       y       z     vdW  Elec       q    Type
REMARK                         _______ _______ _______ _____ _____    ______ ____
ROOT
ATOM      1  N   UNL     1      32.485 -21.329 -19.974  0.00  0.00    -0.248 NA
ATOM      2  N   UNL     1      33.415 -19.678 -21.462  0.00  0.00    -0.214 NA
ATOM      3  C   UNL     1      35.103 -22.612 -17.768  0.00  0.00    +0.173 C 
ATOM      4  C   UNL     1      36.210 -21.895 -18.192  0.00  0.00    +0.169 C 
ATOM      5  C   UNL     1      33.858 -22.420 -18.367  0.00  0.00    +0.055 C 
ATOM      6  C   UNL     1      34.815 -20.783 -19.831  0.00  0.00    +0.141 C 
ATOM      7  C   UNL     1      33.689 -21.506 -19.405  0.00  0.00    +0.072 C 
ATOM      8  C   UNL     1      36.070 -20.977 -19.227  0.00  0.00    +0.029 C 
ATOM      9  C   UNL     1      34.607 -19.880 -20.870  0.00  0.00    +0.213 C 
ATOM     10  C   UNL     1      32.413 -20.425 -20.972  0.00  0.00    +0.253 C 
ENDROOT
BRANCH   4  11
ATOM     11  O   UNL     1      37.429 -22.078 -17.614  0.00  0.00    -0.469 OA
ATOM     12  C   UNL     1      37.662 -21.420 -16.369  0.00  0.00    +0.253 C 
ENDBRANCH   4  11
BRANCH   3  13
ATOM     13  O   UNL     1      35.217 -23.525 -16.751  0.00  0.00    -0.472 OA
BRANCH  13  14
ATOM     14  C   UNL     1      34.786 -23.107 -15.463  0.00  0.00    +0.203 C 
BRANCH  14  15
ATOM     15  C   UNL     1      33.617 -23.981 -15.028  0.00  0.00    +0.025 C 
BRANCH  15  16
ATOM     16  C   UNL     1      32.617 -23.197 -14.183  0.00  0.00    -0.074 C 
BRANCH  16  17
ATOM     17  N   UNL     1      31.264 -23.670 -14.435  0.00  0.00    +0.387 N 
ATOM     18  C   UNL     1      30.872 -23.520 -15.835  0.00  0.00    -0.077 C 
ATOM     19  C   UNL     1      31.107 -25.095 -14.147  0.00  0.00    -0.077 C 
ATOM     20  C   UNL     1      29.639 -24.404 -15.941  0.00  0.00    -0.025 C 
ATOM     21  C   UNL     1      29.791 -25.438 -14.829  0.00  0.00    -0.025 C 
ATOM     22  H   UNL     1      30.685 -23.098 -13.820  0.00  0.00    -0.080 HD
ENDBRANCH  16  17
ENDBRANCH  15  16
ENDBRANCH  14  15
ENDBRANCH  13  14
ENDBRANCH   3  13
BRANCH   9  23
ATOM     23  O   UNL     1      35.646 -19.127 -21.354  0.00  0.00    -0.437 OA
BRANCH  23  31
ATOM     24  F   UNL     1      34.998 -16.672 -20.307  0.00  0.00    -0.201 F 
ATOM     25  N   UNL     1      34.349 -14.818 -24.486  0.00  0.00    -0.316 N 
ATOM     26  C   UNL     1      34.680 -15.780 -22.501  0.00  0.00    +0.045 C 
ATOM     27  C   UNL     1      34.698 -16.004 -23.879  0.00  0.00    +0.050 C 
ATOM     28  C   UNL     1      34.112 -13.856 -23.542  0.00  0.00    +0.026 C 
ATOM     29  C   UNL     1      34.309 -14.421 -22.303  0.00  0.00    +0.014 C 
ATOM     30  C   UNL     1      35.004 -16.845 -21.637  0.00  0.00    +0.176 C 
ATOM     31  C   UNL     1      35.329 -18.078 -22.193  0.00  0.00    +0.174 C 
ATOM     32  C   UNL     1      35.025 -17.244 -24.439  0.00  0.00    +0.018 C 
ATOM     33  C   UNL     1      35.342 -18.285 -23.563  0.00  0.00    +0.041 C 
ATOM     34  C   UNL     1      33.719 -12.487 -23.926  0.00  0.00    +0.047 C 
ATOM     35  H   UNL     1      34.281 -14.682 -25.459  0.00  0.00    +0.152 HD
ENDBRANCH  23  31
ENDBRANCH   9  23
TORSDOF 8
ENDMDL
MODEL 6
REMARK VINA RESULT:     -10.2      3.438     11.340
REMARK  Name = 9933475
REMARK  8 active torsions:
REMARK  status: ('A' for Active; 'I' for Inactive)
REMARK    1  A    between atoms: C_3  and  O_13
REMARK    2  A    between atoms: C_4  and  O_11
REMARK    3  A    between atoms: C_9  and  O_23
REMARK    4  A    between atoms: O_13  and  C_14
REMARK    5  A    between atoms: C_14  and  C_15
REMARK    6  A    between atoms: C_15  and  C_16
REMARK    7  A    between atoms: C_16  and  N_17
REMARK    8  A    between atoms: O_23  and  C_31
REMARK                            x       y       z     vdW  Elec       q    Type
REMARK                         _______ _______ _______ _____ _____    ______ ____
ROOT
ATOM      1  N   UNL     1      31.943 -12.870 -20.257  0.00  0.00    -0.248 NA
ATOM      2  N   UNL     1      31.512 -10.650 -21.091  0.00  0.00    -0.214 NA
ATOM      3  C   UNL     1      33.330 -14.942 -22.931  0.00  0.00    +0.173 C 
ATOM      4  C   UNL     1      33.366 -14.052 -23.993  0.00  0.00    +0.169 C 
ATOM      5  C   UNL     1      32.853 -14.542 -21.683  0.00  0.00    +0.055 C 
ATOM      6  C   UNL     1      32.438 -12.346 -22.544  0.00  0.00    +0.141 C 
ATOM      7  C   UNL     1      32.400 -13.244 -21.465  0.00  0.00    +0.072 C 
ATOM      8  C   UNL     1      32.918 -12.748 -23.803  0.00  0.00    +0.029 C 
ATOM      9  C   UNL     1      31.976 -11.058 -22.288  0.00  0.00    +0.213 C 
ATOM     10  C   UNL     1      31.523 -11.594 -20.136  0.00  0.00    +0.253 C 
ENDROOT
BRANCH   4  11
ATOM     11  O   UNL     1      33.829 -14.434 -25.215  0.00  0.00    -0.469 OA
ATOM     12  C   UNL     1      32.856 -14.780 -26.199  0.00  0.00    +0.253 C 
ENDBRANCH   4  11
BRANCH   3  13
ATOM     13  O   UNL     1      33.765 -16.232 -23.095  0.00  0.00    -0.472 OA
BRANCH  13  14
ATOM     14  C   UNL     1      35.081 -16.528 -22.650  0.00  0.00    +0.203 C 
BRANCH  14  15
ATOM     15  C   UNL     1      35.285 -18.036 -22.684  0.00  0.00    +0.025 C 
BRANCH  15  16
ATOM     16  C   UNL     1      36.041 -18.526 -21.453  0.00  0.00    -0.074 C 
BRANCH  16  17
ATOM     17  N   UNL     1      35.148 -19.264 -20.571  0.00  0.00    +0.387 N 
ATOM     18  C   UNL     1      33.831 -19.484 -21.167  0.00  0.00    -0.077 C 
ATOM     19  C   UNL     1      35.652 -20.601 -20.259  0.00  0.00    -0.077 C 
ATOM     20  C   UNL     1      33.233 -20.566 -20.282  0.00  0.00    -0.025 C 
ATOM     21  C   UNL     1      34.429 -21.299 -19.681  0.00  0.00    -0.025 C 
ATOM     22  H   UNL     1      35.089 -18.681 -19.736  0.00  0.00    -0.080 HD
ENDBRANCH  16  17
ENDBRANCH  15  16
ENDBRANCH  14  15
ENDBRANCH  13  14
ENDBRANCH   3  13
BRANCH   9  23
ATOM     23  O   UNL     1      31.975 -10.111 -23.279  0.00  0.00    -0.437 OA
BRANCH  23  31
ATOM     24  F   UNL     1      30.779  -8.188 -24.833  0.00  0.00    -0.201 F 
ATOM     25  N   UNL     1      31.968  -4.795 -21.935  0.00  0.00    -0.316 N 
ATOM     26  C   UNL     1      31.428  -6.484 -23.289  0.00  0.00    +0.045 C 
ATOM     27  C   UNL     1      32.076  -6.158 -22.096  0.00  0.00    +0.050 C 
ATOM     28  C   UNL     1      31.275  -4.250 -22.982  0.00  0.00    +0.026 C 
ATOM     29  C   UNL     1      30.926  -5.270 -23.837  0.00  0.00    +0.014 C 
ATOM     30  C   UNL     1      31.391  -7.833 -23.694  0.00  0.00    +0.176 C 
ATOM     31  C   UNL     1      32.004  -8.787 -22.888  0.00  0.00    +0.174 C 
ATOM     32  C   UNL     1      32.693  -7.117 -21.285  0.00  0.00    +0.018 C 
ATOM     33  C   UNL     1      32.645  -8.448 -21.707  0.00  0.00    +0.041 C 
ATOM     34  C   UNL     1      31.015  -2.800 -23.057  0.00  0.00    +0.047 C 
ATOM     35  H   UNL     1      32.335  -4.286 -21.176  0.00  0.00    +0.152 HD
ENDBRANCH  23  31
ENDBRANCH   9  23
TORSDOF 8
ENDMDL
MODEL 7
REMARK VINA RESULT:     -10.1      3.474     11.385
REMARK  Name = 9933475
REMARK  8 active torsions:
REMARK  status: ('A' for Active; 'I' for Inactive)
REMARK    1  A    between atoms: C_3  and  O_13
REMARK    2  A    between atoms: C_4  and  O_11
REMARK    3  A    between atoms: C_9  and  O_23
REMARK    4  A    between atoms: O_13  and  C_14
REMARK    5  A    between atoms: C_14  and  C_15
REMARK    6  A    between atoms: C_15  and  C_16
REMARK    7  A    between atoms: C_16  and  N_17
REMARK    8  A    between atoms: O_23  and  C_31
REMARK                            x       y       z     vdW  Elec       q    Type
REMARK                         _______ _______ _______ _____ _____    ______ ____
ROOT
ATOM      1  N   UNL     1      37.358 -20.121 -19.827  0.00  0.00    -0.248 NA
ATOM      2  N   UNL     1      36.283 -18.932 -21.626  0.00  0.00    -0.214 NA
ATOM      3  C   UNL     1      34.941 -22.323 -18.190  0.00  0.00    +0.173 C 
ATOM      4  C   UNL     1      33.790 -22.076 -18.921  0.00  0.00    +0.169 C 
ATOM      5  C   UNL     1      36.132 -21.667 -18.496  0.00  0.00    +0.055 C 
ATOM      6  C   UNL     1      35.034 -20.501 -20.277  0.00  0.00    +0.141 C 
ATOM      7  C   UNL     1      36.203 -20.748 -19.540  0.00  0.00    +0.072 C 
ATOM      8  C   UNL     1      33.832 -21.163 -19.969  0.00  0.00    +0.029 C 
ATOM      9  C   UNL     1      35.143 -19.577 -21.312  0.00  0.00    +0.213 C 
ATOM     10  C   UNL     1      37.335 -19.248 -20.854  0.00  0.00    +0.253 C 
ENDROOT
BRANCH   4  11
ATOM     11  O   UNL     1      32.622 -22.712 -18.628  0.00  0.00    -0.469 OA
ATOM     12  C   UNL     1      32.171 -22.652 -17.275  0.00  0.00    +0.253 C 
ENDBRANCH   4  11
BRANCH   3  13
ATOM     13  O   UNL     1      34.923 -23.218 -17.151  0.00  0.00    -0.472 OA
BRANCH  13  14
ATOM     14  C   UNL     1      35.651 -22.861 -15.984  0.00  0.00    +0.203 C 
BRANCH  14  15
ATOM     15  C   UNL     1      35.163 -23.713 -14.820  0.00  0.00    +0.025 C 
BRANCH  15  16
ATOM     16  C   UNL     1      35.409 -25.198 -15.073  0.00  0.00    -0.074 C 
BRANCH  16  17
ATOM     17  N   UNL     1      36.436 -25.700 -14.172  0.00  0.00    +0.387 N 
ATOM     18  C   UNL     1      37.784 -25.537 -14.715  0.00  0.00    -0.077 C 
ATOM     19  C   UNL     1      36.453 -24.989 -12.893  0.00  0.00    -0.077 C 
ATOM     20  C   UNL     1      38.671 -25.746 -13.497  0.00  0.00    -0.025 C 
ATOM     21  C   UNL     1      37.796 -25.391 -12.299  0.00  0.00    -0.025 C 
ATOM     22  H   UNL     1      36.198 -26.684 -14.050  0.00  0.00    -0.080 HD
ENDBRANCH  16  17
ENDBRANCH  15  16
ENDBRANCH  14  15
ENDBRANCH  13  14
ENDBRANCH   3  13
BRANCH   9  23
ATOM     23  O   UNL     1      34.056 -19.272 -22.089  0.00  0.00    -0.437 OA
BRANCH  23  31
ATOM     24  F   UNL     1      33.519 -16.888 -20.833  0.00  0.00    -0.201 F 
ATOM     25  N   UNL     1      34.156 -14.454 -24.705  0.00  0.00    -0.316 N 
ATOM     26  C   UNL     1      33.864 -15.694 -22.873  0.00  0.00    +0.045 C 
ATOM     27  C   UNL     1      34.183 -15.747 -24.232  0.00  0.00    +0.050 C 
ATOM     28  C   UNL     1      33.834 -13.588 -23.695  0.00  0.00    +0.026 C 
ATOM     29  C   UNL     1      33.647 -14.326 -22.548  0.00  0.00    +0.014 C 
ATOM     30  C   UNL     1      33.821 -16.896 -22.140  0.00  0.00    +0.176 C 
ATOM     31  C   UNL     1      34.098 -18.089 -22.800  0.00  0.00    +0.174 C 
ATOM     32  C   UNL     1      34.461 -16.946 -24.897  0.00  0.00    +0.018 C 
ATOM     33  C   UNL     1      34.412 -18.126 -24.149  0.00  0.00    +0.041 C 
ATOM     34  C   UNL     1      33.737 -12.136 -23.932  0.00  0.00    +0.047 C 
ATOM     35  H   UNL     1      34.344 -14.190 -25.634  0.00  0.00    +0.152 HD
ENDBRANCH  23  31
ENDBRANCH   9  23
TORSDOF 8
ENDMDL
MODEL 8
REMARK VINA RESULT:     -10.0      3.894     11.811
REMARK  Name = 9933475
REMARK  8 active torsions:
REMARK  status: ('A' for Active; 'I' for Inactive)
REMARK    1  A    between atoms: C_3  and  O_13
REMARK    2  A    between atoms: C_4  and  O_11
REMARK    3  A    between atoms: C_9  and  O_23
REMARK    4  A    between atoms: O_13  and  C_14
REMARK    5  A    between atoms: C_14  and  C_15
REMARK    6  A    between atoms: C_15  and  C_16
REMARK    7  A    between atoms: C_16  and  N_17
REMARK    8  A    between atoms: O_23  and  C_31
REMARK                            x       y       z     vdW  Elec       q    Type
REMARK                         _______ _______ _______ _____ _____    ______ ____
ROOT
ATOM      1  N   UNL     1      31.429 -11.379 -21.455  0.00  0.00    -0.248 NA
ATOM      2  N   UNL     1      31.966  -9.080 -20.970  0.00  0.00    -0.214 NA
ATOM      3  C   UNL     1      33.244 -12.464 -24.438  0.00  0.00    +0.173 C 
ATOM      4  C   UNL     1      33.948 -11.319 -24.776  0.00  0.00    +0.169 C 
ATOM      5  C   UNL     1      32.403 -12.480 -23.326  0.00  0.00    +0.055 C 
ATOM      6  C   UNL     1      32.958 -10.194 -22.872  0.00  0.00    +0.141 C 
ATOM      7  C   UNL     1      32.243 -11.352 -22.524  0.00  0.00    +0.072 C 
ATOM      8  C   UNL     1      33.807 -10.178 -23.993  0.00  0.00    +0.029 C 
ATOM      9  C   UNL     1      32.773  -9.088 -22.048  0.00  0.00    +0.213 C 
ATOM     10  C   UNL     1      31.335 -10.242 -20.735  0.00  0.00    +0.253 C 
ENDROOT
BRANCH   4  11
ATOM     11  O   UNL     1      34.771 -11.294 -25.860  0.00  0.00    -0.469 OA
ATOM     12  C   UNL     1      35.679 -10.199 -25.961  0.00  0.00    +0.253 C 
ENDBRANCH   4  11
BRANCH   3  13
ATOM     13  O   UNL     1      33.366 -13.600 -25.195  0.00  0.00    -0.472 OA
BRANCH  13  14
ATOM     14  C   UNL     1      33.404 -14.836 -24.497  0.00  0.00    +0.203 C 
BRANCH  14  15
ATOM     15  C   UNL     1      33.722 -15.950 -25.485  0.00  0.00    +0.025 C 
BRANCH  15  16
ATOM     16  C   UNL     1      34.902 -16.795 -25.014  0.00  0.00    -0.074 C 
BRANCH  16  17
ATOM     17  N   UNL     1      34.569 -17.484 -23.777  0.00  0.00    +0.387 N 
ATOM     18  C   UNL     1      34.728 -18.934 -23.884  0.00  0.00    -0.077 C 
ATOM     19  C   UNL     1      35.435 -17.088 -22.666  0.00  0.00    -0.077 C 
ATOM     20  C   UNL     1      34.718 -19.387 -22.432  0.00  0.00    -0.025 C 
ATOM     21  C   UNL     1      35.178 -18.173 -21.630  0.00  0.00    -0.025 C 
ATOM     22  H   UNL     1      33.598 -17.226 -23.604  0.00  0.00    -0.080 HD
ENDBRANCH  16  17
ENDBRANCH  15  16
ENDBRANCH  14  15
ENDBRANCH  13  14
ENDBRANCH   3  13
BRANCH   9  23
ATOM     23  O   UNL     1      33.429  -7.912 -22.305  0.00  0.00    -0.437 OA
BRANCH  23  31
ATOM     24  F   UNL     1      34.149  -6.758 -24.692  0.00  0.00    -0.201 F 
ATOM     25  N   UNL     1      30.631  -3.771 -24.559  0.00  0.00    -0.316 N 
ATOM     26  C   UNL     1      32.307  -5.243 -24.557  0.00  0.00    +0.045 C 
ATOM     27  C   UNL     1      31.192  -4.802 -23.840  0.00  0.00    +0.050 C 
ATOM     28  C   UNL     1      31.350  -3.545 -25.701  0.00  0.00    +0.026 C 
ATOM     29  C   UNL     1      32.394  -4.442 -25.729  0.00  0.00    +0.014 C 
ATOM     30  C   UNL     1      33.072  -6.305 -24.035  0.00  0.00    +0.176 C 
ATOM     31  C   UNL     1      32.685  -6.872 -22.825  0.00  0.00    +0.174 C 
ATOM     32  C   UNL     1      30.802  -5.372 -22.623  0.00  0.00    +0.018 C 
ATOM     33  C   UNL     1      31.576  -6.424 -22.125  0.00  0.00    +0.041 C 
ATOM     34  C   UNL     1      30.961  -2.490 -26.656  0.00  0.00    +0.047 C 
ATOM     35  H   UNL     1      29.828  -3.269 -24.290  0.00  0.00    +0.152 HD
ENDBRANCH  23  31
ENDBRANCH   9  23
TORSDOF 8
ENDMDL
MODEL 9
REMARK VINA RESULT:      -9.8      3.480     11.255
REMARK  Name = 9933475
REMARK  8 active torsions:
REMARK  status: ('A' for Active; 'I' for Inactive)
REMARK    1  A    between atoms: C_3  and  O_13
REMARK    2  A    between atoms: C_4  and  O_11
REMARK    3  A    between atoms: C_9  and  O_23
REMARK    4  A    between atoms: O_13  and  C_14
REMARK    5  A    between atoms: C_14  and  C_15
REMARK    6  A    between atoms: C_15  and  C_16
REMARK    7  A    between atoms: C_16  and  N_17
REMARK    8  A    between atoms: O_23  and  C_31
REMARK                            x       y       z     vdW  Elec       q    Type
REMARK                         _______ _______ _______ _____ _____    ______ ____
ROOT
ATOM      1  N   UNL     1      37.443 -20.015 -20.200  0.00  0.00    -0.248 NA
ATOM      2  N   UNL     1      36.371 -18.595 -21.825  0.00  0.00    -0.214 NA
ATOM      3  C   UNL     1      34.946 -22.146 -18.590  0.00  0.00    +0.173 C 
ATOM      4  C   UNL     1      33.779 -21.747 -19.223  0.00  0.00    +0.169 C 
ATOM      5  C   UNL     1      36.169 -21.564 -18.920  0.00  0.00    +0.055 C 
ATOM      6  C   UNL     1      35.073 -20.168 -20.528  0.00  0.00    +0.141 C 
ATOM      7  C   UNL     1      36.258 -20.569 -19.890  0.00  0.00    +0.072 C 
ATOM      8  C   UNL     1      33.839 -20.754 -20.196  0.00  0.00    +0.029 C 
ATOM      9  C   UNL     1      35.201 -19.171 -21.491  0.00  0.00    +0.213 C 
ATOM     10  C   UNL     1      37.436 -19.059 -21.151  0.00  0.00    +0.253 C 
ENDROOT
BRANCH   4  11
ATOM     11  O   UNL     1      32.580 -22.310 -18.907  0.00  0.00    -0.469 OA
ATOM     12  C   UNL     1      32.244 -22.386 -17.522  0.00  0.00    +0.253 C 
ENDBRANCH   4  11
BRANCH   3  13
ATOM     13  O   UNL     1      34.912 -23.122 -17.627  0.00  0.00    -0.472 OA
BRANCH  13  14
ATOM     14  C   UNL     1      35.632 -22.866 -16.429  0.00  0.00    +0.203 C 
BRANCH  14  15
ATOM     15  C   UNL     1      34.893 -23.509 -15.264  0.00  0.00    +0.025 C 
BRANCH  15  16
ATOM     16  C   UNL     1      35.435 -24.902 -14.958  0.00  0.00    -0.074 C 
BRANCH  16  17
ATOM     17  N   UNL     1      36.690 -24.807 -14.227  0.00  0.00    +0.387 N 
ATOM     18  C   UNL     1      36.561 -24.031 -12.995  0.00  0.00    -0.077 C 
ATOM     19  C   UNL     1      37.188 -26.115 -13.801  0.00  0.00    -0.077 C 
ATOM     20  C   UNL     1      37.827 -24.389 -12.232  0.00  0.00    -0.025 C 
ATOM     21  C   UNL     1      38.242 -25.757 -12.764  0.00  0.00    -0.025 C 
ATOM     22  H   UNL     1      37.326 -24.361 -14.886  0.00  0.00    -0.080 HD
ENDBRANCH  16  17
ENDBRANCH  15  16
ENDBRANCH  14  15
ENDBRANCH  13  14
ENDBRANCH   3  13
BRANCH   9  23
ATOM     23  O   UNL     1      34.100 -18.715 -22.169  0.00  0.00    -0.437 OA
BRANCH  23  31
ATOM     24  F   UNL     1      34.583 -17.150 -24.374  0.00  0.00    -0.201 F 
ATOM     25  N   UNL     1      33.180 -13.310 -22.228  0.00  0.00    -0.316 N 
ATOM     26  C   UNL     1      33.843 -15.204 -23.201  0.00  0.00    +0.045 C 
ATOM     27  C   UNL     1      33.342 -14.661 -22.017  0.00  0.00    +0.050 C 
ATOM     28  C   UNL     1      33.560 -12.982 -23.501  0.00  0.00    +0.026 C 
ATOM     29  C   UNL     1      33.974 -14.134 -24.129  0.00  0.00    +0.014 C 
ATOM     30  C   UNL     1      34.102 -16.589 -23.255  0.00  0.00    +0.176 C 
ATOM     31  C   UNL     1      33.848 -17.358 -22.125  0.00  0.00    +0.174 C 
ATOM     32  C   UNL     1      33.086 -15.434 -20.879  0.00  0.00    +0.018 C 
ATOM     33  C   UNL     1      33.351 -16.804 -20.956  0.00  0.00    +0.041 C 
ATOM     34  C   UNL     1      33.485 -11.593 -23.989  0.00  0.00    +0.047 C 
ATOM     35  H   UNL     1      32.839 -12.672 -21.560  0.00  0.00    +0.152 HD
ENDBRANCH  23  31
ENDBRANCH   9  23
TORSDOF 8
ENDMDL
