MODEL 1
REMARK VINA RESULT:      -7.3      0.000      0.000
REMARK  Name = 4476954
REMARK  14 active torsions:
REMARK  status: ('A' for Active; 'I' for Inactive)
REMARK    1  A    between atoms: C_1  and  C_2
REMARK    2  A    between atoms: C_1  and  C_14
REMARK    3  A    between atoms: C_2  and  N_3
REMARK    4  A    between atoms: N_3  and  C_7
REMARK    5  A    between atoms: C_8  and  N_11
REMARK    6  A    between atoms: C_14  and  O_15
REMARK    7  A    between atoms: O_15  and  C_16
REMARK    8  A    between atoms: C_16  and  C_17
REMARK    9  A    between atoms: C_17  and  O_18
REMARK   10  A    between atoms: O_18  and  C_19
REMARK   11  A    between atoms: C_19  and  C_20
REMARK   12  A    between atoms: C_20  and  O_21
REMARK   13  A    between atoms: O_21  and  C_22
REMARK   14  A    between atoms: C_22  and  C_23
REMARK                            x       y       z     vdW  Elec       q    Type
REMARK                         _______ _______ _______ _____ _____    ______ ____
ROOT
ATOM      1  C   UNL     1      36.422 -22.707 -16.302  0.00  0.00    +0.053 C 
ENDROOT
BRANCH   1   2
ATOM      2  C   UNL     1      37.843 -22.817 -15.762  0.00  0.00    +0.090 C 
BRANCH   2   3
ATOM      3  N   UNL     1      38.213 -24.198 -15.561  0.00  0.00    -0.329 N 
ATOM      4  H   UNL     1      38.816 -24.621 -16.214  0.00  0.00    +0.147 HD
BRANCH   3   7
ATOM      5  O   UNL     1      38.718 -24.030 -12.389  0.00  0.00    -0.282 OA
ATOM      6  O   UNL     1      36.938 -26.444 -11.824  0.00  0.00    -0.282 OA
ATOM      7  C   UNL     1      37.783 -24.917 -14.550  0.00  0.00    +0.104 C 
ATOM      8  C   UNL     1      36.991 -25.991 -14.299  0.00  0.00    +0.101 C 
ATOM      9  C   UNL     1      38.089 -24.736 -13.132  0.00  0.00    +0.250 C 
ATOM     10  C   UNL     1      37.228 -25.904 -12.860  0.00  0.00    +0.250 C 
BRANCH   8  11
ATOM     11  N   UNL     1      36.252 -26.861 -14.933  0.00  0.00    -0.353 N 
ATOM     12  H   UNL     1      36.563 -27.242 -15.787  0.00  0.00    +0.142 HD
ATOM     13  H   UNL     1      35.384 -27.136 -14.560  0.00  0.00    +0.142 HD
ENDBRANCH   8  11
ENDBRANCH   3   7
ENDBRANCH   2   3
ENDBRANCH   1   2
BRANCH   1  14
ATOM     14  C   UNL     1      36.336 -21.887 -17.584  0.00  0.00    +0.144 C 
BRANCH  14  15
ATOM     15  O   UNL     1      35.239 -22.358 -18.356  0.00  0.00    -0.351 OA
BRANCH  15  16
ATOM     16  C   UNL     1      35.178 -21.715 -19.622  0.00  0.00    +0.174 C 
BRANCH  16  17
ATOM     17  C   UNL     1      36.500 -21.020 -19.888  0.00  0.00    +0.174 C 
BRANCH  17  18
ATOM     18  O   UNL     1      36.248 -19.684 -20.306  0.00  0.00    -0.348 OA
BRANCH  18  19
ATOM     19  C   UNL     1      35.309 -19.642 -21.372  0.00  0.00    +0.174 C 
BRANCH  19  20
ATOM     20  C   UNL     1      34.355 -18.485 -21.144  0.00  0.00    +0.174 C 
BRANCH  20  21
ATOM     21  O   UNL     1      35.099 -17.345 -20.729  0.00  0.00    -0.351 OA
BRANCH  21  22
ATOM     22  C   UNL     1      34.738 -16.189 -21.471  0.00  0.00    +0.142 C 
BRANCH  22  23
ATOM     23  C   UNL     1      34.356 -15.081 -20.503  0.00  0.00    +0.032 C 
ATOM     24  C   UNL     1      32.945 -14.577 -20.749  0.00  0.00    +0.003 C 
ENDBRANCH  22  23
ENDBRANCH  21  22
ENDBRANCH  20  21
ENDBRANCH  19  20
ENDBRANCH  18  19
ENDBRANCH  17  18
ENDBRANCH  16  17
ENDBRANCH  15  16
ENDBRANCH  14  15
ENDBRANCH   1  14
TORSDOF 14
ENDMDL
MODEL 2
REMARK VINA RESULT:      -7.2      1.207      1.648
REMARK  Name = 4476954
REMARK  14 active torsions:
REMARK  status: ('A' for Active; 'I' for Inactive)
REMARK    1  A    between atoms: C_1  and  C_2
REMARK    2  A    between atoms: C_1  and  C_14
REMARK    3  A    between atoms: C_2  and  N_3
REMARK    4  A    between atoms: N_3  and  C_7
REMARK    5  A    between atoms: C_8  and  N_11
REMARK    6  A    between atoms: C_14  and  O_15
REMARK    7  A    between atoms: O_15  and  C_16
REMARK    8  A    between atoms: C_16  and  C_17
REMARK    9  A    between atoms: C_17  and  O_18
REMARK   10  A    between atoms: O_18  and  C_19
REMARK   11  A    between atoms: C_19  and  C_20
REMARK   12  A    between atoms: C_20  and  O_21
REMARK   13  A    between atoms: O_21  and  C_22
REMARK   14  A    between atoms: C_22  and  C_23
REMARK                            x       y       z     vdW  Elec       q    Type
REMARK                         _______ _______ _______ _____ _____    ______ ____
ROOT
ATOM      1  C   UNL     1      36.942 -21.862 -17.099  0.00  0.00    +0.053 C 
ENDROOT
BRANCH   1   2
ATOM      2  C   UNL     1      36.432 -22.855 -16.061  0.00  0.00    +0.090 C 
BRANCH   2   3
ATOM      3  N   UNL     1      37.501 -23.700 -15.586  0.00  0.00    -0.329 N 
ATOM      4  H   UNL     1      38.389 -23.609 -16.003  0.00  0.00    +0.147 HD
BRANCH   3   7
ATOM      5  O   UNL     1      38.533 -23.817 -12.542  0.00  0.00    -0.282 OA
ATOM      6  O   UNL     1      37.193 -26.512 -12.032  0.00  0.00    -0.282 OA
ATOM      7  C   UNL     1      37.349 -24.582 -14.627  0.00  0.00    +0.104 C 
ATOM      8  C   UNL     1      36.753 -25.781 -14.400  0.00  0.00    +0.101 C 
ATOM      9  C   UNL     1      37.875 -24.519 -13.264  0.00  0.00    +0.250 C 
ATOM     10  C   UNL     1      37.226 -25.822 -13.018  0.00  0.00    +0.250 C 
BRANCH   8  11
ATOM     11  N   UNL     1      36.026 -26.671 -15.020  0.00  0.00    -0.353 N 
ATOM     12  H   UNL     1      35.059 -26.525 -15.133  0.00  0.00    +0.142 HD
ATOM     13  H   UNL     1      36.445 -27.489 -15.374  0.00  0.00    +0.142 HD
ENDBRANCH   8  11
ENDBRANCH   3   7
ENDBRANCH   2   3
ENDBRANCH   1   2
BRANCH   1  14
ATOM     14  C   UNL     1      36.064 -21.801 -18.343  0.00  0.00    +0.144 C 
BRANCH  14  15
ATOM     15  O   UNL     1      35.113 -22.855 -18.285  0.00  0.00    -0.351 OA
BRANCH  15  16
ATOM     16  C   UNL     1      33.782 -22.364 -18.374  0.00  0.00    +0.174 C 
BRANCH  16  17
ATOM     17  C   UNL     1      33.560 -21.788 -19.760  0.00  0.00    +0.174 C 
BRANCH  17  18
ATOM     18  O   UNL     1      32.692 -20.665 -19.663  0.00  0.00    -0.348 OA
BRANCH  18  19
ATOM     19  C   UNL     1      32.972 -19.703 -20.669  0.00  0.00    +0.174 C 
BRANCH  19  20
ATOM     20  C   UNL     1      34.435 -19.802 -21.055  0.00  0.00    +0.174 C 
BRANCH  20  21
ATOM     21  O   UNL     1      35.093 -18.592 -20.698  0.00  0.00    -0.351 OA
BRANCH  21  22
ATOM     22  C   UNL     1      35.685 -17.968 -21.828  0.00  0.00    +0.142 C 
BRANCH  22  23
ATOM     23  C   UNL     1      34.956 -16.662 -22.107  0.00  0.00    +0.032 C 
ATOM     24  C   UNL     1      34.669 -15.891 -20.831  0.00  0.00    +0.003 C 
ENDBRANCH  22  23
ENDBRANCH  21  22
ENDBRANCH  20  21
ENDBRANCH  19  20
ENDBRANCH  18  19
ENDBRANCH  17  18
ENDBRANCH  16  17
ENDBRANCH  15  16
ENDBRANCH  14  15
ENDBRANCH   1  14
TORSDOF 14
ENDMDL
MODEL 3
REMARK VINA RESULT:      -7.1      4.287      6.583
REMARK  Name = 4476954
REMARK  14 active torsions:
REMARK  status: ('A' for Active; 'I' for Inactive)
REMARK    1  A    between atoms: C_1  and  C_2
REMARK    2  A    between atoms: C_1  and  C_14
REMARK    3  A    between atoms: C_2  and  N_3
REMARK    4  A    between atoms: N_3  and  C_7
REMARK    5  A    between atoms: C_8  and  N_11
REMARK    6  A    between atoms: C_14  and  O_15
REMARK    7  A    between atoms: O_15  and  C_16
REMARK    8  A    between atoms: C_16  and  C_17
REMARK    9  A    between atoms: C_17  and  O_18
REMARK   10  A    between atoms: O_18  and  C_19
REMARK   11  A    between atoms: C_19  and  C_20
REMARK   12  A    between atoms: C_20  and  O_21
REMARK   13  A    between atoms: O_21  and  C_22
REMARK   14  A    between atoms: C_22  and  C_23
REMARK                            x       y       z     vdW  Elec       q    Type
REMARK                         _______ _______ _______ _____ _____    ______ ____
ROOT
ATOM      1  C   UNL     1      35.393 -17.753 -21.381  0.00  0.00    +0.053 C 
ENDROOT
BRANCH   1   2
ATOM      2  C   UNL     1      34.555 -18.978 -21.033  0.00  0.00    +0.090 C 
BRANCH   2   3
ATOM      3  N   UNL     1      35.399 -20.116 -20.751  0.00  0.00    -0.329 N 
ATOM      4  H   UNL     1      36.230 -20.221 -21.269  0.00  0.00    +0.147 HD
BRANCH   3   7
ATOM      5  O   UNL     1      32.721 -21.763 -20.074  0.00  0.00    -0.282 OA
ATOM      6  O   UNL     1      34.036 -23.243 -17.752  0.00  0.00    -0.282 OA
ATOM      7  C   UNL     1      35.112 -21.015 -19.839  0.00  0.00    +0.104 C 
ATOM      8  C   UNL     1      35.697 -21.674 -18.806  0.00  0.00    +0.101 C 
ATOM      9  C   UNL     1      33.837 -21.701 -19.632  0.00  0.00    +0.250 C 
ATOM     10  C   UNL     1      34.475 -22.417 -18.509  0.00  0.00    +0.250 C 
BRANCH   8  11
ATOM     11  N   UNL     1      36.845 -21.749 -18.188  0.00  0.00    -0.353 N 
ATOM     12  H   UNL     1      37.458 -20.978 -18.194  0.00  0.00    +0.142 HD
ATOM     13  H   UNL     1      37.098 -22.576 -17.718  0.00  0.00    +0.142 HD
ENDBRANCH   8  11
ENDBRANCH   3   7
ENDBRANCH   2   3
ENDBRANCH   1   2
BRANCH   1  14
ATOM     14  C   UNL     1      35.338 -17.398 -22.862  0.00  0.00    +0.144 C 
BRANCH  14  15
ATOM     15  O   UNL     1      35.048 -18.574 -23.604  0.00  0.00    -0.351 OA
BRANCH  15  16
ATOM     16  C   UNL     1      34.500 -18.265 -24.879  0.00  0.00    +0.174 C 
BRANCH  16  17
ATOM     17  C   UNL     1      34.654 -16.778 -25.136  0.00  0.00    +0.174 C 
BRANCH  17  18
ATOM     18  O   UNL     1      33.729 -16.382 -26.141  0.00  0.00    -0.348 OA
BRANCH  18  19
ATOM     19  C   UNL     1      33.216 -15.081 -25.893  0.00  0.00    +0.174 C 
BRANCH  19  20
ATOM     20  C   UNL     1      33.557 -14.678 -24.471  0.00  0.00    +0.174 C 
BRANCH  20  21
ATOM     21  O   UNL     1      32.608 -13.720 -24.019  0.00  0.00    -0.351 OA
BRANCH  21  22
ATOM     22  C   UNL     1      32.668 -13.551 -22.610  0.00  0.00    +0.142 C 
BRANCH  22  23
ATOM     23  C   UNL     1      32.713 -14.921 -21.951  0.00  0.00    +0.032 C 
ATOM     24  C   UNL     1      32.810 -14.819 -20.440  0.00  0.00    +0.003 C 
ENDBRANCH  22  23
ENDBRANCH  21  22
ENDBRANCH  20  21
ENDBRANCH  19  20
ENDBRANCH  18  19
ENDBRANCH  17  18
ENDBRANCH  16  17
ENDBRANCH  15  16
ENDBRANCH  14  15
ENDBRANCH   1  14
TORSDOF 14
ENDMDL
MODEL 4
REMARK VINA RESULT:      -7.0      3.328      9.790
REMARK  Name = 4476954
REMARK  14 active torsions:
REMARK  status: ('A' for Active; 'I' for Inactive)
REMARK    1  A    between atoms: C_1  and  C_2
REMARK    2  A    between atoms: C_1  and  C_14
REMARK    3  A    between atoms: C_2  and  N_3
REMARK    4  A    between atoms: N_3  and  C_7
REMARK    5  A    between atoms: C_8  and  N_11
REMARK    6  A    between atoms: C_14  and  O_15
REMARK    7  A    between atoms: O_15  and  C_16
REMARK    8  A    between atoms: C_16  and  C_17
REMARK    9  A    between atoms: C_17  and  O_18
REMARK   10  A    between atoms: O_18  and  C_19
REMARK   11  A    between atoms: C_19  and  C_20
REMARK   12  A    between atoms: C_20  and  O_21
REMARK   13  A    between atoms: O_21  and  C_22
REMARK   14  A    between atoms: C_22  and  C_23
REMARK                            x       y       z     vdW  Elec       q    Type
REMARK                         _______ _______ _______ _____ _____    ______ ____
ROOT
ATOM      1  C   UNL     1      33.459 -21.323 -19.582  0.00  0.00    +0.053 C 
ENDROOT
BRANCH   1   2
ATOM      2  C   UNL     1      33.337 -20.093 -20.475  0.00  0.00    +0.090 C 
BRANCH   2   3
ATOM      3  N   UNL     1      34.619 -19.453 -20.649  0.00  0.00    -0.329 N 
ATOM      4  H   UNL     1      35.377 -19.770 -20.106  0.00  0.00    +0.147 HD
BRANCH   3   7
ATOM      5  O   UNL     1      35.082 -16.294 -20.258  0.00  0.00    -0.282 OA
ATOM      6  O   UNL     1      35.345 -15.807 -23.259  0.00  0.00    -0.282 OA
ATOM      7  C   UNL     1      34.823 -18.470 -21.495  0.00  0.00    +0.104 C 
ATOM      8  C   UNL     1      34.940 -18.253 -22.830  0.00  0.00    +0.101 C 
ATOM      9  C   UNL     1      35.023 -17.055 -21.187  0.00  0.00    +0.250 C 
ATOM     10  C   UNL     1      35.150 -16.820 -22.639  0.00  0.00    +0.250 C 
BRANCH   8  11
ATOM     11  N   UNL     1      34.908 -18.911 -23.958  0.00  0.00    -0.353 N 
ATOM     12  H   UNL     1      34.524 -18.491 -24.761  0.00  0.00    +0.142 HD
ATOM     13  H   UNL     1      35.267 -19.826 -24.005  0.00  0.00    +0.142 HD
ENDBRANCH   8  11
ENDBRANCH   3   7
ENDBRANCH   2   3
ENDBRANCH   1   2
BRANCH   1  14
ATOM     14  C   UNL     1      34.895 -21.816 -19.446  0.00  0.00    +0.144 C 
BRANCH  14  15
ATOM     15  O   UNL     1      34.994 -22.617 -18.276  0.00  0.00    -0.351 OA
BRANCH  15  16
ATOM     16  C   UNL     1      33.712 -22.965 -17.771  0.00  0.00    +0.174 C 
BRANCH  16  17
ATOM     17  C   UNL     1      33.854 -23.418 -16.330  0.00  0.00    +0.174 C 
BRANCH  17  18
ATOM     18  O   UNL     1      34.990 -24.267 -16.220  0.00  0.00    -0.348 OA
BRANCH  18  19
ATOM     19  C   UNL     1      35.672 -24.067 -14.990  0.00  0.00    +0.174 C 
BRANCH  19  20
ATOM     20  C   UNL     1      36.783 -23.056 -15.201  0.00  0.00    +0.174 C 
BRANCH  20  21
ATOM     21  O   UNL     1      37.770 -23.234 -14.191  0.00  0.00    -0.351 OA
BRANCH  21  22
ATOM     22  C   UNL     1      37.182 -23.351 -12.903  0.00  0.00    +0.142 C 
BRANCH  22  23
ATOM     23  C   UNL     1      38.037 -24.278 -12.054  0.00  0.00    +0.032 C 
ATOM     24  C   UNL     1      38.062 -25.691 -12.608  0.00  0.00    +0.003 C 
ENDBRANCH  22  23
ENDBRANCH  21  22
ENDBRANCH  20  21
ENDBRANCH  19  20
ENDBRANCH  18  19
ENDBRANCH  17  18
ENDBRANCH  16  17
ENDBRANCH  15  16
ENDBRANCH  14  15
ENDBRANCH   1  14
TORSDOF 14
ENDMDL
MODEL 5
REMARK VINA RESULT:      -6.9      2.352      3.391
REMARK  Name = 4476954
REMARK  14 active torsions:
REMARK  status: ('A' for Active; 'I' for Inactive)
REMARK    1  A    between atoms: C_1  and  C_2
REMARK    2  A    between atoms: C_1  and  C_14
REMARK    3  A    between atoms: C_2  and  N_3
REMARK    4  A    between atoms: N_3  and  C_7
REMARK    5  A    between atoms: C_8  and  N_11
REMARK    6  A    between atoms: C_14  and  O_15
REMARK    7  A    between atoms: O_15  and  C_16
REMARK    8  A    between atoms: C_16  and  C_17
REMARK    9  A    between atoms: C_17  and  O_18
REMARK   10  A    between atoms: O_18  and  C_19
REMARK   11  A    between atoms: C_19  and  C_20
REMARK   12  A    between atoms: C_20  and  O_21
REMARK   13  A    between atoms: O_21  and  C_22
REMARK   14  A    between atoms: C_22  and  C_23
REMARK                            x       y       z     vdW  Elec       q    Type
REMARK                         _______ _______ _______ _____ _____    ______ ____
ROOT
ATOM      1  C   UNL     1      33.406 -23.197 -14.637  0.00  0.00    +0.053 C 
ENDROOT
BRANCH   1   2
ATOM      2  C   UNL     1      34.399 -24.022 -13.828  0.00  0.00    +0.090 C 
BRANCH   2   3
ATOM      3  N   UNL     1      34.939 -25.102 -14.620  0.00  0.00    -0.329 N 
ATOM      4  H   UNL     1      34.338 -25.567 -15.247  0.00  0.00    +0.147 HD
BRANCH   3   7
ATOM      5  O   UNL     1      36.627 -27.335 -16.203  0.00  0.00    -0.282 OA
ATOM      6  O   UNL     1      39.184 -26.718 -14.655  0.00  0.00    -0.282 OA
ATOM      7  C   UNL     1      36.189 -25.493 -14.546  0.00  0.00    +0.104 C 
ATOM      8  C   UNL     1      37.327 -25.219 -13.857  0.00  0.00    +0.101 C 
ATOM      9  C   UNL     1      36.847 -26.535 -15.333  0.00  0.00    +0.250 C 
ATOM     10  C   UNL     1      38.083 -26.236 -14.584  0.00  0.00    +0.250 C 
BRANCH   8  11
ATOM     11  N   UNL     1      37.760 -24.426 -12.914  0.00  0.00    -0.353 N 
ATOM     12  H   UNL     1      37.145 -23.786 -12.488  0.00  0.00    +0.142 HD
ATOM     13  H   UNL     1      38.701 -24.467 -12.629  0.00  0.00    +0.142 HD
ENDBRANCH   8  11
ENDBRANCH   3   7
ENDBRANCH   2   3
ENDBRANCH   1   2
BRANCH   1  14
ATOM     14  C   UNL     1      33.054 -23.836 -15.975  0.00  0.00    +0.144 C 
BRANCH  14  15
ATOM     15  O   UNL     1      33.961 -23.363 -16.962  0.00  0.00    -0.351 OA
BRANCH  15  16
ATOM     16  C   UNL     1      33.276 -22.775 -18.060  0.00  0.00    +0.174 C 
BRANCH  16  17
ATOM     17  C   UNL     1      34.294 -22.188 -19.020  0.00  0.00    +0.174 C 
BRANCH  17  18
ATOM     18  O   UNL     1      35.591 -22.302 -18.449  0.00  0.00    -0.348 OA
BRANCH  18  19
ATOM     19  C   UNL     1      36.472 -21.310 -18.957  0.00  0.00    +0.174 C 
BRANCH  19  20
ATOM     20  C   UNL     1      35.931 -20.798 -20.278  0.00  0.00    +0.174 C 
BRANCH  20  21
ATOM     21  O   UNL     1      36.182 -19.401 -20.372  0.00  0.00    -0.351 OA
BRANCH  21  22
ATOM     22  C   UNL     1      35.173 -18.739 -21.122  0.00  0.00    +0.142 C 
BRANCH  22  23
ATOM     23  C   UNL     1      35.736 -18.368 -22.485  0.00  0.00    +0.032 C 
ATOM     24  C   UNL     1      35.050 -19.126 -23.607  0.00  0.00    +0.003 C 
ENDBRANCH  22  23
ENDBRANCH  21  22
ENDBRANCH  20  21
ENDBRANCH  19  20
ENDBRANCH  18  19
ENDBRANCH  17  18
ENDBRANCH  16  17
ENDBRANCH  15  16
ENDBRANCH  14  15
ENDBRANCH   1  14
TORSDOF 14
ENDMDL
MODEL 6
REMARK VINA RESULT:      -6.9      3.646      5.066
REMARK  Name = 4476954
REMARK  14 active torsions:
REMARK  status: ('A' for Active; 'I' for Inactive)
REMARK    1  A    between atoms: C_1  and  C_2
REMARK    2  A    between atoms: C_1  and  C_14
REMARK    3  A    between atoms: C_2  and  N_3
REMARK    4  A    between atoms: N_3  and  C_7
REMARK    5  A    between atoms: C_8  and  N_11
REMARK    6  A    between atoms: C_14  and  O_15
REMARK    7  A    between atoms: O_15  and  C_16
REMARK    8  A    between atoms: C_16  and  C_17
REMARK    9  A    between atoms: C_17  and  O_18
REMARK   10  A    between atoms: O_18  and  C_19
REMARK   11  A    between atoms: C_19  and  C_20
REMARK   12  A    between atoms: C_20  and  O_21
REMARK   13  A    between atoms: O_21  and  C_22
REMARK   14  A    between atoms: C_22  and  C_23
REMARK                            x       y       z     vdW  Elec       q    Type
REMARK                         _______ _______ _______ _____ _____    ______ ____
ROOT
ATOM      1  C   UNL     1      32.308 -24.859 -13.813  0.00  0.00    +0.053 C 
ENDROOT
BRANCH   1   2
ATOM      2  C   UNL     1      33.679 -24.231 -13.591  0.00  0.00    +0.090 C 
BRANCH   2   3
ATOM      3  N   UNL     1      34.715 -25.023 -14.208  0.00  0.00    -0.329 N 
ATOM      4  H   UNL     1      34.449 -25.738 -14.832  0.00  0.00    +0.147 HD
BRANCH   3   7
ATOM      5  O   UNL     1      36.627 -25.790 -11.739  0.00  0.00    -0.282 OA
ATOM      6  O   UNL     1      39.089 -24.568 -13.067  0.00  0.00    -0.282 OA
ATOM      7  C   UNL     1      35.994 -24.838 -13.980  0.00  0.00    +0.104 C 
ATOM      8  C   UNL     1      37.089 -24.295 -14.571  0.00  0.00    +0.101 C 
ATOM      9  C   UNL     1      36.758 -25.240 -12.800  0.00  0.00    +0.250 C 
ATOM     10  C   UNL     1      37.948 -24.649 -13.444  0.00  0.00    +0.250 C 
BRANCH   8  11
ATOM     11  N   UNL     1      37.431 -23.676 -15.669  0.00  0.00    -0.353 N 
ATOM     12  H   UNL     1      37.061 -22.785 -15.868  0.00  0.00    +0.142 HD
ATOM     13  H   UNL     1      38.059 -24.099 -16.298  0.00  0.00    +0.142 HD
ENDBRANCH   8  11
ENDBRANCH   3   7
ENDBRANCH   2   3
ENDBRANCH   1   2
BRANCH   1  14
ATOM     14  C   UNL     1      31.164 -23.974 -13.332  0.00  0.00    +0.144 C 
BRANCH  14  15
ATOM     15  O   UNL     1      30.094 -24.064 -14.263  0.00  0.00    -0.351 OA
BRANCH  15  16
ATOM     16  C   UNL     1      29.948 -22.862 -15.008  0.00  0.00    +0.174 C 
BRANCH  16  17
ATOM     17  C   UNL     1      29.929 -23.196 -16.487  0.00  0.00    +0.174 C 
BRANCH  17  18
ATOM     18  O   UNL     1      31.014 -22.537 -17.127  0.00  0.00    -0.348 OA
BRANCH  18  19
ATOM     19  C   UNL     1      32.236 -23.235 -16.929  0.00  0.00    +0.174 C 
BRANCH  19  20
ATOM     20  C   UNL     1      33.238 -22.783 -17.974  0.00  0.00    +0.174 C 
BRANCH  20  21
ATOM     21  O   UNL     1      32.679 -21.706 -18.717  0.00  0.00    -0.351 OA
BRANCH  21  22
ATOM     22  C   UNL     1      33.531 -21.311 -19.783  0.00  0.00    +0.142 C 
BRANCH  22  23
ATOM     23  C   UNL     1      32.919 -20.108 -20.483  0.00  0.00    +0.032 C 
ATOM     24  C   UNL     1      33.978 -19.212 -21.099  0.00  0.00    +0.003 C 
ENDBRANCH  22  23
ENDBRANCH  21  22
ENDBRANCH  20  21
ENDBRANCH  19  20
ENDBRANCH  18  19
ENDBRANCH  17  18
ENDBRANCH  16  17
ENDBRANCH  15  16
ENDBRANCH  14  15
ENDBRANCH   1  14
TORSDOF 14
ENDMDL
MODEL 7
REMARK VINA RESULT:      -6.9      2.502      4.157
REMARK  Name = 4476954
REMARK  14 active torsions:
REMARK  status: ('A' for Active; 'I' for Inactive)
REMARK    1  A    between atoms: C_1  and  C_2
REMARK    2  A    between atoms: C_1  and  C_14
REMARK    3  A    between atoms: C_2  and  N_3
REMARK    4  A    between atoms: N_3  and  C_7
REMARK    5  A    between atoms: C_8  and  N_11
REMARK    6  A    between atoms: C_14  and  O_15
REMARK    7  A    between atoms: O_15  and  C_16
REMARK    8  A    between atoms: C_16  and  C_17
REMARK    9  A    between atoms: C_17  and  O_18
REMARK   10  A    between atoms: O_18  and  C_19
REMARK   11  A    between atoms: C_19  and  C_20
REMARK   12  A    between atoms: C_20  and  O_21
REMARK   13  A    between atoms: O_21  and  C_22
REMARK   14  A    between atoms: C_22  and  C_23
REMARK                            x       y       z     vdW  Elec       q    Type
REMARK                         _______ _______ _______ _____ _____    ______ ____
ROOT
ATOM      1  C   UNL     1      37.493 -21.748 -16.758  0.00  0.00    +0.053 C 
ENDROOT
BRANCH   1   2
ATOM      2  C   UNL     1      36.865 -22.663 -15.713  0.00  0.00    +0.090 C 
BRANCH   2   3
ATOM      3  N   UNL     1      37.696 -23.820 -15.474  0.00  0.00    -0.329 N 
ATOM      4  H   UNL     1      38.476 -23.964 -16.058  0.00  0.00    +0.147 HD
BRANCH   3   7
ATOM      5  O   UNL     1      38.468 -23.891 -12.353  0.00  0.00    -0.282 OA
ATOM      6  O   UNL     1      37.088 -26.578 -11.916  0.00  0.00    -0.282 OA
ATOM      7  C   UNL     1      37.463 -24.688 -14.518  0.00  0.00    +0.104 C 
ATOM      8  C   UNL     1      36.848 -25.883 -14.323  0.00  0.00    +0.101 C 
ATOM      9  C   UNL     1      37.873 -24.603 -13.117  0.00  0.00    +0.250 C 
ATOM     10  C   UNL     1      37.205 -25.903 -12.907  0.00  0.00    +0.250 C 
BRANCH   8  11
ATOM     11  N   UNL     1      36.176 -26.783 -14.989  0.00  0.00    -0.353 N 
ATOM     12  H   UNL     1      36.595 -27.249 -15.748  0.00  0.00    +0.142 HD
ATOM     13  H   UNL     1      35.250 -26.996 -14.732  0.00  0.00    +0.142 HD
ENDBRANCH   8  11
ENDBRANCH   3   7
ENDBRANCH   2   3
ENDBRANCH   1   2
BRANCH   1  14
ATOM     14  C   UNL     1      36.639 -21.606 -18.012  0.00  0.00    +0.144 C 
BRANCH  14  15
ATOM     15  O   UNL     1      36.930 -20.357 -18.625  0.00  0.00    -0.351 OA
BRANCH  15  16
ATOM     16  C   UNL     1      36.759 -20.416 -20.035  0.00  0.00    +0.174 C 
BRANCH  16  17
ATOM     17  C   UNL     1      35.455 -21.126 -20.345  0.00  0.00    +0.174 C 
BRANCH  17  18
ATOM     18  O   UNL     1      34.398 -20.175 -20.355  0.00  0.00    -0.348 OA
BRANCH  18  19
ATOM     19  C   UNL     1      33.171 -20.756 -19.937  0.00  0.00    +0.174 C 
BRANCH  19  20
ATOM     20  C   UNL     1      33.466 -22.006 -19.130  0.00  0.00    +0.174 C 
BRANCH  20  21
ATOM     21  O   UNL     1      32.311 -22.357 -18.377  0.00  0.00    -0.351 OA
BRANCH  21  22
ATOM     22  C   UNL     1      32.655 -23.066 -17.195  0.00  0.00    +0.142 C 
BRANCH  22  23
ATOM     23  C   UNL     1      31.506 -22.958 -16.205  0.00  0.00    +0.032 C 
ATOM     24  C   UNL     1      31.739 -23.814 -14.973  0.00  0.00    +0.003 C 
ENDBRANCH  22  23
ENDBRANCH  21  22
ENDBRANCH  20  21
ENDBRANCH  19  20
ENDBRANCH  18  19
ENDBRANCH  17  18
ENDBRANCH  16  17
ENDBRANCH  15  16
ENDBRANCH  14  15
ENDBRANCH   1  14
TORSDOF 14
ENDMDL
MODEL 8
REMARK VINA RESULT:      -6.8      1.742      2.036
REMARK  Name = 4476954
REMARK  14 active torsions:
REMARK  status: ('A' for Active; 'I' for Inactive)
REMARK    1  A    between atoms: C_1  and  C_2
REMARK    2  A    between atoms: C_1  and  C_14
REMARK    3  A    between atoms: C_2  and  N_3
REMARK    4  A    between atoms: N_3  and  C_7
REMARK    5  A    between atoms: C_8  and  N_11
REMARK    6  A    between atoms: C_14  and  O_15
REMARK    7  A    between atoms: O_15  and  C_16
REMARK    8  A    between atoms: C_16  and  C_17
REMARK    9  A    between atoms: C_17  and  O_18
REMARK   10  A    between atoms: O_18  and  C_19
REMARK   11  A    between atoms: C_19  and  C_20
REMARK   12  A    between atoms: C_20  and  O_21
REMARK   13  A    between atoms: O_21  and  C_22
REMARK   14  A    between atoms: C_22  and  C_23
REMARK                            x       y       z     vdW  Elec       q    Type
REMARK                         _______ _______ _______ _____ _____    ______ ____
ROOT
ATOM      1  C   UNL     1      33.546 -23.468 -15.916  0.00  0.00    +0.053 C 
ENDROOT
BRANCH   1   2
ATOM      2  C   UNL     1      34.922 -22.895 -15.593  0.00  0.00    +0.090 C 
BRANCH   2   3
ATOM      3  N   UNL     1      35.218 -23.027 -14.187  0.00  0.00    -0.329 N 
ATOM      4  H   UNL     1      34.910 -22.319 -13.576  0.00  0.00    +0.147 HD
BRANCH   3   7
ATOM      5  O   UNL     1      34.889 -24.712 -11.467  0.00  0.00    -0.282 OA
ATOM      6  O   UNL     1      37.248 -26.532 -12.131  0.00  0.00    -0.282 OA
ATOM      7  C   UNL     1      35.877 -24.043 -13.683  0.00  0.00    +0.104 C 
ATOM      8  C   UNL     1      36.927 -24.853 -13.978  0.00  0.00    +0.101 C 
ATOM      9  C   UNL     1      35.625 -24.732 -12.418  0.00  0.00    +0.250 C 
ATOM     10  C   UNL     1      36.766 -25.612 -12.740  0.00  0.00    +0.250 C 
BRANCH   8  11
ATOM     11  N   UNL     1      37.819 -25.034 -14.913  0.00  0.00    -0.353 N 
ATOM     12  H   UNL     1      37.646 -24.712 -15.828  0.00  0.00    +0.142 HD
ATOM     13  H   UNL     1      38.665 -25.494 -14.705  0.00  0.00    +0.142 HD
ENDBRANCH   8  11
ENDBRANCH   3   7
ENDBRANCH   2   3
ENDBRANCH   1   2
BRANCH   1  14
ATOM     14  C   UNL     1      33.115 -23.200 -17.353  0.00  0.00    +0.144 C 
BRANCH  14  15
ATOM     15  O   UNL     1      34.254 -23.285 -18.197  0.00  0.00    -0.351 OA
BRANCH  15  16
ATOM     16  C   UNL     1      34.297 -22.209 -19.125  0.00  0.00    +0.174 C 
BRANCH  16  17
ATOM     17  C   UNL     1      35.695 -21.618 -19.133  0.00  0.00    +0.174 C 
BRANCH  17  18
ATOM     18  O   UNL     1      35.677 -20.393 -19.855  0.00  0.00    -0.348 OA
BRANCH  18  19
ATOM     19  C   UNL     1      34.417 -20.169 -20.470  0.00  0.00    +0.174 C 
BRANCH  19  20
ATOM     20  C   UNL     1      34.537 -19.005 -21.435  0.00  0.00    +0.174 C 
BRANCH  20  21
ATOM     21  O   UNL     1      35.215 -17.934 -20.788  0.00  0.00    -0.351 OA
BRANCH  21  22
ATOM     22  C   UNL     1      34.936 -16.689 -21.412  0.00  0.00    +0.142 C 
BRANCH  22  23
ATOM     23  C   UNL     1      34.350 -15.741 -20.378  0.00  0.00    +0.032 C 
ATOM     24  C   UNL     1      33.673 -14.546 -21.024  0.00  0.00    +0.003 C 
ENDBRANCH  22  23
ENDBRANCH  21  22
ENDBRANCH  20  21
ENDBRANCH  19  20
ENDBRANCH  18  19
ENDBRANCH  17  18
ENDBRANCH  16  17
ENDBRANCH  15  16
ENDBRANCH  14  15
ENDBRANCH   1  14
TORSDOF 14
ENDMDL
MODEL 9
REMARK VINA RESULT:      -6.8      7.907     13.098
REMARK  Name = 4476954
REMARK  14 active torsions:
REMARK  status: ('A' for Active; 'I' for Inactive)
REMARK    1  A    between atoms: C_1  and  C_2
REMARK    2  A    between atoms: C_1  and  C_14
REMARK    3  A    between atoms: C_2  and  N_3
REMARK    4  A    between atoms: N_3  and  C_7
REMARK    5  A    between atoms: C_8  and  N_11
REMARK    6  A    between atoms: C_14  and  O_15
REMARK    7  A    between atoms: O_15  and  C_16
REMARK    8  A    between atoms: C_16  and  C_17
REMARK    9  A    between atoms: C_17  and  O_18
REMARK   10  A    between atoms: O_18  and  C_19
REMARK   11  A    between atoms: C_19  and  C_20
REMARK   12  A    between atoms: C_20  and  O_21
REMARK   13  A    between atoms: O_21  and  C_22
REMARK   14  A    between atoms: C_22  and  C_23
REMARK                            x       y       z     vdW  Elec       q    Type
REMARK                         _______ _______ _______ _____ _____    ______ ____
ROOT
ATOM      1  C   UNL     1      33.861 -10.089 -23.740  0.00  0.00    +0.053 C 
ENDROOT
BRANCH   1   2
ATOM      2  C   UNL     1      32.536  -9.342 -23.840  0.00  0.00    +0.090 C 
BRANCH   2   3
ATOM      3  N   UNL     1      32.168  -8.773 -22.565  0.00  0.00    -0.329 N 
ATOM      4  H   UNL     1      32.120  -7.793 -22.487  0.00  0.00    +0.147 HD
BRANCH   3   7
ATOM      5  O   UNL     1      32.410  -8.209 -19.408  0.00  0.00    -0.282 OA
ATOM      6  O   UNL     1      31.341 -10.973 -18.678  0.00  0.00    -0.282 OA
ATOM      7  C   UNL     1      31.894  -9.499 -21.506  0.00  0.00    +0.104 C 
ATOM      8  C   UNL     1      31.419 -10.728 -21.181  0.00  0.00    +0.101 C 
ATOM      9  C   UNL     1      32.049  -9.122 -20.102  0.00  0.00    +0.250 C 
ATOM     10  C   UNL     1      31.532 -10.460 -19.750  0.00  0.00    +0.250 C 
BRANCH   8  11
ATOM     11  N   UNL     1      30.991 -11.821 -21.756  0.00  0.00    -0.353 N 
ATOM     12  H   UNL     1      31.636 -12.484 -22.094  0.00  0.00    +0.142 HD
ATOM     13  H   UNL     1      30.025 -11.981 -21.851  0.00  0.00    +0.142 HD
ENDBRANCH   8  11
ENDBRANCH   3   7
ENDBRANCH   2   3
ENDBRANCH   1   2
BRANCH   1  14
ATOM     14  C   UNL     1      33.844 -11.427 -24.469  0.00  0.00    +0.144 C 
BRANCH  14  15
ATOM     15  O   UNL     1      33.757 -12.470 -23.508  0.00  0.00    -0.351 OA
BRANCH  15  16
ATOM     16  C   UNL     1      33.081 -13.606 -24.031  0.00  0.00    +0.174 C 
BRANCH  16  17
ATOM     17  C   UNL     1      34.001 -14.809 -23.952  0.00  0.00    +0.174 C 
BRANCH  17  18
ATOM     18  O   UNL     1      33.721 -15.532 -22.760  0.00  0.00    -0.348 OA
BRANCH  18  19
ATOM     19  C   UNL     1      34.763 -16.444 -22.446  0.00  0.00    +0.174 C 
BRANCH  19  20
ATOM     20  C   UNL     1      34.813 -16.640 -20.943  0.00  0.00    +0.174 C 
BRANCH  20  21
ATOM     21  O   UNL     1      35.450 -17.879 -20.657  0.00  0.00    -0.351 OA
BRANCH  21  22
ATOM     22  C   UNL     1      35.002 -18.909 -21.528  0.00  0.00    +0.142 C 
BRANCH  22  23
ATOM     23  C   UNL     1      34.390 -20.025 -20.697  0.00  0.00    +0.032 C 
ATOM     24  C   UNL     1      32.882 -19.889 -20.589  0.00  0.00    +0.003 C 
ENDBRANCH  22  23
ENDBRANCH  21  22
ENDBRANCH  20  21
ENDBRANCH  19  20
ENDBRANCH  18  19
ENDBRANCH  17  18
ENDBRANCH  16  17
ENDBRANCH  15  16
ENDBRANCH  14  15
ENDBRANCH   1  14
TORSDOF 14
ENDMDL
