MODEL 1
REMARK VINA RESULT:      -7.7      0.000      0.000
REMARK  Name = 119031
REMARK  10 active torsions:
REMARK  status: ('A' for Active; 'I' for Inactive)
REMARK    1  A    between atoms: C_1  and  C_4
REMARK    2  A    between atoms: C_1  and  C_16
REMARK    3  A    between atoms: C_1  and  C_20
REMARK    4  A    between atoms: N_3  and  C_6
REMARK    5  A    between atoms: C_6  and  C_9
REMARK    6  A    between atoms: C_6  and  C_12
REMARK    7  A    between atoms: C_16  and  C_17
REMARK    8  A    between atoms: C_20  and  C_23
REMARK    9  A    between atoms: C_20  and  O_27
REMARK   10  A    between atoms: N_22  and  O_25
REMARK                            x       y       z     vdW  Elec       q    Type
REMARK                         _______ _______ _______ _____ _____    ______ ____
ROOT
ATOM      1  C   UNL     1      36.424 -24.480 -13.980  0.00  0.00    +0.112 C 
ENDROOT
BRANCH   1   4
ATOM      2  O   UNL     1      35.361 -25.922 -15.622  0.00  0.00    -0.275 OA
ATOM      3  N   UNL     1      34.259 -23.991 -14.966  0.00  0.00    -0.298 N 
ATOM      4  C   UNL     1      35.314 -24.890 -14.954  0.00  0.00    +0.225 C 
ATOM      5  H   UNL     1      34.309 -23.190 -14.395  0.00  0.00    +0.150 HD
BRANCH   3   6
ATOM      6  C   UNL     1      33.088 -24.192 -15.785  0.00  0.00    +0.148 C 
BRANCH   6   9
ATOM      7  O   UNL     1      32.337 -22.870 -17.677  0.00  0.00    -0.273 OA
ATOM      8  N   UNL     1      34.606 -22.952 -17.219  0.00  0.00    -0.301 N 
ATOM      9  C   UNL     1      33.277 -23.279 -16.997  0.00  0.00    +0.240 C 
ATOM     10  C   UNL     1      35.010 -22.081 -18.296  0.00  0.00    +0.111 C 
ATOM     11  H   UNL     1      35.295 -23.326 -16.624  0.00  0.00    +0.150 HD
ENDBRANCH   6   9
BRANCH   6  12
ATOM     12  C   UNL     1      31.758 -23.958 -15.008  0.00  0.00    +0.025 C 
ATOM     13  C   UNL     1      30.517 -24.222 -15.883  0.00  0.00    +0.002 C 
ATOM     14  C   UNL     1      31.686 -22.512 -14.480  0.00  0.00    +0.002 C 
ATOM     15  C   UNL     1      31.703 -24.905 -13.789  0.00  0.00    +0.002 C 
ENDBRANCH   6  12
ENDBRANCH   3   6
ENDBRANCH   1   4
BRANCH   1  16
ATOM     16  C   UNL     1      35.973 -23.318 -13.068  0.00  0.00    +0.012 C 
BRANCH  16  17
ATOM     17  C   UNL     1      36.444 -23.428 -11.600  0.00  0.00    +0.001 C 
ATOM     18  C   UNL     1      37.937 -23.769 -11.564  0.00  0.00    +0.000 C 
ATOM     19  C   UNL     1      35.661 -24.478 -10.811  0.00  0.00    +0.000 C 
ENDBRANCH  16  17
ENDBRANCH   1  16
BRANCH   1  20
ATOM     20  C   UNL     1      37.686 -24.129 -14.803  0.00  0.00    +0.197 C 
BRANCH  20  23
ATOM     21  O   UNL     1      38.455 -26.361 -14.280  0.00  0.00    -0.270 OA
ATOM     22  N   UNL     1      39.719 -25.060 -15.709  0.00  0.00    -0.195 N 
ATOM     23  C   UNL     1      38.644 -25.312 -14.893  0.00  0.00    +0.272 C 
ATOM     24  H   UNL     1      39.828 -24.202 -16.180  0.00  0.00    +0.182 HD
BRANCH  22  25
ATOM     25  O   UNL     1      40.652 -26.098 -15.832  0.00  0.00    -0.295 OA
ATOM     26  H   UNL     1      40.189 -26.949 -15.865  0.00  0.00    +0.241 HD
ENDBRANCH  22  25
ENDBRANCH  20  23
BRANCH  20  27
ATOM     27  O   UNL     1      37.321 -23.726 -16.115  0.00  0.00    -0.375 OA
ATOM     28  H   UNL     1      37.825 -22.935 -16.362  0.00  0.00    +0.211 HD
ENDBRANCH  20  27
ENDBRANCH   1  20
TORSDOF 10
ENDMDL
MODEL 2
REMARK VINA RESULT:      -7.7      1.831      6.009
REMARK  Name = 119031
REMARK  10 active torsions:
REMARK  status: ('A' for Active; 'I' for Inactive)
REMARK    1  A    between atoms: C_1  and  C_4
REMARK    2  A    between atoms: C_1  and  C_16
REMARK    3  A    between atoms: C_1  and  C_20
REMARK    4  A    between atoms: N_3  and  C_6
REMARK    5  A    between atoms: C_6  and  C_9
REMARK    6  A    between atoms: C_6  and  C_12
REMARK    7  A    between atoms: C_16  and  C_17
REMARK    8  A    between atoms: C_20  and  C_23
REMARK    9  A    between atoms: C_20  and  O_27
REMARK   10  A    between atoms: N_22  and  O_25
REMARK                            x       y       z     vdW  Elec       q    Type
REMARK                         _______ _______ _______ _____ _____    ______ ____
ROOT
ATOM      1  C   UNL     1      35.122 -22.418 -16.769  0.00  0.00    +0.112 C 
ENDROOT
BRANCH   1   4
ATOM      2  O   UNL     1      37.369 -21.829 -16.054  0.00  0.00    -0.275 OA
ATOM      3  N   UNL     1      36.281 -23.565 -14.969  0.00  0.00    -0.298 N 
ATOM      4  C   UNL     1      36.388 -22.558 -15.916  0.00  0.00    +0.225 C 
ATOM      5  H   UNL     1      35.454 -24.099 -14.933  0.00  0.00    +0.150 HD
BRANCH   3   6
ATOM      6  C   UNL     1      37.341 -23.855 -14.034  0.00  0.00    +0.148 C 
BRANCH   6   9
ATOM      7  O   UNL     1      37.503 -25.977 -15.200  0.00  0.00    -0.273 OA
ATOM      8  N   UNL     1      39.451 -24.989 -14.429  0.00  0.00    -0.301 N 
ATOM      9  C   UNL     1      38.079 -25.061 -14.615  0.00  0.00    +0.240 C 
ATOM     10  C   UNL     1      40.344 -26.011 -14.920  0.00  0.00    +0.111 C 
ATOM     11  H   UNL     1      39.828 -24.219 -13.947  0.00  0.00    +0.150 HD
ENDBRANCH   6   9
BRANCH   6  12
ATOM     12  C   UNL     1      36.824 -24.059 -12.578  0.00  0.00    +0.025 C 
ATOM     13  C   UNL     1      37.262 -25.414 -11.988  0.00  0.00    +0.002 C 
ATOM     14  C   UNL     1      35.286 -23.981 -12.533  0.00  0.00    +0.002 C 
ATOM     15  C   UNL     1      37.377 -22.935 -11.674  0.00  0.00    +0.002 C 
ENDBRANCH   6  12
ENDBRANCH   3   6
ENDBRANCH   1   4
BRANCH   1  16
ATOM     16  C   UNL     1      34.114 -23.551 -16.475  0.00  0.00    +0.012 C 
BRANCH  16  17
ATOM     17  C   UNL     1      32.812 -23.093 -15.780  0.00  0.00    +0.001 C 
ATOM     18  C   UNL     1      32.452 -24.079 -14.665  0.00  0.00    +0.000 C 
ATOM     19  C   UNL     1      31.640 -22.971 -16.754  0.00  0.00    +0.000 C 
ENDBRANCH  16  17
ENDBRANCH   1  16
BRANCH   1  20
ATOM     20  C   UNL     1      35.543 -22.375 -18.257  0.00  0.00    +0.197 C 
BRANCH  20  23
ATOM     21  O   UNL     1      33.993 -23.607 -19.647  0.00  0.00    -0.270 OA
ATOM     22  N   UNL     1      33.723 -21.323 -19.441  0.00  0.00    -0.195 N 
ATOM     23  C   UNL     1      34.341 -22.522 -19.184  0.00  0.00    +0.272 C 
ATOM     24  H   UNL     1      34.038 -20.477 -19.047  0.00  0.00    +0.182 HD
BRANCH  22  25
ATOM     25  O   UNL     1      32.615 -21.374 -20.297  0.00  0.00    -0.295 OA
ATOM     26  H   UNL     1      31.837 -21.679 -19.803  0.00  0.00    +0.241 HD
ENDBRANCH  22  25
ENDBRANCH  20  23
BRANCH  20  27
ATOM     27  O   UNL     1      36.205 -21.153 -18.545  0.00  0.00    -0.375 OA
ATOM     28  H   UNL     1      35.548 -20.447 -18.657  0.00  0.00    +0.211 HD
ENDBRANCH  20  27
ENDBRANCH   1  20
TORSDOF 10
ENDMDL
MODEL 3
REMARK VINA RESULT:      -7.3      1.742      5.886
REMARK  Name = 119031
REMARK  10 active torsions:
REMARK  status: ('A' for Active; 'I' for Inactive)
REMARK    1  A    between atoms: C_1  and  C_4
REMARK    2  A    between atoms: C_1  and  C_16
REMARK    3  A    between atoms: C_1  and  C_20
REMARK    4  A    between atoms: N_3  and  C_6
REMARK    5  A    between atoms: C_6  and  C_9
REMARK    6  A    between atoms: C_6  and  C_12
REMARK    7  A    between atoms: C_16  and  C_17
REMARK    8  A    between atoms: C_20  and  C_23
REMARK    9  A    between atoms: C_20  and  O_27
REMARK   10  A    between atoms: N_22  and  O_25
REMARK                            x       y       z     vdW  Elec       q    Type
REMARK                         _______ _______ _______ _____ _____    ______ ____
ROOT
ATOM      1  C   UNL     1      33.703 -22.730 -15.667  0.00  0.00    +0.112 C 
ENDROOT
BRANCH   1   4
ATOM      2  O   UNL     1      36.037 -22.077 -15.842  0.00  0.00    -0.275 OA
ATOM      3  N   UNL     1      35.456 -23.709 -14.302  0.00  0.00    -0.298 N 
ATOM      4  C   UNL     1      35.191 -22.791 -15.307  0.00  0.00    +0.225 C 
ATOM      5  H   UNL     1      34.713 -24.239 -13.932  0.00  0.00    +0.150 HD
BRANCH   3   6
ATOM      6  C   UNL     1      36.786 -23.912 -13.780  0.00  0.00    +0.148 C 
BRANCH   6   9
ATOM      7  O   UNL     1      38.559 -25.127 -14.907  0.00  0.00    -0.273 OA
ATOM      8  N   UNL     1      36.428 -26.034 -14.906  0.00  0.00    -0.301 N 
ATOM      9  C   UNL     1      37.372 -25.067 -14.593  0.00  0.00    +0.240 C 
ATOM     10  C   UNL     1      36.769 -27.223 -15.648  0.00  0.00    +0.111 C 
ATOM     11  H   UNL     1      35.497 -25.904 -14.615  0.00  0.00    +0.150 HD
ENDBRANCH   6   9
BRANCH   6  12
ATOM     12  C   UNL     1      36.803 -24.141 -12.238  0.00  0.00    +0.025 C 
ATOM     13  C   UNL     1      37.800 -25.239 -11.822  0.00  0.00    +0.002 C 
ATOM     14  C   UNL     1      35.401 -24.536 -11.734  0.00  0.00    +0.002 C 
ATOM     15  C   UNL     1      37.202 -22.829 -11.529  0.00  0.00    +0.002 C 
ENDBRANCH   6  12
ENDBRANCH   3   6
ENDBRANCH   1   4
BRANCH   1  16
ATOM     16  C   UNL     1      32.817 -23.196 -14.491  0.00  0.00    +0.012 C 
BRANCH  16  17
ATOM     17  C   UNL     1      31.508 -23.904 -14.908  0.00  0.00    +0.001 C 
ATOM     18  C   UNL     1      30.363 -22.886 -14.942  0.00  0.00    +0.000 C 
ATOM     19  C   UNL     1      31.141 -25.057 -13.973  0.00  0.00    +0.000 C 
ENDBRANCH  16  17
ENDBRANCH   1  16
BRANCH   1  20
ATOM     20  C   UNL     1      33.478 -23.574 -16.945  0.00  0.00    +0.197 C 
BRANCH  20  23
ATOM     21  O   UNL     1      34.706 -22.722 -18.847  0.00  0.00    -0.270 OA
ATOM     22  N   UNL     1      32.532 -22.013 -18.523  0.00  0.00    -0.195 N 
ATOM     23  C   UNL     1      33.655 -22.736 -18.207  0.00  0.00    +0.272 C 
ATOM     24  H   UNL     1      31.713 -22.057 -17.979  0.00  0.00    +0.182 HD
BRANCH  22  25
ATOM     25  O   UNL     1      32.622 -21.207 -19.665  0.00  0.00    -0.295 OA
ATOM     26  H   UNL     1      33.236 -20.475 -19.499  0.00  0.00    +0.241 HD
ENDBRANCH  22  25
ENDBRANCH  20  23
BRANCH  20  27
ATOM     27  O   UNL     1      34.387 -24.664 -16.979  0.00  0.00    -0.375 OA
ATOM     28  H   UNL     1      33.895 -25.497 -16.898  0.00  0.00    +0.211 HD
ENDBRANCH  20  27
ENDBRANCH   1  20
TORSDOF 10
ENDMDL
MODEL 4
REMARK VINA RESULT:      -7.3      1.934      6.630
REMARK  Name = 119031
REMARK  10 active torsions:
REMARK  status: ('A' for Active; 'I' for Inactive)
REMARK    1  A    between atoms: C_1  and  C_4
REMARK    2  A    between atoms: C_1  and  C_16
REMARK    3  A    between atoms: C_1  and  C_20
REMARK    4  A    between atoms: N_3  and  C_6
REMARK    5  A    between atoms: C_6  and  C_9
REMARK    6  A    between atoms: C_6  and  C_12
REMARK    7  A    between atoms: C_16  and  C_17
REMARK    8  A    between atoms: C_20  and  C_23
REMARK    9  A    between atoms: C_20  and  O_27
REMARK   10  A    between atoms: N_22  and  O_25
REMARK                            x       y       z     vdW  Elec       q    Type
REMARK                         _______ _______ _______ _____ _____    ______ ____
ROOT
ATOM      1  C   UNL     1      33.762 -23.662 -16.464  0.00  0.00    +0.112 C 
ENDROOT
BRANCH   1   4
ATOM      2  O   UNL     1      35.637 -22.234 -15.872  0.00  0.00    -0.275 OA
ATOM      3  N   UNL     1      35.592 -24.402 -15.050  0.00  0.00    -0.298 N 
ATOM      4  C   UNL     1      35.096 -23.335 -15.785  0.00  0.00    +0.225 C 
ATOM      5  H   UNL     1      35.089 -25.248 -15.038  0.00  0.00    +0.150 HD
BRANCH   3   6
ATOM      6  C   UNL     1      36.822 -24.310 -14.300  0.00  0.00    +0.148 C 
BRANCH   6   9
ATOM      7  O   UNL     1      37.373 -26.321 -15.542  0.00  0.00    -0.273 OA
ATOM      8  N   UNL     1      39.104 -24.970 -14.804  0.00  0.00    -0.301 N 
ATOM      9  C   UNL     1      37.769 -25.321 -14.945  0.00  0.00    +0.240 C 
ATOM     10  C   UNL     1      40.168 -25.770 -15.359  0.00  0.00    +0.111 C 
ATOM     11  H   UNL     1      39.332 -24.151 -14.309  0.00  0.00    +0.150 HD
ENDBRANCH   6   9
BRANCH   6  12
ATOM     12  C   UNL     1      36.613 -24.514 -12.769  0.00  0.00    +0.025 C 
ATOM     13  C   UNL     1      37.319 -23.429 -11.934  0.00  0.00    +0.002 C 
ATOM     14  C   UNL     1      37.143 -25.893 -12.329  0.00  0.00    +0.002 C 
ATOM     15  C   UNL     1      35.103 -24.469 -12.446  0.00  0.00    +0.002 C 
ENDBRANCH   6  12
ENDBRANCH   3   6
ENDBRANCH   1   4
BRANCH   1  16
ATOM     16  C   UNL     1      33.849 -23.484 -17.995  0.00  0.00    +0.012 C 
BRANCH  16  17
ATOM     17  C   UNL     1      34.174 -22.047 -18.462  0.00  0.00    +0.001 C 
ATOM     18  C   UNL     1      33.037 -21.525 -19.346  0.00  0.00    +0.000 C 
ATOM     19  C   UNL     1      35.496 -21.964 -19.226  0.00  0.00    +0.000 C 
ENDBRANCH  16  17
ENDBRANCH   1  16
BRANCH   1  20
ATOM     20  C   UNL     1      32.664 -22.775 -15.828  0.00  0.00    +0.197 C 
BRANCH  20  23
ATOM     21  O   UNL     1      30.865 -24.392 -15.811  0.00  0.00    -0.270 OA
ATOM     22  N   UNL     1      30.541 -22.384 -16.904  0.00  0.00    -0.195 N 
ATOM     23  C   UNL     1      31.267 -23.285 -16.165  0.00  0.00    +0.272 C 
ATOM     24  H   UNL     1      30.905 -21.507 -17.165  0.00  0.00    +0.182 HD
BRANCH  22  25
ATOM     25  O   UNL     1      29.248 -22.787 -17.264  0.00  0.00    -0.295 OA
ATOM     26  H   UNL     1      29.224 -23.751 -17.364  0.00  0.00    +0.241 HD
ENDBRANCH  22  25
ENDBRANCH  20  23
BRANCH  20  27
ATOM     27  O   UNL     1      32.818 -22.739 -14.417  0.00  0.00    -0.375 OA
ATOM     28  H   UNL     1      32.679 -21.833 -14.100  0.00  0.00    +0.211 HD
ENDBRANCH  20  27
ENDBRANCH   1  20
TORSDOF 10
ENDMDL
MODEL 5
REMARK VINA RESULT:      -7.1      3.033      5.322
REMARK  Name = 119031
REMARK  10 active torsions:
REMARK  status: ('A' for Active; 'I' for Inactive)
REMARK    1  A    between atoms: C_1  and  C_4
REMARK    2  A    between atoms: C_1  and  C_16
REMARK    3  A    between atoms: C_1  and  C_20
REMARK    4  A    between atoms: N_3  and  C_6
REMARK    5  A    between atoms: C_6  and  C_9
REMARK    6  A    between atoms: C_6  and  C_12
REMARK    7  A    between atoms: C_16  and  C_17
REMARK    8  A    between atoms: C_20  and  C_23
REMARK    9  A    between atoms: C_20  and  O_27
REMARK   10  A    between atoms: N_22  and  O_25
REMARK                            x       y       z     vdW  Elec       q    Type
REMARK                         _______ _______ _______ _____ _____    ______ ____
ROOT
ATOM      1  C   UNL     1      34.790 -22.280 -17.928  0.00  0.00    +0.112 C 
ENDROOT
BRANCH   1   4
ATOM      2  O   UNL     1      33.437 -24.257 -18.334  0.00  0.00    -0.275 OA
ATOM      3  N   UNL     1      32.961 -22.952 -16.478  0.00  0.00    -0.298 N 
ATOM      4  C   UNL     1      33.662 -23.274 -17.630  0.00  0.00    +0.225 C 
ATOM      5  H   UNL     1      33.214 -22.142 -15.977  0.00  0.00    +0.150 HD
BRANCH   3   6
ATOM      6  C   UNL     1      31.876 -23.767 -15.987  0.00  0.00    +0.148 C 
BRANCH   6   9
ATOM      7  O   UNL     1      30.603 -22.081 -17.182  0.00  0.00    -0.273 OA
ATOM      8  N   UNL     1      29.483 -23.935 -16.362  0.00  0.00    -0.301 N 
ATOM      9  C   UNL     1      30.606 -23.149 -16.572  0.00  0.00    +0.240 C 
ATOM     10  C   UNL     1      28.180 -23.554 -16.852  0.00  0.00    +0.111 C 
ATOM     11  H   UNL     1      29.576 -24.777 -15.861  0.00  0.00    +0.150 HD
ENDBRANCH   6   9
BRANCH   6  12
ATOM     12  C   UNL     1      31.870 -23.894 -14.434  0.00  0.00    +0.025 C 
ATOM     13  C   UNL     1      31.101 -25.140 -13.954  0.00  0.00    +0.002 C 
ATOM     14  C   UNL     1      31.232 -22.647 -13.791  0.00  0.00    +0.002 C 
ATOM     15  C   UNL     1      33.323 -23.994 -13.921  0.00  0.00    +0.002 C 
ENDBRANCH   6  12
ENDBRANCH   3   6
ENDBRANCH   1   4
BRANCH   1  16
ATOM     16  C   UNL     1      34.917 -22.006 -19.443  0.00  0.00    +0.012 C 
BRANCH  16  17
ATOM     17  C   UNL     1      34.452 -20.601 -19.887  0.00  0.00    +0.001 C 
ATOM     18  C   UNL     1      32.973 -20.650 -20.279  0.00  0.00    +0.000 C 
ATOM     19  C   UNL     1      35.274 -20.054 -21.054  0.00  0.00    +0.000 C 
ENDBRANCH  16  17
ENDBRANCH   1  16
BRANCH   1  20
ATOM     20  C   UNL     1      36.099 -22.835 -17.317  0.00  0.00    +0.197 C 
BRANCH  20  23
ATOM     21  O   UNL     1      37.436 -21.758 -15.614  0.00  0.00    -0.270 OA
ATOM     22  N   UNL     1      37.154 -20.690 -17.641  0.00  0.00    -0.195 N 
ATOM     23  C   UNL     1      36.971 -21.719 -16.751  0.00  0.00    +0.272 C 
ATOM     24  H   UNL     1      36.761 -20.703 -18.544  0.00  0.00    +0.182 HD
BRANCH  22  25
ATOM     25  O   UNL     1      37.936 -19.619 -17.188  0.00  0.00    -0.295 OA
ATOM     26  H   UNL     1      38.440 -19.249 -17.930  0.00  0.00    +0.241 HD
ENDBRANCH  22  25
ENDBRANCH  20  23
BRANCH  20  27
ATOM     27  O   UNL     1      35.804 -23.763 -16.284  0.00  0.00    -0.375 OA
ATOM     28  H   UNL     1      36.468 -23.686 -15.581  0.00  0.00    +0.211 HD
ENDBRANCH  20  27
ENDBRANCH   1  20
TORSDOF 10
ENDMDL
MODEL 6
REMARK VINA RESULT:      -7.1      2.176      6.528
REMARK  Name = 119031
REMARK  10 active torsions:
REMARK  status: ('A' for Active; 'I' for Inactive)
REMARK    1  A    between atoms: C_1  and  C_4
REMARK    2  A    between atoms: C_1  and  C_16
REMARK    3  A    between atoms: C_1  and  C_20
REMARK    4  A    between atoms: N_3  and  C_6
REMARK    5  A    between atoms: C_6  and  C_9
REMARK    6  A    between atoms: C_6  and  C_12
REMARK    7  A    between atoms: C_16  and  C_17
REMARK    8  A    between atoms: C_20  and  C_23
REMARK    9  A    between atoms: C_20  and  O_27
REMARK   10  A    between atoms: N_22  and  O_25
REMARK                            x       y       z     vdW  Elec       q    Type
REMARK                         _______ _______ _______ _____ _____    ______ ____
ROOT
ATOM      1  C   UNL     1      34.391 -23.786 -15.786  0.00  0.00    +0.112 C 
ENDROOT
BRANCH   1   4
ATOM      2  O   UNL     1      35.314 -26.033 -15.874  0.00  0.00    -0.275 OA
ATOM      3  N   UNL     1      36.194 -24.533 -14.340  0.00  0.00    -0.298 N 
ATOM      4  C   UNL     1      35.327 -24.919 -15.352  0.00  0.00    +0.225 C 
ATOM      5  H   UNL     1      36.132 -23.617 -13.983  0.00  0.00    +0.150 HD
BRANCH   3   6
ATOM      6  C   UNL     1      37.186 -25.429 -13.797  0.00  0.00    +0.148 C 
BRANCH   6   9
ATOM      7  O   UNL     1      37.134 -26.629 -11.689  0.00  0.00    -0.273 OA
ATOM      8  N   UNL     1      36.017 -24.605 -11.834  0.00  0.00    -0.301 N 
ATOM      9  C   UNL     1      36.785 -25.645 -12.338  0.00  0.00    +0.240 C 
ATOM     10  C   UNL     1      35.549 -24.592 -10.469  0.00  0.00    +0.111 C 
ATOM     11  H   UNL     1      35.783 -23.855 -12.426  0.00  0.00    +0.150 HD
ENDBRANCH   6   9
BRANCH   6  12
ATOM     12  C   UNL     1      38.642 -24.908 -13.991  0.00  0.00    +0.025 C 
ATOM     13  C   UNL     1      38.774 -23.988 -15.220  0.00  0.00    +0.002 C 
ATOM     14  C   UNL     1      39.622 -26.087 -14.155  0.00  0.00    +0.002 C 
ATOM     15  C   UNL     1      39.074 -24.112 -12.740  0.00  0.00    +0.002 C 
ENDBRANCH   6  12
ENDBRANCH   3   6
ENDBRANCH   1   4
BRANCH   1  16
ATOM     16  C   UNL     1      35.162 -22.464 -15.993  0.00  0.00    +0.012 C 
BRANCH  16  17
ATOM     17  C   UNL     1      36.009 -22.404 -17.284  0.00  0.00    +0.001 C 
ATOM     18  C   UNL     1      37.117 -21.359 -17.122  0.00  0.00    +0.000 C 
ATOM     19  C   UNL     1      35.171 -22.074 -18.520  0.00  0.00    +0.000 C 
ENDBRANCH  16  17
ENDBRANCH   1  16
BRANCH   1  20
ATOM     20  C   UNL     1      33.267 -23.655 -14.732  0.00  0.00    +0.197 C 
BRANCH  20  23
ATOM     21  O   UNL     1      31.050 -24.568 -15.052  0.00  0.00    -0.270 OA
ATOM     22  N   UNL     1      31.702 -22.765 -16.338  0.00  0.00    -0.195 N 
ATOM     23  C   UNL     1      31.885 -23.725 -15.374  0.00  0.00    +0.272 C 
ATOM     24  H   UNL     1      32.401 -22.109 -16.562  0.00  0.00    +0.182 HD
BRANCH  22  25
ATOM     25  O   UNL     1      30.458 -22.773 -16.984  0.00  0.00    -0.295 OA
ATOM     26  H   UNL     1      30.344 -23.612 -17.457  0.00  0.00    +0.241 HD
ENDBRANCH  22  25
ENDBRANCH  20  23
BRANCH  20  27
ATOM     27  O   UNL     1      33.380 -24.685 -13.762  0.00  0.00    -0.375 OA
ATOM     28  H   UNL     1      33.536 -25.533 -14.207  0.00  0.00    +0.211 HD
ENDBRANCH  20  27
ENDBRANCH   1  20
TORSDOF 10
ENDMDL
MODEL 7
REMARK VINA RESULT:      -6.8     14.342     17.366
REMARK  Name = 119031
REMARK  10 active torsions:
REMARK  status: ('A' for Active; 'I' for Inactive)
REMARK    1  A    between atoms: C_1  and  C_4
REMARK    2  A    between atoms: C_1  and  C_16
REMARK    3  A    between atoms: C_1  and  C_20
REMARK    4  A    between atoms: N_3  and  C_6
REMARK    5  A    between atoms: C_6  and  C_9
REMARK    6  A    between atoms: C_6  and  C_12
REMARK    7  A    between atoms: C_16  and  C_17
REMARK    8  A    between atoms: C_20  and  C_23
REMARK    9  A    between atoms: C_20  and  O_27
REMARK   10  A    between atoms: N_22  and  O_25
REMARK                            x       y       z     vdW  Elec       q    Type
REMARK                         _______ _______ _______ _____ _____    ______ ____
ROOT
ATOM      1  C   UNL     1      31.696  -8.765 -23.002  0.00  0.00    +0.112 C 
ENDROOT
BRANCH   1   4
ATOM      2  O   UNL     1      34.035  -9.034 -23.605  0.00  0.00    -0.275 OA
ATOM      3  N   UNL     1      32.701 -10.925 -23.475  0.00  0.00    -0.298 N 
ATOM      4  C   UNL     1      32.943  -9.562 -23.402  0.00  0.00    +0.225 C 
ATOM      5  H   UNL     1      31.791 -11.258 -23.296  0.00  0.00    +0.150 HD
BRANCH   3   6
ATOM      6  C   UNL     1      33.739 -11.872 -23.804  0.00  0.00    +0.148 C 
BRANCH   6   9
ATOM      7  O   UNL     1      33.433 -11.950 -26.210  0.00  0.00    -0.273 OA
ATOM      8  N   UNL     1      35.278 -10.832 -25.368  0.00  0.00    -0.301 N 
ATOM      9  C   UNL     1      34.114 -11.577 -25.257  0.00  0.00    +0.240 C 
ATOM     10  C   UNL     1      35.803 -10.420 -26.647  0.00  0.00    +0.111 C 
ATOM     11  H   UNL     1      35.762 -10.577 -24.550  0.00  0.00    +0.150 HD
ENDBRANCH   6   9
BRANCH   6  12
ATOM     12  C   UNL     1      33.317 -13.348 -23.538  0.00  0.00    +0.025 C 
ATOM     13  C   UNL     1      32.929 -14.087 -24.834  0.00  0.00    +0.002 C 
ATOM     14  C   UNL     1      32.123 -13.404 -22.566  0.00  0.00    +0.002 C 
ATOM     15  C   UNL     1      34.491 -14.107 -22.880  0.00  0.00    +0.002 C 
ENDBRANCH   6  12
ENDBRANCH   3   6
ENDBRANCH   1   4
BRANCH   1  16
ATOM     16  C   UNL     1      31.383  -7.653 -24.026  0.00  0.00    +0.012 C 
BRANCH  16  17
ATOM     17  C   UNL     1      32.088  -6.305 -23.753  0.00  0.00    +0.001 C 
ATOM     18  C   UNL     1      31.038  -5.207 -23.561  0.00  0.00    +0.000 C 
ATOM     19  C   UNL     1      33.047  -5.906 -24.875  0.00  0.00    +0.000 C 
ENDBRANCH  16  17
ENDBRANCH   1  16
BRANCH   1  20
ATOM     20  C   UNL     1      31.913  -8.209 -21.575  0.00  0.00    +0.197 C 
BRANCH  20  23
ATOM     21  O   UNL     1      31.155 -10.324 -20.679  0.00  0.00    -0.270 OA
ATOM     22  N   UNL     1      32.597  -9.038 -19.415  0.00  0.00    -0.195 N 
ATOM     23  C   UNL     1      31.838  -9.313 -20.525  0.00  0.00    +0.272 C 
ATOM     24  H   UNL     1      33.129  -8.213 -19.336  0.00  0.00    +0.182 HD
BRANCH  22  25
ATOM     25  O   UNL     1      32.569 -10.002 -18.398  0.00  0.00    -0.295 OA
ATOM     26  H   UNL     1      32.760  -9.580 -17.546  0.00  0.00    +0.241 HD
ENDBRANCH  22  25
ENDBRANCH  20  23
BRANCH  20  27
ATOM     27  O   UNL     1      33.177  -7.568 -21.485  0.00  0.00    -0.375 OA
ATOM     28  H   UNL     1      33.112  -6.673 -21.853  0.00  0.00    +0.211 HD
ENDBRANCH  20  27
ENDBRANCH   1  20
TORSDOF 10
ENDMDL
MODEL 8
REMARK VINA RESULT:      -6.8     13.068     16.663
REMARK  Name = 119031
REMARK  10 active torsions:
REMARK  status: ('A' for Active; 'I' for Inactive)
REMARK    1  A    between atoms: C_1  and  C_4
REMARK    2  A    between atoms: C_1  and  C_16
REMARK    3  A    between atoms: C_1  and  C_20
REMARK    4  A    between atoms: N_3  and  C_6
REMARK    5  A    between atoms: C_6  and  C_9
REMARK    6  A    between atoms: C_6  and  C_12
REMARK    7  A    between atoms: C_16  and  C_17
REMARK    8  A    between atoms: C_20  and  C_23
REMARK    9  A    between atoms: C_20  and  O_27
REMARK   10  A    between atoms: N_22  and  O_25
REMARK                            x       y       z     vdW  Elec       q    Type
REMARK                         _______ _______ _______ _____ _____    ______ ____
ROOT
ATOM      1  C   UNL     1      31.779  -9.166 -22.452  0.00  0.00    +0.112 C 
ENDROOT
BRANCH   1   4
ATOM      2  O   UNL     1      30.274 -11.056 -22.186  0.00  0.00    -0.275 OA
ATOM      3  N   UNL     1      32.447 -11.460 -22.886  0.00  0.00    -0.298 N 
ATOM      4  C   UNL     1      31.399 -10.650 -22.476  0.00  0.00    +0.225 C 
ATOM      5  H   UNL     1      33.315 -11.045 -23.098  0.00  0.00    +0.150 HD
BRANCH   3   6
ATOM      6  C   UNL     1      32.307 -12.890 -23.014  0.00  0.00    +0.148 C 
BRANCH   6   9
ATOM      7  O   UNL     1      32.604 -12.721 -20.612  0.00  0.00    -0.273 OA
ATOM      8  N   UNL     1      32.317 -14.822 -21.543  0.00  0.00    -0.301 N 
ATOM      9  C   UNL     1      32.436 -13.441 -21.594  0.00  0.00    +0.240 C 
ATOM     10  C   UNL     1      32.383 -15.550 -20.299  0.00  0.00    +0.111 C 
ATOM     11  H   UNL     1      32.185 -15.321 -22.381  0.00  0.00    +0.150 HD
ENDBRANCH   6   9
BRANCH   6  12
ATOM     12  C   UNL     1      33.311 -13.507 -24.035  0.00  0.00    +0.025 C 
ATOM     13  C   UNL     1      32.616 -14.443 -25.043  0.00  0.00    +0.002 C 
ATOM     14  C   UNL     1      34.407 -14.305 -23.302  0.00  0.00    +0.002 C 
ATOM     15  C   UNL     1      34.004 -12.374 -24.822  0.00  0.00    +0.002 C 
ENDBRANCH   6  12
ENDBRANCH   3   6
ENDBRANCH   1   4
BRANCH   1  16
ATOM     16  C   UNL     1      32.568  -8.764 -23.717  0.00  0.00    +0.012 C 
BRANCH  16  17
ATOM     17  C   UNL     1      34.050  -8.405 -23.467  0.00  0.00    +0.001 C 
ATOM     18  C   UNL     1      34.298  -6.946 -23.865  0.00  0.00    +0.000 C 
ATOM     19  C   UNL     1      35.011  -9.315 -24.233  0.00  0.00    +0.000 C 
ENDBRANCH  16  17
ENDBRANCH   1  16
BRANCH   1  20
ATOM     20  C   UNL     1      32.569  -8.889 -21.150  0.00  0.00    +0.197 C 
BRANCH  20  23
ATOM     21  O   UNL     1      32.750  -7.089 -19.545  0.00  0.00    -0.270 OA
ATOM     22  N   UNL     1      31.497  -6.749 -21.455  0.00  0.00    -0.195 N 
ATOM     23  C   UNL     1      32.297  -7.486 -20.618  0.00  0.00    +0.272 C 
ATOM     24  H   UNL     1      31.158  -7.110 -22.306  0.00  0.00    +0.182 HD
BRANCH  22  25
ATOM     25  O   UNL     1      31.192  -5.450 -21.027  0.00  0.00    -0.295 OA
ATOM     26  H   UNL     1      30.428  -5.116 -21.522  0.00  0.00    +0.241 HD
ENDBRANCH  22  25
ENDBRANCH  20  23
BRANCH  20  27
ATOM     27  O   UNL     1      32.223  -9.839 -20.154  0.00  0.00    -0.375 OA
ATOM     28  H   UNL     1      31.459 -10.357 -20.453  0.00  0.00    +0.211 HD
ENDBRANCH  20  27
ENDBRANCH   1  20
TORSDOF 10
ENDMDL
MODEL 9
REMARK VINA RESULT:      -6.8     13.384     16.380
REMARK  Name = 119031
REMARK  10 active torsions:
REMARK  status: ('A' for Active; 'I' for Inactive)
REMARK    1  A    between atoms: C_1  and  C_4
REMARK    2  A    between atoms: C_1  and  C_16
REMARK    3  A    between atoms: C_1  and  C_20
REMARK    4  A    between atoms: N_3  and  C_6
REMARK    5  A    between atoms: C_6  and  C_9
REMARK    6  A    between atoms: C_6  and  C_12
REMARK    7  A    between atoms: C_16  and  C_17
REMARK    8  A    between atoms: C_20  and  C_23
REMARK    9  A    between atoms: C_20  and  O_27
REMARK   10  A    between atoms: N_22  and  O_25
REMARK                            x       y       z     vdW  Elec       q    Type
REMARK                         _______ _______ _______ _____ _____    ______ ____
ROOT
ATOM      1  C   UNL     1      32.787 -12.040 -24.313  0.00  0.00    +0.112 C 
ENDROOT
BRANCH   1   4
ATOM      2  O   UNL     1      34.580 -10.539 -23.652  0.00  0.00    -0.275 OA
ATOM      3  N   UNL     1      32.424 -10.069 -22.941  0.00  0.00    -0.298 N 
ATOM      4  C   UNL     1      33.383 -10.820 -23.604  0.00  0.00    +0.225 C 
ATOM      5  H   UNL     1      31.487 -10.373 -22.958  0.00  0.00    +0.150 HD
BRANCH   3   6
ATOM      6  C   UNL     1      32.753  -8.858 -22.230  0.00  0.00    +0.148 C 
BRANCH   6   9
ATOM      7  O   UNL     1      32.660  -8.381 -19.853  0.00  0.00    -0.273 OA
ATOM      8  N   UNL     1      31.446 -10.178 -20.667  0.00  0.00    -0.301 N 
ATOM      9  C   UNL     1      32.305  -9.096 -20.788  0.00  0.00    +0.240 C 
ATOM     10  C   UNL     1      30.882 -10.567 -19.397  0.00  0.00    +0.111 C 
ATOM     11  H   UNL     1      31.215 -10.697 -21.470  0.00  0.00    +0.150 HD
ENDBRANCH   6   9
BRANCH   6  12
ATOM     12  C   UNL     1      32.142  -7.585 -22.889  0.00  0.00    +0.025 C 
ATOM     13  C   UNL     1      31.782  -6.505 -21.850  0.00  0.00    +0.002 C 
ATOM     14  C   UNL     1      30.871  -7.943 -23.683  0.00  0.00    +0.002 C 
ATOM     15  C   UNL     1      33.160  -6.982 -23.883  0.00  0.00    +0.002 C 
ENDBRANCH   6  12
ENDBRANCH   3   6
ENDBRANCH   1   4
BRANCH   1  16
ATOM     16  C   UNL     1      32.375 -13.134 -23.305  0.00  0.00    +0.012 C 
BRANCH  16  17
ATOM     17  C   UNL     1      33.361 -13.338 -22.132  0.00  0.00    +0.001 C 
ATOM     18  C   UNL     1      34.308 -14.497 -22.454  0.00  0.00    +0.000 C 
ATOM     19  C   UNL     1      32.648 -13.612 -20.807  0.00  0.00    +0.000 C 
ENDBRANCH  16  17
ENDBRANCH   1  16
BRANCH   1  20
ATOM     20  C   UNL     1      33.817 -12.550 -25.349  0.00  0.00    +0.197 C 
BRANCH  20  23
ATOM     21  O   UNL     1      32.579 -13.275 -27.296  0.00  0.00    -0.270 OA
ATOM     22  N   UNL     1      33.423 -14.875 -25.861  0.00  0.00    -0.195 N 
ATOM     23  C   UNL     1      33.205 -13.587 -26.285  0.00  0.00    +0.272 C 
ATOM     24  H   UNL     1      33.931 -15.076 -25.042  0.00  0.00    +0.182 HD
BRANCH  22  25
ATOM     25  O   UNL     1      32.878 -15.886 -26.664  0.00  0.00    -0.295 OA
ATOM     26  H   UNL     1      32.304 -16.453 -26.126  0.00  0.00    +0.241 HD
ENDBRANCH  22  25
ENDBRANCH  20  23
BRANCH  20  27
ATOM     27  O   UNL     1      34.317 -11.467 -26.119  0.00  0.00    -0.375 OA
ATOM     28  H   UNL     1      35.258 -11.336 -25.920  0.00  0.00    +0.211 HD
ENDBRANCH  20  27
ENDBRANCH   1  20
TORSDOF 10
ENDMDL
