MODEL 1
REMARK VINA RESULT:      -9.8      0.000      0.000
REMARK  Name = 2554
REMARK  0 active torsions:
REMARK  status: ('A' for Active; 'I' for Inactive)
REMARK                            x       y       z     vdW  Elec       q    Type
REMARK                         _______ _______ _______ _____ _____    ______ ____
ROOT
ATOM      1  O   UNL     1      33.074 -16.118 -26.100  0.00  0.00    -0.252 OA
ATOM      2  N   UNL     1      33.355 -14.353 -24.568  0.00  0.00    -0.222 N 
ATOM      3  N   UNL     1      32.523 -14.023 -26.761  0.00  0.00    -0.313 N 
ATOM      4  C   UNL     1      33.887 -15.184 -23.521  0.00  0.00    +0.060 C 
ATOM      5  C   UNL     1      33.458 -12.939 -24.336  0.00  0.00    +0.060 C 
ATOM      6  C   UNL     1      33.437 -15.103 -22.189  0.00  0.00    +0.014 C 
ATOM      7  C   UNL     1      32.906 -12.309 -23.205  0.00  0.00    +0.014 C 
ATOM      8  C   UNL     1      32.330 -14.244 -21.757  0.00  0.00    +0.001 C 
ATOM      9  C   UNL     1      32.094 -13.008 -22.207  0.00  0.00    +0.001 C 
ATOM     10  C   UNL     1      34.894 -16.118 -23.837  0.00  0.00    +0.015 C 
ATOM     11  C   UNL     1      34.169 -12.154 -25.267  0.00  0.00    +0.015 C 
ATOM     12  C   UNL     1      33.987 -15.963 -21.220  0.00  0.00    +0.001 C 
ATOM     13  C   UNL     1      33.043 -10.917 -23.055  0.00  0.00    +0.001 C 
ATOM     14  C   UNL     1      33.026 -14.915 -25.828  0.00  0.00    +0.308 C 
ATOM     15  C   UNL     1      35.440 -16.953 -22.861  0.00  0.00    +0.001 C 
ATOM     16  C   UNL     1      34.310 -10.777 -25.095  0.00  0.00    +0.001 C 
ATOM     17  C   UNL     1      34.985 -16.876 -21.552  0.00  0.00    +0.000 C 
ATOM     18  C   UNL     1      33.745 -10.158 -23.990  0.00  0.00    +0.000 C 
ATOM     19  H   UNL     1      32.272 -14.340 -27.659  0.00  0.00    +0.147 HD
ATOM     20  H   UNL     1      32.415 -13.073 -26.526  0.00  0.00    +0.147 HD
ENDROOT
TORSDOF 0
ENDMDL
MODEL 2
REMARK VINA RESULT:      -9.7      4.922      7.149
REMARK  Name = 2554
REMARK  0 active torsions:
REMARK  status: ('A' for Active; 'I' for Inactive)
REMARK                            x       y       z     vdW  Elec       q    Type
REMARK                         _______ _______ _______ _____ _____    ______ ____
ROOT
ATOM      1  O   UNL     1      32.322  -8.077 -19.913  0.00  0.00    -0.252 OA
ATOM      2  N   UNL     1      32.553  -7.569 -22.199  0.00  0.00    -0.222 N 
ATOM      3  N   UNL     1      32.166  -5.910 -20.554  0.00  0.00    -0.313 N 
ATOM      4  C   UNL     1      32.722  -8.936 -22.612  0.00  0.00    +0.060 C 
ATOM      5  C   UNL     1      32.363  -6.629 -23.269  0.00  0.00    +0.060 C 
ATOM      6  C   UNL     1      33.740  -9.339 -23.498  0.00  0.00    +0.014 C 
ATOM      7  C   UNL     1      33.290  -6.466 -24.316  0.00  0.00    +0.014 C 
ATOM      8  C   UNL     1      34.775  -8.435 -24.010  0.00  0.00    +0.001 C 
ATOM      9  C   UNL     1      34.577  -7.164 -24.370  0.00  0.00    +0.001 C 
ATOM     10  C   UNL     1      31.841  -9.915 -22.110  0.00  0.00    +0.015 C 
ATOM     11  C   UNL     1      31.184  -5.856 -23.286  0.00  0.00    +0.015 C 
ATOM     12  C   UNL     1      33.861 -10.699 -23.841  0.00  0.00    +0.001 C 
ATOM     13  C   UNL     1      33.035  -5.517 -25.322  0.00  0.00    +0.001 C 
ATOM     14  C   UNL     1      32.314  -7.258 -20.837  0.00  0.00    +0.308 C 
ATOM     15  C   UNL     1      31.964 -11.257 -22.472  0.00  0.00    +0.001 C 
ATOM     16  C   UNL     1      30.938  -4.932 -24.300  0.00  0.00    +0.001 C 
ATOM     17  C   UNL     1      32.977 -11.649 -23.337  0.00  0.00    +0.000 C 
ATOM     18  C   UNL     1      31.866  -4.759 -25.317  0.00  0.00    +0.000 C 
ATOM     19  H   UNL     1      31.997  -5.618 -19.628  0.00  0.00    +0.147 HD
ATOM     20  H   UNL     1      32.230  -5.245 -21.277  0.00  0.00    +0.147 HD
ENDROOT
TORSDOF 0
ENDMDL
MODEL 3
REMARK VINA RESULT:      -9.3      1.817      5.278
REMARK  Name = 2554
REMARK  0 active torsions:
REMARK  status: ('A' for Active; 'I' for Inactive)
REMARK                            x       y       z     vdW  Elec       q    Type
REMARK                         _______ _______ _______ _____ _____    ______ ____
ROOT
ATOM      1  O   UNL     1      31.960 -13.043 -21.841  0.00  0.00    -0.252 OA
ATOM      2  N   UNL     1      33.235 -14.374 -23.305  0.00  0.00    -0.222 N 
ATOM      3  N   UNL     1      32.236 -15.234 -21.337  0.00  0.00    -0.313 N 
ATOM      4  C   UNL     1      33.547 -13.299 -24.208  0.00  0.00    +0.060 C 
ATOM      5  C   UNL     1      33.967 -15.590 -23.530  0.00  0.00    +0.060 C 
ATOM      6  C   UNL     1      33.425 -13.424 -25.605  0.00  0.00    +0.014 C 
ATOM      7  C   UNL     1      33.950 -16.276 -24.759  0.00  0.00    +0.014 C 
ATOM      8  C   UNL     1      32.885 -14.614 -26.269  0.00  0.00    +0.001 C 
ATOM      9  C   UNL     1      33.115 -15.876 -25.894  0.00  0.00    +0.001 C 
ATOM     10  C   UNL     1      33.989 -12.069 -23.678  0.00  0.00    +0.015 C 
ATOM     11  C   UNL     1      34.759 -16.102 -22.482  0.00  0.00    +0.015 C 
ATOM     12  C   UNL     1      33.726 -12.322 -26.427  0.00  0.00    +0.001 C 
ATOM     13  C   UNL     1      34.687 -17.465 -24.896  0.00  0.00    +0.001 C 
ATOM     14  C   UNL     1      32.476 -14.126 -22.133  0.00  0.00    +0.308 C 
ATOM     15  C   UNL     1      34.299 -10.991 -24.507  0.00  0.00    +0.001 C 
ATOM     16  C   UNL     1      35.499 -17.274 -22.639  0.00  0.00    +0.001 C 
ATOM     17  C   UNL     1      34.166 -11.117 -25.883  0.00  0.00    +0.000 C 
ATOM     18  C   UNL     1      35.460 -17.958 -23.846  0.00  0.00    +0.000 C 
ATOM     19  H   UNL     1      31.715 -15.139 -20.507  0.00  0.00    +0.147 HD
ATOM     20  H   UNL     1      32.585 -16.116 -21.602  0.00  0.00    +0.147 HD
ENDROOT
TORSDOF 0
ENDMDL
MODEL 4
REMARK VINA RESULT:      -9.2      2.518      5.395
REMARK  Name = 2554
REMARK  0 active torsions:
REMARK  status: ('A' for Active; 'I' for Inactive)
REMARK                            x       y       z     vdW  Elec       q    Type
REMARK                         _______ _______ _______ _____ _____    ______ ____
ROOT
ATOM      1  O   UNL     1      31.134  -9.709 -22.788  0.00  0.00    -0.252 OA
ATOM      2  N   UNL     1      32.390 -11.692 -22.962  0.00  0.00    -0.222 N 
ATOM      3  N   UNL     1      30.416 -11.539 -21.663  0.00  0.00    -0.313 N 
ATOM      4  C   UNL     1      33.401 -11.122 -23.813  0.00  0.00    +0.060 C 
ATOM      5  C   UNL     1      32.695 -12.997 -22.445  0.00  0.00    +0.060 C 
ATOM      6  C   UNL     1      33.861 -11.766 -24.978  0.00  0.00    +0.014 C 
ATOM      7  C   UNL     1      32.982 -14.099 -23.272  0.00  0.00    +0.014 C 
ATOM      8  C   UNL     1      33.297 -13.020 -25.488  0.00  0.00    +0.001 C 
ATOM      9  C   UNL     1      32.907 -14.051 -24.734  0.00  0.00    +0.001 C 
ATOM     10  C   UNL     1      33.952  -9.870 -23.473  0.00  0.00    +0.015 C 
ATOM     11  C   UNL     1      32.735 -13.174 -21.046  0.00  0.00    +0.015 C 
ATOM     12  C   UNL     1      34.836 -11.139 -25.776  0.00  0.00    +0.001 C 
ATOM     13  C   UNL     1      33.263 -15.347 -22.687  0.00  0.00    +0.001 C 
ATOM     14  C   UNL     1      31.332 -10.886 -22.473  0.00  0.00    +0.308 C 
ATOM     15  C   UNL     1      34.930  -9.269 -24.267  0.00  0.00    +0.001 C 
ATOM     16  C   UNL     1      33.032 -14.414 -20.481  0.00  0.00    +0.001 C 
ATOM     17  C   UNL     1      35.371  -9.904 -25.420  0.00  0.00    +0.000 C 
ATOM     18  C   UNL     1      33.292 -15.502 -21.302  0.00  0.00    +0.000 C 
ATOM     19  H   UNL     1      29.653 -11.044 -21.285  0.00  0.00    +0.147 HD
ATOM     20  H   UNL     1      30.529 -12.497 -21.465  0.00  0.00    +0.147 HD
ENDROOT
TORSDOF 0
ENDMDL
MODEL 5
REMARK VINA RESULT:      -9.0     10.528     12.947
REMARK  Name = 2554
REMARK  0 active torsions:
REMARK  status: ('A' for Active; 'I' for Inactive)
REMARK                            x       y       z     vdW  Elec       q    Type
REMARK                         _______ _______ _______ _____ _____    ______ ____
ROOT
ATOM      1  O   UNL     1      33.966 -24.228 -13.341  0.00  0.00    -0.252 OA
ATOM      2  N   UNL     1      35.026 -23.609 -15.349  0.00  0.00    -0.222 N 
ATOM      3  N   UNL     1      32.880 -22.815 -14.738  0.00  0.00    -0.313 N 
ATOM      4  C   UNL     1      36.196 -24.414 -15.124  0.00  0.00    +0.060 C 
ATOM      5  C   UNL     1      34.917 -23.049 -16.668  0.00  0.00    +0.060 C 
ATOM      6  C   UNL     1      37.502 -23.919 -15.306  0.00  0.00    +0.014 C 
ATOM      7  C   UNL     1      35.907 -22.222 -17.230  0.00  0.00    +0.014 C 
ATOM      8  C   UNL     1      37.800 -22.525 -15.650  0.00  0.00    +0.001 C 
ATOM      9  C   UNL     1      37.094 -21.774 -16.499  0.00  0.00    +0.001 C 
ATOM     10  C   UNL     1      36.035 -25.749 -14.699  0.00  0.00    +0.015 C 
ATOM     11  C   UNL     1      33.782 -23.366 -17.442  0.00  0.00    +0.015 C 
ATOM     12  C   UNL     1      38.603 -24.757 -15.044  0.00  0.00    +0.001 C 
ATOM     13  C   UNL     1      35.722 -21.706 -18.526  0.00  0.00    +0.001 C 
ATOM     14  C   UNL     1      33.956 -23.627 -14.419  0.00  0.00    +0.308 C 
ATOM     15  C   UNL     1      37.137 -26.571 -14.458  0.00  0.00    +0.001 C 
ATOM     16  C   UNL     1      33.621 -22.859 -18.732  0.00  0.00    +0.001 C 
ATOM     17  C   UNL     1      38.421 -26.074 -14.630  0.00  0.00    +0.000 C 
ATOM     18  C   UNL     1      34.590 -22.026 -19.273  0.00  0.00    +0.000 C 
ATOM     19  H   UNL     1      32.100 -22.775 -14.138  0.00  0.00    +0.147 HD
ATOM     20  H   UNL     1      32.896 -22.277 -15.562  0.00  0.00    +0.147 HD
ENDROOT
TORSDOF 0
ENDMDL
MODEL 6
REMARK VINA RESULT:      -9.0      1.886      4.202
REMARK  Name = 2554
REMARK  0 active torsions:
REMARK  status: ('A' for Active; 'I' for Inactive)
REMARK                            x       y       z     vdW  Elec       q    Type
REMARK                         _______ _______ _______ _____ _____    ______ ____
ROOT
ATOM      1  O   UNL     1      34.920 -15.315 -23.019  0.00  0.00    -0.252 OA
ATOM      2  N   UNL     1      33.660 -13.338 -23.229  0.00  0.00    -0.222 N 
ATOM      3  N   UNL     1      34.419 -14.155 -21.140  0.00  0.00    -0.313 N 
ATOM      4  C   UNL     1      33.514 -13.436 -24.657  0.00  0.00    +0.060 C 
ATOM      5  C   UNL     1      32.848 -12.332 -22.602  0.00  0.00    +0.060 C 
ATOM      6  C   UNL     1      33.739 -12.344 -25.518  0.00  0.00    +0.014 C 
ATOM      7  C   UNL     1      32.907 -10.972 -22.958  0.00  0.00    +0.014 C 
ATOM      8  C   UNL     1      34.228 -11.040 -25.062  0.00  0.00    +0.001 C 
ATOM      9  C   UNL     1      33.862 -10.433 -23.929  0.00  0.00    +0.001 C 
ATOM     10  C   UNL     1      33.137 -14.672 -25.220  0.00  0.00    +0.015 C 
ATOM     11  C   UNL     1      31.932 -12.730 -21.606  0.00  0.00    +0.015 C 
ATOM     12  C   UNL     1      33.600 -12.519 -26.907  0.00  0.00    +0.001 C 
ATOM     13  C   UNL     1      32.084 -10.047 -22.290  0.00  0.00    +0.001 C 
ATOM     14  C   UNL     1      34.339 -14.353 -22.508  0.00  0.00    +0.308 C 
ATOM     15  C   UNL     1      32.989 -14.825 -26.600  0.00  0.00    +0.001 C 
ATOM     16  C   UNL     1      31.111 -11.803 -20.965  0.00  0.00    +0.001 C 
ATOM     17  C   UNL     1      33.222 -13.748 -27.443  0.00  0.00    +0.000 C 
ATOM     18  C   UNL     1      31.189 -10.460 -21.305  0.00  0.00    +0.000 C 
ATOM     19  H   UNL     1      34.876 -14.818 -20.573  0.00  0.00    +0.147 HD
ATOM     20  H   UNL     1      34.019 -13.352 -20.734  0.00  0.00    +0.147 HD
ENDROOT
TORSDOF 0
ENDMDL
MODEL 7
REMARK VINA RESULT:      -9.0      4.632      7.715
REMARK  Name = 2554
REMARK  0 active torsions:
REMARK  status: ('A' for Active; 'I' for Inactive)
REMARK                            x       y       z     vdW  Elec       q    Type
REMARK                         _______ _______ _______ _____ _____    ______ ____
ROOT
ATOM      1  O   UNL     1      34.598  -7.753 -24.731  0.00  0.00    -0.252 OA
ATOM      2  N   UNL     1      33.064  -8.307 -23.034  0.00  0.00    -0.222 N 
ATOM      3  N   UNL     1      34.771  -9.786 -23.747  0.00  0.00    -0.313 N 
ATOM      4  C   UNL     1      32.337  -7.069 -23.117  0.00  0.00    +0.060 C 
ATOM      5  C   UNL     1      32.447  -9.322 -22.226  0.00  0.00    +0.060 C 
ATOM      6  C   UNL     1      31.987  -6.319 -21.977  0.00  0.00    +0.014 C 
ATOM      7  C   UNL     1      32.123  -9.127 -20.870  0.00  0.00    +0.014 C 
ATOM      8  C   UNL     1      32.402  -6.671 -20.616  0.00  0.00    +0.001 C 
ATOM      9  C   UNL     1      32.464  -7.912 -20.126  0.00  0.00    +0.001 C 
ATOM     10  C   UNL     1      31.964  -6.581 -24.385  0.00  0.00    +0.015 C 
ATOM     11  C   UNL     1      32.128 -10.558 -22.825  0.00  0.00    +0.015 C 
ATOM     12  C   UNL     1      31.295  -5.104 -22.135  0.00  0.00    +0.001 C 
ATOM     13  C   UNL     1      31.527 -10.174 -20.145  0.00  0.00    +0.001 C 
ATOM     14  C   UNL     1      34.144  -8.562 -23.916  0.00  0.00    +0.308 C 
ATOM     15  C   UNL     1      31.264  -5.381 -24.524  0.00  0.00    +0.001 C 
ATOM     16  C   UNL     1      31.523 -11.582 -22.096  0.00  0.00    +0.001 C 
ATOM     17  C   UNL     1      30.931  -4.642 -23.397  0.00  0.00    +0.000 C 
ATOM     18  C   UNL     1      31.225 -11.391 -20.754  0.00  0.00    +0.000 C 
ATOM     19  H   UNL     1      35.530 -10.034 -24.324  0.00  0.00    +0.147 HD
ATOM     20  H   UNL     1      34.459 -10.407 -23.051  0.00  0.00    +0.147 HD
ENDROOT
TORSDOF 0
ENDMDL
MODEL 8
REMARK VINA RESULT:      -8.9      2.540      4.638
REMARK  Name = 2554
REMARK  0 active torsions:
REMARK  status: ('A' for Active; 'I' for Inactive)
REMARK                            x       y       z     vdW  Elec       q    Type
REMARK                         _______ _______ _______ _____ _____    ______ ____
ROOT
ATOM      1  O   UNL     1      34.624  -9.389 -23.598  0.00  0.00    -0.252 OA
ATOM      2  N   UNL     1      33.721 -11.523 -24.013  0.00  0.00    -0.222 N 
ATOM      3  N   UNL     1      35.436 -10.579 -25.346  0.00  0.00    -0.313 N 
ATOM      4  C   UNL     1      32.773 -11.466 -22.933  0.00  0.00    +0.060 C 
ATOM      5  C   UNL     1      33.544 -12.621 -24.922  0.00  0.00    +0.060 C 
ATOM      6  C   UNL     1      32.592 -12.530 -22.027  0.00  0.00    +0.014 C 
ATOM      7  C   UNL     1      33.551 -13.965 -24.506  0.00  0.00    +0.014 C 
ATOM      8  C   UNL     1      33.408 -13.749 -22.035  0.00  0.00    +0.001 C 
ATOM      9  C   UNL     1      33.833 -14.383 -23.131  0.00  0.00    +0.001 C 
ATOM     10  C   UNL     1      31.995 -10.302 -22.768  0.00  0.00    +0.015 C 
ATOM     11  C   UNL     1      33.325 -12.337 -26.286  0.00  0.00    +0.015 C 
ATOM     12  C   UNL     1      31.662 -12.396 -20.979  0.00  0.00    +0.001 C 
ATOM     13  C   UNL     1      33.379 -14.984 -25.460  0.00  0.00    +0.001 C 
ATOM     14  C   UNL     1      34.563 -10.414 -24.283  0.00  0.00    +0.308 C 
ATOM     15  C   UNL     1      31.065 -10.191 -21.733  0.00  0.00    +0.001 C 
ATOM     16  C   UNL     1      33.139 -13.358 -27.217  0.00  0.00    +0.001 C 
ATOM     17  C   UNL     1      30.900 -11.239 -20.837  0.00  0.00    +0.000 C 
ATOM     18  C   UNL     1      33.170 -14.683 -26.805  0.00  0.00    +0.000 C 
ATOM     19  H   UNL     1      36.052  -9.851 -25.593  0.00  0.00    +0.147 HD
ATOM     20  H   UNL     1      35.442 -11.423 -25.852  0.00  0.00    +0.147 HD
ENDROOT
TORSDOF 0
ENDMDL
MODEL 9
REMARK VINA RESULT:      -7.9     10.573     12.423
REMARK  Name = 2554
REMARK  0 active torsions:
REMARK  status: ('A' for Active; 'I' for Inactive)
REMARK                            x       y       z     vdW  Elec       q    Type
REMARK                         _______ _______ _______ _____ _____    ______ ____
ROOT
ATOM      1  O   UNL     1      35.062 -25.451 -14.151  0.00  0.00    -0.252 OA
ATOM      2  N   UNL     1      34.900 -23.735 -15.754  0.00  0.00    -0.222 N 
ATOM      3  N   UNL     1      36.899 -24.946 -15.374  0.00  0.00    -0.313 N 
ATOM      4  C   UNL     1      33.526 -23.424 -15.462  0.00  0.00    +0.060 C 
ATOM      5  C   UNL     1      35.567 -22.797 -16.614  0.00  0.00    +0.060 C 
ATOM      6  C   UNL     1      32.557 -23.259 -16.471  0.00  0.00    +0.014 C 
ATOM      7  C   UNL     1      35.100 -22.477 -17.902  0.00  0.00    +0.014 C 
ATOM      8  C   UNL     1      32.825 -23.476 -17.896  0.00  0.00    +0.001 C 
ATOM      9  C   UNL     1      33.950 -23.132 -18.529  0.00  0.00    +0.001 C 
ATOM     10  C   UNL     1      33.129 -23.283 -14.117  0.00  0.00    +0.015 C 
ATOM     11  C   UNL     1      36.724 -22.149 -16.135  0.00  0.00    +0.015 C 
ATOM     12  C   UNL     1      31.226 -22.978 -16.112  0.00  0.00    +0.001 C 
ATOM     13  C   UNL     1      35.815 -21.554 -18.687  0.00  0.00    +0.001 C 
ATOM     14  C   UNL     1      35.581 -24.730 -15.008  0.00  0.00    +0.308 C 
ATOM     15  C   UNL     1      31.807 -22.989 -13.778  0.00  0.00    +0.001 C 
ATOM     16  C   UNL     1      37.413 -21.224 -16.919  0.00  0.00    +0.001 C 
ATOM     17  C   UNL     1      30.855 -22.838 -14.777  0.00  0.00    +0.000 C 
ATOM     18  C   UNL     1      36.961 -20.929 -18.197  0.00  0.00    +0.000 C 
ATOM     19  H   UNL     1      37.436 -25.623 -14.901  0.00  0.00    +0.147 HD
ATOM     20  H   UNL     1      37.299 -24.424 -16.106  0.00  0.00    +0.147 HD
ENDROOT
TORSDOF 0
ENDMDL
