MODEL 1
REMARK VINA RESULT:      -6.8      0.000      0.000
REMARK  Name = 205131
REMARK  3 active torsions:
REMARK  status: ('A' for Active; 'I' for Inactive)
REMARK    1  A    between atoms: C_1  and  C_6
REMARK    2  A    between atoms: C_1  and  C_12
REMARK    3  A    between atoms: C_12  and  N_13
REMARK                            x       y       z     vdW  Elec       q    Type
REMARK                         _______ _______ _______ _____ _____    ______ ____
ROOT
ATOM      1  C   UNL     1      32.615  -8.520 -22.860  0.00  0.00    -0.001 C 
ATOM      2  C   UNL     1      31.478  -8.040 -23.792  0.00  0.00    +0.002 C 
ATOM      3  C   UNL     1      33.210  -7.148 -22.464  0.00  0.00    +0.002 C 
ATOM      4  C   UNL     1      30.872  -6.834 -23.075  0.00  0.00    +0.000 C 
ATOM      5  C   UNL     1      32.007  -6.231 -22.249  0.00  0.00    +0.000 C 
ENDROOT
BRANCH   1   6
ATOM      6  C   UNL     1      32.072  -9.378 -21.707  0.00  0.00    -0.025 C 
ATOM      7  C   UNL     1      32.323  -9.008 -20.387  0.00  0.00    -0.004 C 
ATOM      8  C   UNL     1      31.329 -10.524 -21.984  0.00  0.00    -0.004 C 
ATOM      9  C   UNL     1      31.830  -9.788 -19.340  0.00  0.00    -0.000 C 
ATOM     10  C   UNL     1      30.836 -11.304 -20.938  0.00  0.00    -0.000 C 
ATOM     11  C   UNL     1      31.087 -10.936 -19.616  0.00  0.00    -0.000 C 
ENDBRANCH   1   6
BRANCH   1  12
ATOM     12  C   UNL     1      33.666  -9.334 -23.635  0.00  0.00    -0.082 C 
BRANCH  12  13
ATOM     13  N   UNL     1      34.833  -8.548 -23.892  0.00  0.00    +0.381 N 
ATOM     14  H   UNL     1      35.208  -8.787 -24.809  0.00  0.00    -0.089 HD
ATOM     15  H   UNL     1      35.535  -8.738 -23.176  0.00  0.00    -0.089 HD
ATOM     16  H   UNL     1      34.587  -7.558 -23.872  0.00  0.00    -0.089 HD
ENDBRANCH  12  13
ENDBRANCH   1  12
TORSDOF 3
ENDMDL
MODEL 2
REMARK VINA RESULT:      -6.8      9.004     10.708
REMARK  Name = 205131
REMARK  3 active torsions:
REMARK  status: ('A' for Active; 'I' for Inactive)
REMARK    1  A    between atoms: C_1  and  C_6
REMARK    2  A    between atoms: C_1  and  C_12
REMARK    3  A    between atoms: C_12  and  N_13
REMARK                            x       y       z     vdW  Elec       q    Type
REMARK                         _______ _______ _______ _____ _____    ______ ____
ROOT
ATOM      1  C   UNL     1      34.910 -18.055 -21.775  0.00  0.00    -0.001 C 
ATOM      2  C   UNL     1      36.251 -18.261 -22.518  0.00  0.00    +0.002 C 
ATOM      3  C   UNL     1      34.005 -17.716 -22.983  0.00  0.00    +0.002 C 
ATOM      4  C   UNL     1      35.882 -19.054 -23.771  0.00  0.00    +0.000 C 
ATOM      5  C   UNL     1      34.440 -18.667 -24.096  0.00  0.00    +0.000 C 
ENDROOT
BRANCH   1   6
ATOM      6  C   UNL     1      34.518 -19.302 -20.967  0.00  0.00    -0.025 C 
ATOM      7  C   UNL     1      33.174 -19.584 -20.731  0.00  0.00    -0.004 C 
ATOM      8  C   UNL     1      35.509 -20.149 -20.472  0.00  0.00    -0.004 C 
ATOM      9  C   UNL     1      32.819 -20.716 -19.997  0.00  0.00    -0.000 C 
ATOM     10  C   UNL     1      35.154 -21.281 -19.738  0.00  0.00    -0.000 C 
ATOM     11  C   UNL     1      33.809 -21.564 -19.501  0.00  0.00    -0.000 C 
ENDBRANCH   1   6
BRANCH   1  12
ATOM     12  C   UNL     1      34.978 -16.847 -20.825  0.00  0.00    -0.082 C 
BRANCH  12  13
ATOM     13  N   UNL     1      34.677 -15.634 -21.520  0.00  0.00    +0.381 N 
ATOM     14  H   UNL     1      35.262 -15.565 -22.353  0.00  0.00    -0.089 HD
ATOM     15  H   UNL     1      34.860 -14.838 -20.909  0.00  0.00    -0.089 HD
ATOM     16  H   UNL     1      33.694 -15.633 -21.793  0.00  0.00    -0.089 HD
ENDBRANCH  12  13
ENDBRANCH   1  12
TORSDOF 3
ENDMDL
MODEL 3
REMARK VINA RESULT:      -6.6      7.696      9.532
REMARK  Name = 205131
REMARK  3 active torsions:
REMARK  status: ('A' for Active; 'I' for Inactive)
REMARK    1  A    between atoms: C_1  and  C_6
REMARK    2  A    between atoms: C_1  and  C_12
REMARK    3  A    between atoms: C_12  and  N_13
REMARK                            x       y       z     vdW  Elec       q    Type
REMARK                         _______ _______ _______ _____ _____    ______ ____
ROOT
ATOM      1  C   UNL     1      34.869 -18.089 -22.826  0.00  0.00    -0.001 C 
ATOM      2  C   UNL     1      36.352 -18.327 -22.458  0.00  0.00    +0.002 C 
ATOM      3  C   UNL     1      34.248 -19.358 -22.193  0.00  0.00    +0.002 C 
ATOM      4  C   UNL     1      36.318 -18.838 -21.017  0.00  0.00    +0.000 C 
ATOM      5  C   UNL     1      34.971 -19.543 -20.861  0.00  0.00    +0.000 C 
ENDROOT
BRANCH   1   6
ATOM      6  C   UNL     1      34.363 -16.746 -22.278  0.00  0.00    -0.025 C 
ATOM      7  C   UNL     1      33.479 -16.722 -21.201  0.00  0.00    -0.004 C 
ATOM      8  C   UNL     1      34.790 -15.553 -22.859  0.00  0.00    -0.004 C 
ATOM      9  C   UNL     1      33.020 -15.502 -20.704  0.00  0.00    -0.000 C 
ATOM     10  C   UNL     1      34.331 -14.333 -22.363  0.00  0.00    -0.000 C 
ATOM     11  C   UNL     1      33.446 -14.308 -21.285  0.00  0.00    -0.000 C 
ENDBRANCH   1   6
BRANCH   1  12
ATOM     12  C   UNL     1      34.660 -18.117 -24.349  0.00  0.00    -0.082 C 
BRANCH  12  13
ATOM     13  N   UNL     1      34.631 -19.460 -24.837  0.00  0.00    +0.381 N 
ATOM     14  H   UNL     1      33.752 -19.901 -24.567  0.00  0.00    -0.089 HD
ATOM     15  H   UNL     1      35.410 -19.984 -24.438  0.00  0.00    -0.089 HD
ATOM     16  H   UNL     1      34.711 -19.455 -25.854  0.00  0.00    -0.089 HD
ENDBRANCH  12  13
ENDBRANCH   1  12
TORSDOF 3
ENDMDL
MODEL 4
REMARK VINA RESULT:      -6.5      9.186     10.782
REMARK  Name = 205131
REMARK  3 active torsions:
REMARK  status: ('A' for Active; 'I' for Inactive)
REMARK    1  A    between atoms: C_1  and  C_6
REMARK    2  A    between atoms: C_1  and  C_12
REMARK    3  A    between atoms: C_12  and  N_13
REMARK                            x       y       z     vdW  Elec       q    Type
REMARK                         _______ _______ _______ _____ _____    ______ ____
ROOT
ATOM      1  C   UNL     1      34.664 -18.698 -22.117  0.00  0.00    -0.001 C 
ATOM      2  C   UNL     1      33.390 -17.821 -22.084  0.00  0.00    +0.002 C 
ATOM      3  C   UNL     1      35.730 -17.596 -21.909  0.00  0.00    +0.002 C 
ATOM      4  C   UNL     1      33.628 -16.834 -20.942  0.00  0.00    +0.000 C 
ATOM      5  C   UNL     1      35.143 -16.655 -20.859  0.00  0.00    +0.000 C 
ENDROOT
BRANCH   1   6
ATOM      6  C   UNL     1      34.616 -19.800 -21.048  0.00  0.00    -0.025 C 
ATOM      7  C   UNL     1      33.387 -20.275 -20.593  0.00  0.00    -0.004 C 
ATOM      8  C   UNL     1      35.801 -20.323 -20.535  0.00  0.00    -0.004 C 
ATOM      9  C   UNL     1      33.344 -21.275 -19.621  0.00  0.00    -0.000 C 
ATOM     10  C   UNL     1      35.759 -21.323 -19.564  0.00  0.00    -0.000 C 
ATOM     11  C   UNL     1      34.530 -21.799 -19.107  0.00  0.00    -0.000 C 
ENDBRANCH   1   6
BRANCH   1  12
ATOM     12  C   UNL     1      34.858 -19.350 -23.496  0.00  0.00    -0.082 C 
BRANCH  12  13
ATOM     13  N   UNL     1      34.617 -18.408 -24.545  0.00  0.00    +0.381 N 
ATOM     14  H   UNL     1      35.341 -17.690 -24.530  0.00  0.00    -0.089 HD
ATOM     15  H   UNL     1      33.704 -17.974 -24.409  0.00  0.00    -0.089 HD
ATOM     16  H   UNL     1      34.634 -18.890 -25.445  0.00  0.00    -0.089 HD
ENDBRANCH  12  13
ENDBRANCH   1  12
TORSDOF 3
ENDMDL
MODEL 5
REMARK VINA RESULT:      -6.5      9.185     10.746
REMARK  Name = 205131
REMARK  3 active torsions:
REMARK  status: ('A' for Active; 'I' for Inactive)
REMARK    1  A    between atoms: C_1  and  C_6
REMARK    2  A    between atoms: C_1  and  C_12
REMARK    3  A    between atoms: C_12  and  N_13
REMARK                            x       y       z     vdW  Elec       q    Type
REMARK                         _______ _______ _______ _____ _____    ______ ____
ROOT
ATOM      1  C   UNL     1      34.662 -18.697 -22.116  0.00  0.00    -0.001 C 
ATOM      2  C   UNL     1      33.387 -17.821 -22.080  0.00  0.00    +0.002 C 
ATOM      3  C   UNL     1      35.728 -17.595 -21.909  0.00  0.00    +0.002 C 
ATOM      4  C   UNL     1      33.627 -16.834 -20.938  0.00  0.00    +0.000 C 
ATOM      5  C   UNL     1      35.142 -16.655 -20.857  0.00  0.00    +0.000 C 
ENDROOT
BRANCH   1   6
ATOM      6  C   UNL     1      34.616 -19.800 -21.047  0.00  0.00    -0.025 C 
ATOM      7  C   UNL     1      35.802 -20.322 -20.534  0.00  0.00    -0.004 C 
ATOM      8  C   UNL     1      33.387 -20.275 -20.591  0.00  0.00    -0.004 C 
ATOM      9  C   UNL     1      35.759 -21.324 -19.564  0.00  0.00    -0.000 C 
ATOM     10  C   UNL     1      33.344 -21.276 -19.622  0.00  0.00    -0.000 C 
ATOM     11  C   UNL     1      34.531 -21.801 -19.108  0.00  0.00    -0.000 C 
ENDBRANCH   1   6
BRANCH   1  12
ATOM     12  C   UNL     1      34.854 -19.348 -23.496  0.00  0.00    -0.082 C 
BRANCH  12  13
ATOM     13  N   UNL     1      34.639 -18.399 -24.543  0.00  0.00    +0.381 N 
ATOM     14  H   UNL     1      33.675 -18.464 -24.870  0.00  0.00    -0.089 HD
ATOM     15  H   UNL     1      35.274 -18.596 -25.317  0.00  0.00    -0.089 HD
ATOM     16  H   UNL     1      34.815 -17.458 -24.190  0.00  0.00    -0.089 HD
ENDBRANCH  12  13
ENDBRANCH   1  12
TORSDOF 3
ENDMDL
MODEL 6
REMARK VINA RESULT:      -6.5      1.967      3.646
REMARK  Name = 205131
REMARK  3 active torsions:
REMARK  status: ('A' for Active; 'I' for Inactive)
REMARK    1  A    between atoms: C_1  and  C_6
REMARK    2  A    between atoms: C_1  and  C_12
REMARK    3  A    between atoms: C_12  and  N_13
REMARK                            x       y       z     vdW  Elec       q    Type
REMARK                         _______ _______ _______ _____ _____    ______ ____
ROOT
ATOM      1  C   UNL     1      32.352  -8.139 -22.493  0.00  0.00    -0.001 C 
ATOM      2  C   UNL     1      32.876  -6.684 -22.535  0.00  0.00    +0.002 C 
ATOM      3  C   UNL     1      30.914  -7.901 -23.013  0.00  0.00    +0.002 C 
ATOM      4  C   UNL     1      32.349  -6.120 -23.854  0.00  0.00    +0.000 C 
ATOM      5  C   UNL     1      31.054  -6.879 -24.140  0.00  0.00    +0.000 C 
ENDROOT
BRANCH   1   6
ATOM      6  C   UNL     1      33.228  -9.077 -23.337  0.00  0.00    -0.025 C 
ATOM      7  C   UNL     1      34.431  -8.615 -23.868  0.00  0.00    -0.004 C 
ATOM      8  C   UNL     1      32.819 -10.389 -23.568  0.00  0.00    -0.004 C 
ATOM      9  C   UNL     1      35.226  -9.467 -24.635  0.00  0.00    -0.000 C 
ATOM     10  C   UNL     1      33.614 -11.241 -24.334  0.00  0.00    -0.000 C 
ATOM     11  C   UNL     1      34.818 -10.780 -24.868  0.00  0.00    -0.000 C 
ENDBRANCH   1   6
BRANCH   1  12
ATOM     12  C   UNL     1      32.297  -8.671 -21.051  0.00  0.00    -0.082 C 
BRANCH  12  13
ATOM     13  N   UNL     1      33.014  -7.812 -20.161  0.00  0.00    +0.381 N 
ATOM     14  H   UNL     1      32.586  -7.846 -19.236  0.00  0.00    -0.089 HD
ATOM     15  H   UNL     1      32.985  -6.856 -20.515  0.00  0.00    -0.089 HD
ATOM     16  H   UNL     1      33.985  -8.121 -20.099  0.00  0.00    -0.089 HD
ENDBRANCH  12  13
ENDBRANCH   1  12
TORSDOF 3
ENDMDL
MODEL 7
REMARK VINA RESULT:      -6.4      1.380      2.347
REMARK  Name = 205131
REMARK  3 active torsions:
REMARK  status: ('A' for Active; 'I' for Inactive)
REMARK    1  A    between atoms: C_1  and  C_6
REMARK    2  A    between atoms: C_1  and  C_12
REMARK    3  A    between atoms: C_12  and  N_13
REMARK                            x       y       z     vdW  Elec       q    Type
REMARK                         _______ _______ _______ _____ _____    ______ ____
ROOT
ATOM      1  C   UNL     1      32.158  -8.327 -23.045  0.00  0.00    -0.001 C 
ATOM      2  C   UNL     1      33.141  -7.172 -22.739  0.00  0.00    +0.002 C 
ATOM      3  C   UNL     1      32.906  -8.984 -24.229  0.00  0.00    +0.002 C 
ATOM      4  C   UNL     1      34.528  -7.805 -22.845  0.00  0.00    +0.000 C 
ATOM      5  C   UNL     1      34.384  -8.952 -23.844  0.00  0.00    +0.000 C 
ENDROOT
BRANCH   1   6
ATOM      6  C   UNL     1      31.935  -9.216 -21.811  0.00  0.00    -0.025 C 
ATOM      7  C   UNL     1      32.167  -8.706 -20.535  0.00  0.00    -0.004 C 
ATOM      8  C   UNL     1      31.499 -10.530 -21.971  0.00  0.00    -0.004 C 
ATOM      9  C   UNL     1      31.964  -9.514 -19.416  0.00  0.00    -0.000 C 
ATOM     10  C   UNL     1      31.296 -11.337 -20.853  0.00  0.00    -0.000 C 
ATOM     11  C   UNL     1      31.529 -10.829 -19.575  0.00  0.00    -0.000 C 
ENDBRANCH   1   6
BRANCH   1  12
ATOM     12  C   UNL     1      30.799  -7.791 -23.526  0.00  0.00    -0.082 C 
BRANCH  12  13
ATOM     13  N   UNL     1      30.968  -6.628 -24.340  0.00  0.00    +0.381 N 
ATOM     14  H   UNL     1      31.598  -5.975 -23.873  0.00  0.00    -0.089 HD
ATOM     15  H   UNL     1      30.063  -6.181 -24.487  0.00  0.00    -0.089 HD
ATOM     16  H   UNL     1      31.364  -6.898 -25.241  0.00  0.00    -0.089 HD
ENDBRANCH  12  13
ENDBRANCH   1  12
TORSDOF 3
ENDMDL
MODEL 8
REMARK VINA RESULT:      -6.3      6.504      8.068
REMARK  Name = 205131
REMARK  3 active torsions:
REMARK  status: ('A' for Active; 'I' for Inactive)
REMARK    1  A    between atoms: C_1  and  C_6
REMARK    2  A    between atoms: C_1  and  C_12
REMARK    3  A    between atoms: C_12  and  N_13
REMARK                            x       y       z     vdW  Elec       q    Type
REMARK                         _______ _______ _______ _____ _____    ______ ____
ROOT
ATOM      1  C   UNL     1      34.011 -14.992 -22.810  0.00  0.00    -0.001 C 
ATOM      2  C   UNL     1      32.603 -14.934 -22.172  0.00  0.00    +0.002 C 
ATOM      3  C   UNL     1      34.849 -14.485 -21.612  0.00  0.00    +0.002 C 
ATOM      4  C   UNL     1      32.794 -15.479 -20.757  0.00  0.00    +0.000 C 
ATOM      5  C   UNL     1      34.238 -15.149 -20.379  0.00  0.00    +0.000 C 
ENDROOT
BRANCH   1   6
ATOM      6  C   UNL     1      34.341 -16.406 -23.314  0.00  0.00    -0.025 C 
ATOM      7  C   UNL     1      34.161 -16.725 -24.658  0.00  0.00    -0.004 C 
ATOM      8  C   UNL     1      34.821 -17.366 -22.424  0.00  0.00    -0.004 C 
ATOM      9  C   UNL     1      34.461 -18.009 -25.115  0.00  0.00    -0.000 C 
ATOM     10  C   UNL     1      35.121 -18.649 -22.880  0.00  0.00    -0.000 C 
ATOM     11  C   UNL     1      34.940 -18.971 -24.226  0.00  0.00    -0.000 C 
ENDBRANCH   1   6
BRANCH   1  12
ATOM     12  C   UNL     1      34.136 -14.004 -23.982  0.00  0.00    -0.082 C 
BRANCH  12  13
ATOM     13  N   UNL     1      34.039 -12.653 -23.523  0.00  0.00    +0.381 N 
ATOM     14  H   UNL     1      33.056 -12.402 -23.410  0.00  0.00    -0.089 HD
ATOM     15  H   UNL     1      34.472 -12.030 -24.205  0.00  0.00    -0.089 HD
ATOM     16  H   UNL     1      34.518 -12.563 -22.627  0.00  0.00    -0.089 HD
ENDBRANCH  12  13
ENDBRANCH   1  12
TORSDOF 3
ENDMDL
MODEL 9
REMARK VINA RESULT:      -6.2     15.739     18.110
REMARK  Name = 205131
REMARK  3 active torsions:
REMARK  status: ('A' for Active; 'I' for Inactive)
REMARK    1  A    between atoms: C_1  and  C_6
REMARK    2  A    between atoms: C_1  and  C_12
REMARK    3  A    between atoms: C_12  and  N_13
REMARK                            x       y       z     vdW  Elec       q    Type
REMARK                         _______ _______ _______ _____ _____    ______ ____
ROOT
ATOM      1  C   UNL     1      36.956 -24.895 -13.544  0.00  0.00    -0.001 C 
ATOM      2  C   UNL     1      38.190 -24.401 -12.754  0.00  0.00    +0.002 C 
ATOM      3  C   UNL     1      35.915 -24.909 -12.399  0.00  0.00    +0.002 C 
ATOM      4  C   UNL     1      37.653 -23.293 -11.849  0.00  0.00    +0.000 C 
ATOM      5  C   UNL     1      36.191 -23.647 -11.585  0.00  0.00    +0.000 C 
ENDROOT
BRANCH   1   6
ATOM      6  C   UNL     1      36.641 -23.970 -14.730  0.00  0.00    -0.025 C 
ATOM      7  C   UNL     1      35.326 -23.818 -15.164  0.00  0.00    -0.004 C 
ATOM      8  C   UNL     1      37.673 -23.284 -15.370  0.00  0.00    -0.004 C 
ATOM      9  C   UNL     1      35.041 -22.978 -16.241  0.00  0.00    -0.000 C 
ATOM     10  C   UNL     1      37.389 -22.445 -16.446  0.00  0.00    -0.000 C 
ATOM     11  C   UNL     1      36.072 -22.292 -16.882  0.00  0.00    -0.000 C 
ENDBRANCH   1   6
BRANCH   1  12
ATOM     12  C   UNL     1      37.165 -26.326 -14.070  0.00  0.00    -0.082 C 
BRANCH  12  13
ATOM     13  N   UNL     1      38.556 -26.615 -14.223  0.00  0.00    +0.381 N 
ATOM     14  H   UNL     1      39.014 -25.840 -14.702  0.00  0.00    -0.089 HD
ATOM     15  H   UNL     1      38.668 -27.468 -14.772  0.00  0.00    -0.089 HD
ATOM     16  H   UNL     1      38.980 -26.745 -13.304  0.00  0.00    -0.089 HD
ENDBRANCH  12  13
ENDBRANCH   1  12
TORSDOF 3
ENDMDL
