MODEL 1
REMARK VINA RESULT:      -7.6      0.000      0.000
REMARK  Name = 19241
REMARK  5 active torsions:
REMARK  status: ('A' for Active; 'I' for Inactive)
REMARK    1  A    between atoms: S_1  and  C_4
REMARK    2  A    between atoms: S_1  and  N_10
REMARK    3  A    between atoms: N_10  and  C_12
REMARK    4  A    between atoms: C_12  and  C_13
REMARK    5  A    between atoms: C_13  and  C_14
REMARK                            x       y       z     vdW  Elec       q    Type
REMARK                         _______ _______ _______ _____ _____    ______ ____
ROOT
ATOM      1  S   UNL     1      34.028 -22.776 -18.664  0.00  0.00    +0.060 S 
ATOM      2  O   UNL     1      33.965 -23.928 -19.543  0.00  0.00    -0.153 OA
ATOM      3  O   UNL     1      35.042 -22.700 -17.631  0.00  0.00    -0.153 OA
ENDROOT
BRANCH   1   4
ATOM      4  C   UNL     1      34.207 -21.332 -19.670  0.00  0.00    +0.122 C 
ATOM      5  C   UNL     1      35.476 -20.923 -20.043  0.00  0.00    +0.020 C 
ATOM      6  C   UNL     1      33.076 -20.638 -20.062  0.00  0.00    +0.020 C 
ATOM      7  C   UNL     1      35.617 -19.784 -20.836  0.00  0.00    +0.001 C 
ATOM      8  C   UNL     1      33.218 -19.499 -20.855  0.00  0.00    +0.001 C 
ATOM      9  C   UNL     1      34.488 -19.072 -21.241  0.00  0.00    +0.000 C 
ENDBRANCH   1   4
BRANCH   1  10
ATOM     10  N   UNL     1      32.485 -22.520 -17.969  0.00  0.00    -0.179 NA
ATOM     11  H   UNL     1      31.799 -22.756 -18.686  0.00  0.00    +0.149 HD
BRANCH  10  12
ATOM     12  C   UNL     1      32.089 -23.234 -16.761  0.00  0.00    +0.091 C 
BRANCH  12  13
ATOM     13  C   UNL     1      30.634 -22.925 -16.415  0.00  0.00    +0.019 C 
BRANCH  13  14
ATOM     14  C   UNL     1      30.400 -22.983 -14.905  0.00  0.00    +0.001 C 
ATOM     15  C   UNL     1      31.710 -22.910 -14.135  0.00  0.00    +0.000 C 
ENDBRANCH  13  14
ENDBRANCH  12  13
ENDBRANCH  10  12
ENDBRANCH   1  10
TORSDOF 5
ENDMDL
MODEL 2
REMARK VINA RESULT:      -7.4      4.127      6.640
REMARK  Name = 19241
REMARK  5 active torsions:
REMARK  status: ('A' for Active; 'I' for Inactive)
REMARK    1  A    between atoms: S_1  and  C_4
REMARK    2  A    between atoms: S_1  and  N_10
REMARK    3  A    between atoms: N_10  and  C_12
REMARK    4  A    between atoms: C_12  and  C_13
REMARK    5  A    between atoms: C_13  and  C_14
REMARK                            x       y       z     vdW  Elec       q    Type
REMARK                         _______ _______ _______ _____ _____    ______ ____
ROOT
ATOM      1  S   UNL     1      35.799 -18.760 -21.620  0.00  0.00    +0.060 S 
ATOM      2  O   UNL     1      37.238 -18.886 -21.500  0.00  0.00    -0.153 OA
ATOM      3  O   UNL     1      35.169 -18.802 -22.926  0.00  0.00    -0.153 OA
ENDROOT
BRANCH   1   4
ATOM      4  C   UNL     1      35.056 -20.036 -20.649  0.00  0.00    +0.122 C 
ATOM      5  C   UNL     1      33.676 -20.104 -20.564  0.00  0.00    +0.020 C 
ATOM      6  C   UNL     1      35.868 -20.942 -19.990  0.00  0.00    +0.020 C 
ATOM      7  C   UNL     1      33.090 -21.111 -19.796  0.00  0.00    +0.001 C 
ATOM      8  C   UNL     1      35.282 -21.949 -19.222  0.00  0.00    +0.001 C 
ATOM      9  C   UNL     1      33.893 -22.033 -19.125  0.00  0.00    +0.000 C 
ENDBRANCH   1   4
BRANCH   1  10
ATOM     10  N   UNL     1      35.290 -17.355 -20.787  0.00  0.00    -0.179 NA
ATOM     11  H   UNL     1      36.118 -16.967 -20.336  0.00  0.00    +0.149 HD
BRANCH  10  12
ATOM     12  C   UNL     1      34.653 -16.257 -21.505  0.00  0.00    +0.091 C 
BRANCH  12  13
ATOM     13  C   UNL     1      34.339 -15.108 -20.548  0.00  0.00    +0.019 C 
BRANCH  13  14
ATOM     14  C   UNL     1      32.842 -14.799 -20.528  0.00  0.00    +0.001 C 
ATOM     15  C   UNL     1      32.427 -13.971 -21.734  0.00  0.00    +0.000 C 
ENDBRANCH  13  14
ENDBRANCH  12  13
ENDBRANCH  10  12
ENDBRANCH   1  10
TORSDOF 5
ENDMDL
MODEL 3
REMARK VINA RESULT:      -7.3      2.540      3.402
REMARK  Name = 19241
REMARK  5 active torsions:
REMARK  status: ('A' for Active; 'I' for Inactive)
REMARK    1  A    between atoms: S_1  and  C_4
REMARK    2  A    between atoms: S_1  and  N_10
REMARK    3  A    between atoms: N_10  and  C_12
REMARK    4  A    between atoms: C_12  and  C_13
REMARK    5  A    between atoms: C_13  and  C_14
REMARK                            x       y       z     vdW  Elec       q    Type
REMARK                         _______ _______ _______ _____ _____    ______ ____
ROOT
ATOM      1  S   UNL     1      33.729 -22.765 -18.716  0.00  0.00    +0.060 S 
ATOM      2  O   UNL     1      32.418 -22.486 -18.163  0.00  0.00    -0.153 OA
ATOM      3  O   UNL     1      33.936 -23.930 -19.553  0.00  0.00    -0.153 OA
ENDROOT
BRANCH   1   4
ATOM      4  C   UNL     1      34.234 -21.357 -19.658  0.00  0.00    +0.122 C 
ATOM      5  C   UNL     1      33.268 -20.540 -20.221  0.00  0.00    +0.020 C 
ATOM      6  C   UNL     1      35.584 -21.099 -19.816  0.00  0.00    +0.020 C 
ATOM      7  C   UNL     1      33.667 -19.429 -20.966  0.00  0.00    +0.001 C 
ATOM      8  C   UNL     1      35.982 -19.988 -20.561  0.00  0.00    +0.001 C 
ATOM      9  C   UNL     1      35.024 -19.153 -21.136  0.00  0.00    +0.000 C 
ENDBRANCH   1   4
BRANCH   1  10
ATOM     10  N   UNL     1      34.880 -22.760 -17.449  0.00  0.00    -0.179 NA
ATOM     11  H   UNL     1      35.245 -21.810 -17.390  0.00  0.00    +0.149 HD
BRANCH  10  12
ATOM     12  C   UNL     1      34.495 -23.144 -16.096  0.00  0.00    +0.091 C 
BRANCH  12  13
ATOM     13  C   UNL     1      35.642 -22.880 -15.122  0.00  0.00    +0.019 C 
BRANCH  13  14
ATOM     14  C   UNL     1      36.918 -22.486 -15.866  0.00  0.00    +0.001 C 
ATOM     15  C   UNL     1      38.063 -23.436 -15.550  0.00  0.00    +0.000 C 
ENDBRANCH  13  14
ENDBRANCH  12  13
ENDBRANCH  10  12
ENDBRANCH   1  10
TORSDOF 5
ENDMDL
MODEL 4
REMARK VINA RESULT:      -7.1      4.300      7.173
REMARK  Name = 19241
REMARK  5 active torsions:
REMARK  status: ('A' for Active; 'I' for Inactive)
REMARK    1  A    between atoms: S_1  and  C_4
REMARK    2  A    between atoms: S_1  and  N_10
REMARK    3  A    between atoms: N_10  and  C_12
REMARK    4  A    between atoms: C_12  and  C_13
REMARK    5  A    between atoms: C_13  and  C_14
REMARK                            x       y       z     vdW  Elec       q    Type
REMARK                         _______ _______ _______ _____ _____    ______ ____
ROOT
ATOM      1  S   UNL     1      35.584 -18.390 -21.476  0.00  0.00    +0.060 S 
ATOM      2  O   UNL     1      35.260 -17.237 -20.659  0.00  0.00    -0.153 OA
ATOM      3  O   UNL     1      36.957 -18.649 -21.862  0.00  0.00    -0.153 OA
ENDROOT
BRANCH   1   4
ATOM      4  C   UNL     1      35.004 -19.833 -20.635  0.00  0.00    +0.122 C 
ATOM      5  C   UNL     1      33.641 -20.047 -20.521  0.00  0.00    +0.020 C 
ATOM      6  C   UNL     1      35.923 -20.721 -20.104  0.00  0.00    +0.020 C 
ATOM      7  C   UNL     1      33.184 -21.185 -19.856  0.00  0.00    +0.001 C 
ATOM      8  C   UNL     1      35.466 -21.859 -19.440  0.00  0.00    +0.001 C 
ATOM      9  C   UNL     1      34.096 -22.091 -19.315  0.00  0.00    +0.000 C 
ENDBRANCH   1   4
BRANCH   1  10
ATOM     10  N   UNL     1      34.590 -18.383 -22.869  0.00  0.00    -0.179 NA
ATOM     11  H   UNL     1      33.786 -17.795 -22.651  0.00  0.00    +0.149 HD
BRANCH  10  12
ATOM     12  C   UNL     1      35.113 -17.920 -24.149  0.00  0.00    +0.091 C 
BRANCH  12  13
ATOM     13  C   UNL     1      34.382 -16.655 -24.595  0.00  0.00    +0.019 C 
BRANCH  13  14
ATOM     14  C   UNL     1      34.657 -15.493 -23.640  0.00  0.00    +0.001 C 
ATOM     15  C   UNL     1      33.369 -14.934 -23.056  0.00  0.00    +0.000 C 
ENDBRANCH  13  14
ENDBRANCH  12  13
ENDBRANCH  10  12
ENDBRANCH   1  10
TORSDOF 5
ENDMDL
MODEL 5
REMARK VINA RESULT:      -7.1      1.510      2.254
REMARK  Name = 19241
REMARK  5 active torsions:
REMARK  status: ('A' for Active; 'I' for Inactive)
REMARK    1  A    between atoms: S_1  and  C_4
REMARK    2  A    between atoms: S_1  and  N_10
REMARK    3  A    between atoms: N_10  and  C_12
REMARK    4  A    between atoms: C_12  and  C_13
REMARK    5  A    between atoms: C_13  and  C_14
REMARK                            x       y       z     vdW  Elec       q    Type
REMARK                         _______ _______ _______ _____ _____    ______ ____
ROOT
ATOM      1  S   UNL     1      33.677 -22.813 -18.574  0.00  0.00    +0.060 S 
ATOM      2  O   UNL     1      32.344 -22.415 -18.163  0.00  0.00    -0.153 OA
ATOM      3  O   UNL     1      33.872 -24.029 -19.339  0.00  0.00    -0.153 OA
ENDROOT
BRANCH   1   4
ATOM      4  C   UNL     1      34.373 -21.491 -19.519  0.00  0.00    +0.122 C 
ATOM      5  C   UNL     1      33.529 -20.618 -20.183  0.00  0.00    +0.020 C 
ATOM      6  C   UNL     1      35.749 -21.355 -19.579  0.00  0.00    +0.020 C 
ATOM      7  C   UNL     1      34.079 -19.576 -20.930  0.00  0.00    +0.001 C 
ATOM      8  C   UNL     1      36.298 -20.313 -20.327  0.00  0.00    +0.001 C 
ATOM      9  C   UNL     1      35.463 -19.423 -21.002  0.00  0.00    +0.000 C 
ENDBRANCH   1   4
BRANCH   1  10
ATOM     10  N   UNL     1      34.701 -22.830 -17.203  0.00  0.00    -0.179 NA
ATOM     11  H   UNL     1      34.621 -21.913 -16.766  0.00  0.00    +0.149 HD
BRANCH  10  12
ATOM     12  C   UNL     1      34.507 -23.815 -16.145  0.00  0.00    +0.091 C 
BRANCH  12  13
ATOM     13  C   UNL     1      33.795 -23.179 -14.952  0.00  0.00    +0.019 C 
BRANCH  13  14
ATOM     14  C   UNL     1      32.336 -23.628 -14.876  0.00  0.00    +0.001 C 
ATOM     15  C   UNL     1      32.156 -24.779 -13.897  0.00  0.00    +0.000 C 
ENDBRANCH  13  14
ENDBRANCH  12  13
ENDBRANCH  10  12
ENDBRANCH   1  10
TORSDOF 5
ENDMDL
MODEL 6
REMARK VINA RESULT:      -7.0      3.976      5.463
REMARK  Name = 19241
REMARK  5 active torsions:
REMARK  status: ('A' for Active; 'I' for Inactive)
REMARK    1  A    between atoms: S_1  and  C_4
REMARK    2  A    between atoms: S_1  and  N_10
REMARK    3  A    between atoms: N_10  and  C_12
REMARK    4  A    between atoms: C_12  and  C_13
REMARK    5  A    between atoms: C_13  and  C_14
REMARK                            x       y       z     vdW  Elec       q    Type
REMARK                         _______ _______ _______ _____ _____    ______ ____
ROOT
ATOM      1  S   UNL     1      35.726 -18.308 -21.535  0.00  0.00    +0.060 S 
ATOM      2  O   UNL     1      37.106 -18.681 -21.779  0.00  0.00    -0.153 OA
ATOM      3  O   UNL     1      35.392 -17.424 -20.436  0.00  0.00    -0.153 OA
ENDROOT
BRANCH   1   4
ATOM      4  C   UNL     1      35.094 -17.562 -23.008  0.00  0.00    +0.122 C 
ATOM      5  C   UNL     1      34.747 -16.222 -22.991  0.00  0.00    +0.020 C 
ATOM      6  C   UNL     1      34.958 -18.331 -24.150  0.00  0.00    +0.020 C 
ATOM      7  C   UNL     1      34.248 -15.634 -24.153  0.00  0.00    +0.001 C 
ATOM      8  C   UNL     1      34.458 -17.743 -25.312  0.00  0.00    +0.001 C 
ATOM      9  C   UNL     1      34.103 -16.394 -25.313  0.00  0.00    +0.000 C 
ENDBRANCH   1   4
BRANCH   1  10
ATOM     10  N   UNL     1      34.775 -19.727 -21.435  0.00  0.00    -0.179 NA
ATOM     11  H   UNL     1      35.219 -20.328 -20.740  0.00  0.00    +0.149 HD
BRANCH  10  12
ATOM     12  C   UNL     1      33.363 -19.650 -21.078  0.00  0.00    +0.091 C 
BRANCH  12  13
ATOM     13  C   UNL     1      33.046 -20.627 -19.948  0.00  0.00    +0.019 C 
BRANCH  13  14
ATOM     14  C   UNL     1      34.284 -21.431 -19.549  0.00  0.00    +0.001 C 
ATOM     15  C   UNL     1      33.911 -22.669 -18.748  0.00  0.00    +0.000 C 
ENDBRANCH  13  14
ENDBRANCH  12  13
ENDBRANCH  10  12
ENDBRANCH   1  10
TORSDOF 5
ENDMDL
MODEL 7
REMARK VINA RESULT:      -6.9      1.819      5.716
REMARK  Name = 19241
REMARK  5 active torsions:
REMARK  status: ('A' for Active; 'I' for Inactive)
REMARK    1  A    between atoms: S_1  and  C_4
REMARK    2  A    between atoms: S_1  and  N_10
REMARK    3  A    between atoms: N_10  and  C_12
REMARK    4  A    between atoms: C_12  and  C_13
REMARK    5  A    between atoms: C_13  and  C_14
REMARK                            x       y       z     vdW  Elec       q    Type
REMARK                         _______ _______ _______ _____ _____    ______ ____
ROOT
ATOM      1  S   UNL     1      34.698 -23.366 -15.997  0.00  0.00    +0.060 S 
ATOM      2  O   UNL     1      35.387 -22.313 -15.276  0.00  0.00    -0.153 OA
ATOM      3  O   UNL     1      35.116 -24.746 -15.848  0.00  0.00    -0.153 OA
ENDROOT
BRANCH   1   4
ATOM      4  C   UNL     1      32.986 -23.295 -15.562  0.00  0.00    +0.122 C 
ATOM      5  C   UNL     1      32.622 -23.412 -14.231  0.00  0.00    +0.020 C 
ATOM      6  C   UNL     1      32.042 -23.126 -16.560  0.00  0.00    +0.020 C 
ATOM      7  C   UNL     1      31.271 -23.357 -13.889  0.00  0.00    +0.001 C 
ATOM      8  C   UNL     1      30.691 -23.071 -16.216  0.00  0.00    +0.001 C 
ATOM      9  C   UNL     1      30.306 -23.187 -14.881  0.00  0.00    +0.000 C 
ENDBRANCH   1   4
BRANCH   1  10
ATOM     10  N   UNL     1      34.647 -22.962 -17.659  0.00  0.00    -0.179 NA
ATOM     11  H   UNL     1      33.712 -22.600 -17.843  0.00  0.00    +0.149 HD
BRANCH  10  12
ATOM     12  C   UNL     1      35.586 -21.996 -18.217  0.00  0.00    +0.091 C 
BRANCH  12  13
ATOM     13  C   UNL     1      35.062 -21.451 -19.544  0.00  0.00    +0.019 C 
BRANCH  13  14
ATOM     14  C   UNL     1      33.534 -21.429 -19.567  0.00  0.00    +0.001 C 
ATOM     15  C   UNL     1      33.004 -20.253 -20.373  0.00  0.00    +0.000 C 
ENDBRANCH  13  14
ENDBRANCH  12  13
ENDBRANCH  10  12
ENDBRANCH   1  10
TORSDOF 5
ENDMDL
MODEL 8
REMARK VINA RESULT:      -6.8      4.305      5.708
REMARK  Name = 19241
REMARK  5 active torsions:
REMARK  status: ('A' for Active; 'I' for Inactive)
REMARK    1  A    between atoms: S_1  and  C_4
REMARK    2  A    between atoms: S_1  and  N_10
REMARK    3  A    between atoms: N_10  and  C_12
REMARK    4  A    between atoms: C_12  and  C_13
REMARK    5  A    between atoms: C_13  and  C_14
REMARK                            x       y       z     vdW  Elec       q    Type
REMARK                         _______ _______ _______ _____ _____    ______ ____
ROOT
ATOM      1  S   UNL     1      35.441 -18.336 -22.748  0.00  0.00    +0.060 S 
ATOM      2  O   UNL     1      35.335 -18.503 -24.185  0.00  0.00    -0.153 OA
ATOM      3  O   UNL     1      36.712 -18.545 -22.081  0.00  0.00    -0.153 OA
ENDROOT
BRANCH   1   4
ATOM      4  C   UNL     1      34.913 -16.697 -22.349  0.00  0.00    +0.122 C 
ATOM      5  C   UNL     1      34.692 -15.790 -23.372  0.00  0.00    +0.020 C 
ATOM      6  C   UNL     1      34.732 -16.350 -21.021  0.00  0.00    +0.020 C 
ATOM      7  C   UNL     1      34.276 -14.497 -23.056  0.00  0.00    +0.001 C 
ATOM      8  C   UNL     1      34.316 -15.056 -20.706  0.00  0.00    +0.001 C 
ATOM      9  C   UNL     1      34.089 -14.130 -21.724  0.00  0.00    +0.000 C 
ENDBRANCH   1   4
BRANCH   1  10
ATOM     10  N   UNL     1      34.235 -19.280 -21.986  0.00  0.00    -0.179 NA
ATOM     11  H   UNL     1      33.993 -20.026 -22.638  0.00  0.00    +0.149 HD
BRANCH  10  12
ATOM     12  C   UNL     1      34.495 -19.918 -20.700  0.00  0.00    +0.091 C 
BRANCH  12  13
ATOM     13  C   UNL     1      33.216 -20.550 -20.153  0.00  0.00    +0.019 C 
BRANCH  13  14
ATOM     14  C   UNL     1      33.530 -21.765 -19.281  0.00  0.00    +0.001 C 
ATOM     15  C   UNL     1      35.029 -21.954 -19.106  0.00  0.00    +0.000 C 
ENDBRANCH  13  14
ENDBRANCH  12  13
ENDBRANCH  10  12
ENDBRANCH   1  10
TORSDOF 5
ENDMDL
MODEL 9
REMARK VINA RESULT:      -6.8      2.521      5.458
REMARK  Name = 19241
REMARK  5 active torsions:
REMARK  status: ('A' for Active; 'I' for Inactive)
REMARK    1  A    between atoms: S_1  and  C_4
REMARK    2  A    between atoms: S_1  and  N_10
REMARK    3  A    between atoms: N_10  and  C_12
REMARK    4  A    between atoms: C_12  and  C_13
REMARK    5  A    between atoms: C_13  and  C_14
REMARK                            x       y       z     vdW  Elec       q    Type
REMARK                         _______ _______ _______ _____ _____    ______ ____
ROOT
ATOM      1  S   UNL     1      33.751 -22.605 -18.880  0.00  0.00    +0.060 S 
ATOM      2  O   UNL     1      33.986 -23.807 -19.656  0.00  0.00    -0.153 OA
ATOM      3  O   UNL     1      32.468 -22.388 -18.240  0.00  0.00    -0.153 OA
ENDROOT
BRANCH   1   4
ATOM      4  C   UNL     1      34.980 -22.527 -17.610  0.00  0.00    +0.122 C 
ATOM      5  C   UNL     1      34.706 -23.081 -16.371  0.00  0.00    +0.020 C 
ATOM      6  C   UNL     1      36.190 -21.913 -17.878  0.00  0.00    +0.020 C 
ATOM      7  C   UNL     1      35.675 -23.018 -15.370  0.00  0.00    +0.001 C 
ATOM      8  C   UNL     1      37.158 -21.850 -16.876  0.00  0.00    +0.001 C 
ATOM      9  C   UNL     1      36.901 -22.403 -15.622  0.00  0.00    +0.000 C 
ENDBRANCH   1   4
BRANCH   1  10
ATOM     10  N   UNL     1      34.153 -21.240 -19.830  0.00  0.00    -0.179 NA
ATOM     11  H   UNL     1      34.667 -21.588 -20.639  0.00  0.00    +0.149 HD
BRANCH  10  12
ATOM     12  C   UNL     1      33.109 -20.362 -20.345  0.00  0.00    +0.091 C 
BRANCH  12  13
ATOM     13  C   UNL     1      33.729 -19.144 -21.029  0.00  0.00    +0.019 C 
BRANCH  13  14
ATOM     14  C   UNL     1      35.014 -19.520 -21.765  0.00  0.00    +0.001 C 
ATOM     15  C   UNL     1      36.216 -18.776 -21.204  0.00  0.00    +0.000 C 
ENDBRANCH  13  14
ENDBRANCH  12  13
ENDBRANCH  10  12
ENDBRANCH   1  10
TORSDOF 5
ENDMDL
