MODEL 1
REMARK VINA RESULT:      -8.7      0.000      0.000
REMARK  Name = 4992
REMARK  6 active torsions:
REMARK  status: ('A' for Active; 'I' for Inactive)
REMARK    1  A    between atoms: N_1  and  C_8
REMARK    2  A    between atoms: N_1  and  C_14
REMARK    3  A    between atoms: C_8  and  C_9
REMARK    4  A    between atoms: C_9  and  N_10
REMARK    5  A    between atoms: C_14  and  C_15
REMARK    6  A    between atoms: C_20  and  O_21
REMARK                            x       y       z     vdW  Elec       q    Type
REMARK                         _______ _______ _______ _____ _____    ______ ____
ROOT
ATOM      1  N   UNL     1      33.522 -23.149 -16.640  0.00  0.00    -0.291 N 
ATOM      2  N   UNL     1      31.185 -22.788 -16.931  0.00  0.00    -0.229 NA
ATOM      3  C   UNL     1      32.232 -23.096 -16.114  0.00  0.00    +0.132 C 
ATOM      4  C   UNL     1      32.066 -23.363 -14.754  0.00  0.00    +0.034 C 
ATOM      5  C   UNL     1      30.786 -23.313 -14.214  0.00  0.00    +0.004 C 
ATOM      6  C   UNL     1      29.955 -22.749 -16.370  0.00  0.00    +0.100 C 
ATOM      7  C   UNL     1      29.704 -23.002 -15.031  0.00  0.00    +0.021 C 
ENDROOT
BRANCH   1   8
ATOM      8  C   UNL     1      34.680 -22.814 -15.819  0.00  0.00    +0.070 C 
BRANCH   8   9
ATOM      9  C   UNL     1      35.472 -24.076 -15.488  0.00  0.00    -0.056 C 
BRANCH   9  10
ATOM     10  N   UNL     1      36.898 -23.851 -15.721  0.00  0.00    +0.385 N 
ATOM     11  C   UNL     1      37.694 -24.471 -14.663  0.00  0.00    -0.101 C 
ATOM     12  C   UNL     1      37.183 -22.419 -15.803  0.00  0.00    -0.101 C 
ATOM     13  H   UNL     1      37.152 -24.281 -16.611  0.00  0.00    -0.080 HD
ENDBRANCH   9  10
ENDBRANCH   8   9
ENDBRANCH   1   8
BRANCH   1  14
ATOM     14  C   UNL     1      33.751 -23.528 -18.028  0.00  0.00    +0.119 C 
BRANCH  14  15
ATOM     15  C   UNL     1      34.139 -22.345 -18.876  0.00  0.00    -0.002 C 
ATOM     16  C   UNL     1      33.147 -21.563 -19.450  0.00  0.00    +0.000 C 
ATOM     17  C   UNL     1      35.481 -22.056 -19.073  0.00  0.00    +0.000 C 
ATOM     18  C   UNL     1      33.505 -20.468 -20.237  0.00  0.00    +0.037 C 
ATOM     19  C   UNL     1      35.840 -20.962 -19.859  0.00  0.00    +0.037 C 
ATOM     20  C   UNL     1      34.852 -20.167 -20.441  0.00  0.00    +0.139 C 
BRANCH  20  21
ATOM     21  O   UNL     1      35.201 -19.098 -21.209  0.00  0.00    -0.471 OA
ATOM     22  C   UNL     1      34.671 -19.022 -22.517  0.00  0.00    +0.252 C 
ENDBRANCH  20  21
ENDBRANCH  14  15
ENDBRANCH   1  14
TORSDOF 6
ENDMDL
MODEL 2
REMARK VINA RESULT:      -8.1     13.074     15.744
REMARK  Name = 4992
REMARK  6 active torsions:
REMARK  status: ('A' for Active; 'I' for Inactive)
REMARK    1  A    between atoms: N_1  and  C_8
REMARK    2  A    between atoms: N_1  and  C_14
REMARK    3  A    between atoms: C_8  and  C_9
REMARK    4  A    between atoms: C_9  and  N_10
REMARK    5  A    between atoms: C_14  and  C_15
REMARK    6  A    between atoms: C_20  and  O_21
REMARK                            x       y       z     vdW  Elec       q    Type
REMARK                         _______ _______ _______ _____ _____    ______ ____
ROOT
ATOM      1  N   UNL     1      33.000  -8.965 -22.548  0.00  0.00    -0.291 N 
ATOM      2  N   UNL     1      32.546  -9.234 -20.224  0.00  0.00    -0.229 NA
ATOM      3  C   UNL     1      32.266  -9.555 -21.520  0.00  0.00    +0.132 C 
ATOM      4  C   UNL     1      31.262 -10.462 -21.865  0.00  0.00    +0.034 C 
ATOM      5  C   UNL     1      30.522 -11.058 -20.851  0.00  0.00    +0.004 C 
ATOM      6  C   UNL     1      31.805  -9.834 -19.266  0.00  0.00    +0.100 C 
ATOM      7  C   UNL     1      30.791 -10.744 -19.524  0.00  0.00    +0.021 C 
ENDROOT
BRANCH   1   8
ATOM      8  C   UNL     1      33.241  -9.676 -23.799  0.00  0.00    +0.070 C 
BRANCH   8   9
ATOM      9  C   UNL     1      34.705  -9.538 -24.209  0.00  0.00    -0.056 C 
BRANCH   9  10
ATOM     10  N   UNL     1      35.136 -10.727 -24.943  0.00  0.00    +0.385 N 
ATOM     11  C   UNL     1      35.672 -10.354 -26.251  0.00  0.00    -0.101 C 
ATOM     12  C   UNL     1      34.025 -11.665 -25.095  0.00  0.00    -0.101 C 
ATOM     13  H   UNL     1      35.875 -11.186 -24.410  0.00  0.00    -0.080 HD
ENDBRANCH   9  10
ENDBRANCH   8   9
ENDBRANCH   1   8
BRANCH   1  14
ATOM     14  C   UNL     1      33.560  -7.629 -22.400  0.00  0.00    +0.119 C 
BRANCH  14  15
ATOM     15  C   UNL     1      32.676  -6.578 -23.018  0.00  0.00    -0.002 C 
ATOM     16  C   UNL     1      32.838  -6.252 -24.357  0.00  0.00    +0.000 C 
ATOM     17  C   UNL     1      31.715  -5.950 -22.240  0.00  0.00    +0.000 C 
ATOM     18  C   UNL     1      32.021  -5.278 -24.930  0.00  0.00    +0.037 C 
ATOM     19  C   UNL     1      30.897  -4.976 -22.813  0.00  0.00    +0.037 C 
ATOM     20  C   UNL     1      31.050  -4.640 -24.158  0.00  0.00    +0.139 C 
BRANCH  20  21
ATOM     21  O   UNL     1      30.253  -3.689 -24.718  0.00  0.00    -0.471 OA
ATOM     22  C   UNL     1      30.877  -2.613 -25.389  0.00  0.00    +0.252 C 
ENDBRANCH  20  21
ENDBRANCH  14  15
ENDBRANCH   1  14
TORSDOF 6
ENDMDL
MODEL 3
REMARK VINA RESULT:      -7.7      1.201      4.233
REMARK  Name = 4992
REMARK  6 active torsions:
REMARK  status: ('A' for Active; 'I' for Inactive)
REMARK    1  A    between atoms: N_1  and  C_8
REMARK    2  A    between atoms: N_1  and  C_14
REMARK    3  A    between atoms: C_8  and  C_9
REMARK    4  A    between atoms: C_9  and  N_10
REMARK    5  A    between atoms: C_14  and  C_15
REMARK    6  A    between atoms: C_20  and  O_21
REMARK                            x       y       z     vdW  Elec       q    Type
REMARK                         _______ _______ _______ _____ _____    ______ ____
ROOT
ATOM      1  N   UNL     1      33.612 -23.437 -16.155  0.00  0.00    -0.291 N 
ATOM      2  N   UNL     1      35.465 -24.898 -15.826  0.00  0.00    -0.229 NA
ATOM      3  C   UNL     1      34.753 -23.801 -15.442  0.00  0.00    +0.132 C 
ATOM      4  C   UNL     1      35.123 -23.015 -14.348  0.00  0.00    +0.034 C 
ATOM      5  C   UNL     1      36.258 -23.366 -13.626  0.00  0.00    +0.004 C 
ATOM      6  C   UNL     1      36.563 -25.208 -15.100  0.00  0.00    +0.100 C 
ATOM      7  C   UNL     1      36.998 -24.481 -14.003  0.00  0.00    +0.021 C 
ENDROOT
BRANCH   1   8
ATOM      8  C   UNL     1      32.496 -22.770 -15.494  0.00  0.00    +0.070 C 
BRANCH   8   9
ATOM      9  C   UNL     1      31.173 -23.358 -15.974  0.00  0.00    -0.056 C 
BRANCH   9  10
ATOM     10  N   UNL     1      30.402 -23.860 -14.837  0.00  0.00    +0.385 N 
ATOM     11  C   UNL     1      31.074 -23.533 -13.580  0.00  0.00    -0.101 C 
ATOM     12  C   UNL     1      30.206 -25.305 -14.951  0.00  0.00    -0.101 C 
ATOM     13  H   UNL     1      29.487 -23.409 -14.842  0.00  0.00    -0.080 HD
ENDBRANCH   9  10
ENDBRANCH   8   9
ENDBRANCH   1   8
BRANCH   1  14
ATOM     14  C   UNL     1      33.494 -23.724 -17.578  0.00  0.00    +0.119 C 
BRANCH  14  15
ATOM     15  C   UNL     1      34.000 -22.586 -18.425  0.00  0.00    -0.002 C 
ATOM     16  C   UNL     1      35.360 -22.314 -18.460  0.00  0.00    +0.000 C 
ATOM     17  C   UNL     1      33.099 -21.824 -19.154  0.00  0.00    +0.000 C 
ATOM     18  C   UNL     1      35.829 -21.260 -19.243  0.00  0.00    +0.037 C 
ATOM     19  C   UNL     1      33.567 -20.768 -19.937  0.00  0.00    +0.037 C 
ATOM     20  C   UNL     1      34.933 -20.486 -19.982  0.00  0.00    +0.139 C 
BRANCH  20  21
ATOM     21  O   UNL     1      35.392 -19.457 -20.745  0.00  0.00    -0.471 OA
ATOM     22  C   UNL     1      34.529 -18.928 -21.731  0.00  0.00    +0.252 C 
ENDBRANCH  20  21
ENDBRANCH  14  15
ENDBRANCH   1  14
TORSDOF 6
ENDMDL
MODEL 4
REMARK VINA RESULT:      -7.7      2.763      5.666
REMARK  Name = 4992
REMARK  6 active torsions:
REMARK  status: ('A' for Active; 'I' for Inactive)
REMARK    1  A    between atoms: N_1  and  C_8
REMARK    2  A    between atoms: N_1  and  C_14
REMARK    3  A    between atoms: C_8  and  C_9
REMARK    4  A    between atoms: C_9  and  N_10
REMARK    5  A    between atoms: C_14  and  C_15
REMARK    6  A    between atoms: C_20  and  O_21
REMARK                            x       y       z     vdW  Elec       q    Type
REMARK                         _______ _______ _______ _____ _____    ______ ____
ROOT
ATOM      1  N   UNL     1      33.953 -23.166 -15.991  0.00  0.00    -0.291 N 
ATOM      2  N   UNL     1      32.391 -23.736 -14.284  0.00  0.00    -0.229 NA
ATOM      3  C   UNL     1      32.637 -23.338 -15.565  0.00  0.00    +0.132 C 
ATOM      4  C   UNL     1      31.612 -23.094 -16.481  0.00  0.00    +0.034 C 
ATOM      5  C   UNL     1      30.294 -23.263 -16.072  0.00  0.00    +0.004 C 
ATOM      6  C   UNL     1      31.098 -23.889 -13.922  0.00  0.00    +0.100 C 
ATOM      7  C   UNL     1      30.023 -23.667 -14.769  0.00  0.00    +0.021 C 
ENDROOT
BRANCH   1   8
ATOM      8  C   UNL     1      34.327 -23.398 -17.382  0.00  0.00    +0.070 C 
BRANCH   8   9
ATOM      9  C   UNL     1      35.139 -22.221 -17.911  0.00  0.00    -0.056 C 
BRANCH   9  10
ATOM     10  N   UNL     1      34.885 -22.035 -19.340  0.00  0.00    +0.385 N 
ATOM     11  C   UNL     1      35.924 -21.200 -19.940  0.00  0.00    -0.101 C 
ATOM     12  C   UNL     1      33.566 -21.440 -19.551  0.00  0.00    -0.101 C 
ATOM     13  H   UNL     1      34.903 -22.949 -19.792  0.00  0.00    -0.080 HD
ENDBRANCH   9  10
ENDBRANCH   8   9
ENDBRANCH   1   8
BRANCH   1  14
ATOM     14  C   UNL     1      34.997 -22.762 -15.059  0.00  0.00    +0.119 C 
BRANCH  14  15
ATOM     15  C   UNL     1      36.093 -23.790 -14.963  0.00  0.00    -0.002 C 
ATOM     16  C   UNL     1      35.768 -25.111 -14.696  0.00  0.00    +0.000 C 
ATOM     17  C   UNL     1      37.413 -23.399 -15.143  0.00  0.00    +0.000 C 
ATOM     18  C   UNL     1      36.783 -26.064 -14.606  0.00  0.00    +0.037 C 
ATOM     19  C   UNL     1      38.428 -24.351 -15.053  0.00  0.00    +0.037 C 
ATOM     20  C   UNL     1      38.114 -25.683 -14.785  0.00  0.00    +0.139 C 
BRANCH  20  21
ATOM     21  O   UNL     1      39.104 -26.613 -14.698  0.00  0.00    -0.471 OA
ATOM     22  C   UNL     1      40.433 -26.155 -14.549  0.00  0.00    +0.252 C 
ENDBRANCH  20  21
ENDBRANCH  14  15
ENDBRANCH   1  14
TORSDOF 6
ENDMDL
MODEL 5
REMARK VINA RESULT:      -7.6      4.145      7.805
REMARK  Name = 4992
REMARK  6 active torsions:
REMARK  status: ('A' for Active; 'I' for Inactive)
REMARK    1  A    between atoms: N_1  and  C_8
REMARK    2  A    between atoms: N_1  and  C_14
REMARK    3  A    between atoms: C_8  and  C_9
REMARK    4  A    between atoms: C_9  and  N_10
REMARK    5  A    between atoms: C_14  and  C_15
REMARK    6  A    between atoms: C_20  and  O_21
REMARK                            x       y       z     vdW  Elec       q    Type
REMARK                         _______ _______ _______ _____ _____    ______ ____
ROOT
ATOM      1  N   UNL     1      34.502 -18.367 -21.690  0.00  0.00    -0.291 N 
ATOM      2  N   UNL     1      32.622 -17.015 -21.127  0.00  0.00    -0.229 NA
ATOM      3  C   UNL     1      33.974 -17.160 -21.235  0.00  0.00    +0.132 C 
ATOM      4  C   UNL     1      34.864 -16.135 -20.907  0.00  0.00    +0.034 C 
ATOM      5  C   UNL     1      34.352 -14.925 -20.452  0.00  0.00    +0.004 C 
ATOM      6  C   UNL     1      32.162 -15.824 -20.682  0.00  0.00    +0.100 C 
ATOM      7  C   UNL     1      32.977 -14.758 -20.335  0.00  0.00    +0.021 C 
ENDROOT
BRANCH   1   8
ATOM      8  C   UNL     1      35.757 -18.403 -22.434  0.00  0.00    +0.070 C 
BRANCH   8   9
ATOM      9  C   UNL     1      35.500 -18.823 -23.878  0.00  0.00    -0.056 C 
BRANCH   9  10
ATOM     10  N   UNL     1      34.402 -18.040 -24.443  0.00  0.00    +0.385 N 
ATOM     11  C   UNL     1      33.688 -18.815 -25.455  0.00  0.00    -0.101 C 
ATOM     12  C   UNL     1      34.907 -16.792 -25.016  0.00  0.00    -0.101 C 
ATOM     13  H   UNL     1      33.750 -17.809 -23.692  0.00  0.00    -0.080 HD
ENDBRANCH   9  10
ENDBRANCH   8   9
ENDBRANCH   1   8
BRANCH   1  14
ATOM     14  C   UNL     1      33.812 -19.627 -21.448  0.00  0.00    +0.119 C 
BRANCH  14  15
ATOM     15  C   UNL     1      34.490 -20.443 -20.380  0.00  0.00    -0.002 C 
ATOM     16  C   UNL     1      35.863 -20.340 -20.211  0.00  0.00    +0.000 C 
ATOM     17  C   UNL     1      33.732 -21.287 -19.581  0.00  0.00    +0.000 C 
ATOM     18  C   UNL     1      36.492 -21.097 -19.223  0.00  0.00    +0.037 C 
ATOM     19  C   UNL     1      34.361 -22.044 -18.592  0.00  0.00    +0.037 C 
ATOM     20  C   UNL     1      35.741 -21.949 -18.413  0.00  0.00    +0.139 C 
BRANCH  20  21
ATOM     21  O   UNL     1      36.356 -22.687 -17.448  0.00  0.00    -0.471 OA
ATOM     22  C   UNL     1      37.012 -21.996 -16.404  0.00  0.00    +0.252 C 
ENDBRANCH  20  21
ENDBRANCH  14  15
ENDBRANCH   1  14
TORSDOF 6
ENDMDL
MODEL 6
REMARK VINA RESULT:      -7.5      3.288      6.429
REMARK  Name = 4992
REMARK  6 active torsions:
REMARK  status: ('A' for Active; 'I' for Inactive)
REMARK    1  A    between atoms: N_1  and  C_8
REMARK    2  A    between atoms: N_1  and  C_14
REMARK    3  A    between atoms: C_8  and  C_9
REMARK    4  A    between atoms: C_9  and  N_10
REMARK    5  A    between atoms: C_14  and  C_15
REMARK    6  A    between atoms: C_20  and  O_21
REMARK                            x       y       z     vdW  Elec       q    Type
REMARK                         _______ _______ _______ _____ _____    ______ ____
ROOT
ATOM      1  N   UNL     1      34.690 -24.236 -14.368  0.00  0.00    -0.291 N 
ATOM      2  N   UNL     1      36.348 -24.698 -12.720  0.00  0.00    -0.229 NA
ATOM      3  C   UNL     1      35.857 -24.891 -13.978  0.00  0.00    +0.132 C 
ATOM      4  C   UNL     1      36.483 -25.726 -14.905  0.00  0.00    +0.034 C 
ATOM      5  C   UNL     1      37.648 -26.386 -14.531  0.00  0.00    +0.004 C 
ATOM      6  C   UNL     1      37.482 -25.356 -12.392  0.00  0.00    +0.100 C 
ATOM      7  C   UNL     1      38.164 -26.204 -13.252  0.00  0.00    +0.021 C 
ENDROOT
BRANCH   1   8
ATOM      8  C   UNL     1      34.476 -23.852 -15.760  0.00  0.00    +0.070 C 
BRANCH   8   9
ATOM      9  C   UNL     1      35.102 -22.488 -16.032  0.00  0.00    -0.056 C 
BRANCH   9  10
ATOM     10  N   UNL     1      36.317 -22.641 -16.830  0.00  0.00    +0.385 N 
ATOM     11  C   UNL     1      37.494 -22.269 -16.047  0.00  0.00    -0.101 C 
ATOM     12  C   UNL     1      36.236 -21.832 -18.046  0.00  0.00    -0.101 C 
ATOM     13  H   UNL     1      36.405 -23.621 -17.100  0.00  0.00    -0.080 HD
ENDBRANCH   9  10
ENDBRANCH   8   9
ENDBRANCH   1   8
BRANCH   1  14
ATOM     14  C   UNL     1      33.656 -23.902 -13.398  0.00  0.00    +0.119 C 
BRANCH  14  15
ATOM     15  C   UNL     1      32.280 -23.944 -14.007  0.00  0.00    -0.002 C 
ATOM     16  C   UNL     1      31.598 -25.150 -14.069  0.00  0.00    +0.000 C 
ATOM     17  C   UNL     1      31.715 -22.777 -14.501  0.00  0.00    +0.000 C 
ATOM     18  C   UNL     1      30.323 -25.191 -14.634  0.00  0.00    +0.037 C 
ATOM     19  C   UNL     1      30.441 -22.816 -15.066  0.00  0.00    +0.037 C 
ATOM     20  C   UNL     1      29.744 -24.023 -15.133  0.00  0.00    +0.139 C 
BRANCH  20  21
ATOM     21  O   UNL     1      28.500 -24.063 -15.684  0.00  0.00    -0.471 OA
ATOM     22  C   UNL     1      27.824 -22.838 -15.883  0.00  0.00    +0.252 C 
ENDBRANCH  20  21
ENDBRANCH  14  15
ENDBRANCH   1  14
TORSDOF 6
ENDMDL
MODEL 7
REMARK VINA RESULT:      -7.4      8.321     12.054
REMARK  Name = 4992
REMARK  6 active torsions:
REMARK  status: ('A' for Active; 'I' for Inactive)
REMARK    1  A    between atoms: N_1  and  C_8
REMARK    2  A    between atoms: N_1  and  C_14
REMARK    3  A    between atoms: C_8  and  C_9
REMARK    4  A    between atoms: C_9  and  N_10
REMARK    5  A    between atoms: C_14  and  C_15
REMARK    6  A    between atoms: C_20  and  O_21
REMARK                            x       y       z     vdW  Elec       q    Type
REMARK                         _______ _______ _______ _____ _____    ______ ____
ROOT
ATOM      1  N   UNL     1      33.106 -13.493 -22.850  0.00  0.00    -0.291 N 
ATOM      2  N   UNL     1      33.417 -14.855 -20.920  0.00  0.00    -0.229 NA
ATOM      3  C   UNL     1      33.707 -14.585 -22.224  0.00  0.00    +0.132 C 
ATOM      4  C   UNL     1      34.593 -15.364 -22.970  0.00  0.00    +0.034 C 
ATOM      5  C   UNL     1      35.201 -16.456 -22.360  0.00  0.00    +0.004 C 
ATOM      6  C   UNL     1      34.026 -15.925 -20.360  0.00  0.00    +0.100 C 
ATOM      7  C   UNL     1      34.917 -16.749 -21.030  0.00  0.00    +0.021 C 
ENDROOT
BRANCH   1   8
ATOM      8  C   UNL     1      33.794 -12.767 -23.911  0.00  0.00    +0.070 C 
BRANCH   8   9
ATOM      9  C   UNL     1      32.983 -12.829 -25.203  0.00  0.00    -0.056 C 
BRANCH   9  10
ATOM     10  N   UNL     1      33.592 -13.779 -26.133  0.00  0.00    +0.385 N 
ATOM     11  C   UNL     1      33.656 -13.208 -27.478  0.00  0.00    -0.101 C 
ATOM     12  C   UNL     1      32.840 -15.034 -26.147  0.00  0.00    -0.101 C 
ATOM     13  H   UNL     1      34.542 -13.976 -25.819  0.00  0.00    -0.080 HD
ENDBRANCH   9  10
ENDBRANCH   8   9
ENDBRANCH   1   8
BRANCH   1  14
ATOM     14  C   UNL     1      31.781 -13.037 -22.455  0.00  0.00    +0.119 C 
BRANCH  14  15
ATOM     15  C   UNL     1      31.840 -11.762 -21.657  0.00  0.00    -0.002 C 
ATOM     16  C   UNL     1      32.007 -10.552 -22.316  0.00  0.00    +0.000 C 
ATOM     17  C   UNL     1      31.730 -11.814 -20.275  0.00  0.00    +0.000 C 
ATOM     18  C   UNL     1      32.064  -9.370 -21.578  0.00  0.00    +0.037 C 
ATOM     19  C   UNL     1      31.786 -10.633 -19.536  0.00  0.00    +0.037 C 
ATOM     20  C   UNL     1      31.953  -9.411 -20.187  0.00  0.00    +0.139 C 
BRANCH  20  21
ATOM     21  O   UNL     1      32.008  -8.256 -19.467  0.00  0.00    -0.471 OA
ATOM     22  C   UNL     1      32.410  -7.078 -20.136  0.00  0.00    +0.252 C 
ENDBRANCH  20  21
ENDBRANCH  14  15
ENDBRANCH   1  14
TORSDOF 6
ENDMDL
MODEL 8
REMARK VINA RESULT:      -7.3      6.766     10.749
REMARK  Name = 4992
REMARK  6 active torsions:
REMARK  status: ('A' for Active; 'I' for Inactive)
REMARK    1  A    between atoms: N_1  and  C_8
REMARK    2  A    between atoms: N_1  and  C_14
REMARK    3  A    between atoms: C_8  and  C_9
REMARK    4  A    between atoms: C_9  and  N_10
REMARK    5  A    between atoms: C_14  and  C_15
REMARK    6  A    between atoms: C_20  and  O_21
REMARK                            x       y       z     vdW  Elec       q    Type
REMARK                         _______ _______ _______ _____ _____    ______ ____
ROOT
ATOM      1  N   UNL     1      33.073 -13.619 -22.614  0.00  0.00    -0.291 N 
ATOM      2  N   UNL     1      32.492 -12.814 -20.448  0.00  0.00    -0.229 NA
ATOM      3  C   UNL     1      32.337 -12.758 -21.802  0.00  0.00    +0.132 C 
ATOM      4  C   UNL     1      31.459 -11.864 -22.417  0.00  0.00    +0.034 C 
ATOM      5  C   UNL     1      30.717 -10.999 -21.620  0.00  0.00    +0.004 C 
ATOM      6  C   UNL     1      31.754 -11.959 -19.706  0.00  0.00    +0.100 C 
ATOM      7  C   UNL     1      30.862 -11.040 -20.238  0.00  0.00    +0.021 C 
ENDROOT
BRANCH   1   8
ATOM      8  C   UNL     1      32.539 -14.087 -23.888  0.00  0.00    +0.070 C 
BRANCH   8   9
ATOM      9  C   UNL     1      33.283 -13.427 -25.045  0.00  0.00    -0.056 C 
BRANCH   9  10
ATOM     10  N   UNL     1      32.838 -13.992 -26.318  0.00  0.00    +0.385 N 
ATOM     11  C   UNL     1      33.035 -15.441 -26.332  0.00  0.00    -0.101 C 
ATOM     12  C   UNL     1      33.553 -13.369 -27.432  0.00  0.00    -0.101 C 
ATOM     13  H   UNL     1      31.842 -13.800 -26.427  0.00  0.00    -0.080 HD
ENDBRANCH   9  10
ENDBRANCH   8   9
ENDBRANCH   1   8
BRANCH   1  14
ATOM     14  C   UNL     1      34.392 -14.088 -22.210  0.00  0.00    +0.119 C 
BRANCH  14  15
ATOM     15  C   UNL     1      34.452 -15.590 -22.123  0.00  0.00    -0.002 C 
ATOM     16  C   UNL     1      35.185 -16.299 -23.063  0.00  0.00    +0.000 C 
ATOM     17  C   UNL     1      33.771 -16.243 -21.106  0.00  0.00    +0.000 C 
ATOM     18  C   UNL     1      35.240 -17.691 -22.984  0.00  0.00    +0.037 C 
ATOM     19  C   UNL     1      33.825 -17.634 -21.026  0.00  0.00    +0.037 C 
ATOM     20  C   UNL     1      34.560 -18.359 -21.965  0.00  0.00    +0.139 C 
BRANCH  20  21
ATOM     21  O   UNL     1      34.614 -19.717 -21.888  0.00  0.00    -0.471 OA
ATOM     22  C   UNL     1      35.340 -20.291 -20.820  0.00  0.00    +0.252 C 
ENDBRANCH  20  21
ENDBRANCH  14  15
ENDBRANCH   1  14
TORSDOF 6
ENDMDL
MODEL 9
REMARK VINA RESULT:      -7.3      3.213      6.915
REMARK  Name = 4992
REMARK  6 active torsions:
REMARK  status: ('A' for Active; 'I' for Inactive)
REMARK    1  A    between atoms: N_1  and  C_8
REMARK    2  A    between atoms: N_1  and  C_14
REMARK    3  A    between atoms: C_8  and  C_9
REMARK    4  A    between atoms: C_9  and  N_10
REMARK    5  A    between atoms: C_14  and  C_15
REMARK    6  A    between atoms: C_20  and  O_21
REMARK                            x       y       z     vdW  Elec       q    Type
REMARK                         _______ _______ _______ _____ _____    ______ ____
ROOT
ATOM      1  N   UNL     1      34.171 -23.354 -14.927  0.00  0.00    -0.291 N 
ATOM      2  N   UNL     1      36.187 -22.228 -15.516  0.00  0.00    -0.229 NA
ATOM      3  C   UNL     1      35.008 -22.801 -15.894  0.00  0.00    +0.132 C 
ATOM      4  C   UNL     1      34.598 -22.855 -17.228  0.00  0.00    +0.034 C 
ATOM      5  C   UNL     1      35.421 -22.306 -18.204  0.00  0.00    +0.004 C 
ATOM      6  C   UNL     1      36.961 -21.706 -16.493  0.00  0.00    +0.100 C 
ATOM      7  C   UNL     1      36.628 -21.719 -17.839  0.00  0.00    +0.021 C 
ENDROOT
BRANCH   1   8
ATOM      8  C   UNL     1      32.724 -23.367 -15.107  0.00  0.00    +0.070 C 
BRANCH   8   9
ATOM      9  C   UNL     1      32.102 -24.498 -14.293  0.00  0.00    -0.056 C 
BRANCH   9  10
ATOM     10  N   UNL     1      30.652 -24.326 -14.218  0.00  0.00    +0.385 N 
ATOM     11  C   UNL     1      29.970 -25.440 -14.875  0.00  0.00    -0.101 C 
ATOM     12  C   UNL     1      30.255 -23.055 -14.824  0.00  0.00    -0.101 C 
ATOM     13  H   UNL     1      30.378 -24.314 -13.235  0.00  0.00    -0.080 HD
ENDBRANCH   9  10
ENDBRANCH   8   9
ENDBRANCH   1   8
BRANCH   1  14
ATOM     14  C   UNL     1      34.715 -23.925 -13.702  0.00  0.00    +0.119 C 
BRANCH  14  15
ATOM     15  C   UNL     1      35.968 -24.720 -13.960  0.00  0.00    -0.002 C 
ATOM     16  C   UNL     1      35.961 -25.706 -14.936  0.00  0.00    +0.000 C 
ATOM     17  C   UNL     1      37.110 -24.455 -13.218  0.00  0.00    +0.000 C 
ATOM     18  C   UNL     1      37.121 -26.443 -15.175  0.00  0.00    +0.037 C 
ATOM     19  C   UNL     1      38.270 -25.192 -13.456  0.00  0.00    +0.037 C 
ATOM     20  C   UNL     1      38.276 -26.186 -14.434  0.00  0.00    +0.139 C 
BRANCH  20  21
ATOM     21  O   UNL     1      39.407 -26.905 -14.669  0.00  0.00    -0.471 OA
ATOM     22  C   UNL     1      40.651 -26.249 -14.526  0.00  0.00    +0.252 C 
ENDBRANCH  20  21
ENDBRANCH  14  15
ENDBRANCH   1  14
TORSDOF 6
ENDMDL
