MODEL 1
REMARK VINA RESULT:     -10.1      0.000      0.000
REMARK  Name = 6918218
REMARK  7 active torsions:
REMARK  status: ('A' for Active; 'I' for Inactive)
REMARK    1  A    between atoms: C_5  and  C_25
REMARK    2  A    between atoms: C_7  and  C_10
REMARK    3  A    between atoms: C_8  and  C_15
REMARK    4  A    between atoms: C_15  and  O_16
REMARK    5  A    between atoms: O_16  and  C_17
REMARK    6  A    between atoms: C_17  and  C_21
REMARK    7  A    between atoms: C_25  and  O_27
REMARK                            x       y       z     vdW  Elec       q    Type
REMARK                         _______ _______ _______ _____ _____    ______ ____
ROOT
ATOM      1  S   UNL     1      37.075 -21.617 -17.206  0.00  0.00    -0.094 S 
ATOM      2  O   UNL     1      35.092 -25.338 -15.643  0.00  0.00    -0.274 OA
ATOM      3  N   UNL     1      35.158 -23.017 -16.081  0.00  0.00    -0.244 N 
ATOM      4  C   UNL     1      36.354 -22.273 -15.657  0.00  0.00    +0.143 C 
ATOM      5  C   UNL     1      36.910 -23.608 -15.133  0.00  0.00    +0.133 C 
ATOM      6  C   UNL     1      35.566 -24.225 -15.592  0.00  0.00    +0.235 C 
ATOM      7  C   UNL     1      35.622 -22.033 -18.108  0.00  0.00    +0.051 C 
ATOM      8  C   UNL     1      34.775 -22.776 -17.376  0.00  0.00    +0.135 C 
ENDROOT
BRANCH   7  10
ATOM      9  O   UNL     1      36.633 -20.764 -19.872  0.00  0.00    -0.351 OA
ATOM     10  C   UNL     1      35.515 -21.604 -19.531  0.00  0.00    +0.145 C 
ATOM     11  C   UNL     1      34.263 -20.791 -19.826  0.00  0.00    +0.037 C 
ATOM     12  C   UNL     1      34.717 -19.934 -20.981  0.00  0.00    +0.035 C 
ATOM     13  C   UNL     1      36.145 -19.622 -20.591  0.00  0.00    +0.143 C 
ENDBRANCH   7  10
BRANCH   8  15
ATOM     14  O   UNL     1      33.503 -24.265 -18.710  0.00  0.00    -0.243 OA
ATOM     15  C   UNL     1      33.538 -23.378 -17.869  0.00  0.00    +0.356 C 
BRANCH  15  16
ATOM     16  O   UNL     1      32.485 -22.791 -17.245  0.00  0.00    -0.436 OA
BRANCH  16  17
ATOM     17  C   UNL     1      31.897 -23.550 -16.183  0.00  0.00    +0.275 C 
BRANCH  17  21
ATOM     18  O   UNL     1      29.901 -22.338 -16.924  0.00  0.00    -0.391 OA
ATOM     19  O   UNL     1      28.219 -23.570 -15.888  0.00  0.00    -0.395 OA
ATOM     20  O   UNL     1      27.698 -21.752 -17.187  0.00  0.00    -0.202 OA
ATOM     21  C   UNL     1      30.420 -23.387 -16.191  0.00  0.00    +0.204 A 
ATOM     22  C   UNL     1      29.468 -24.083 -15.606  0.00  0.00    +0.164 A 
ATOM     23  C   UNL     1      29.533 -25.278 -14.730  0.00  0.00    +0.076 C 
ATOM     24  C   UNL     1      28.542 -22.497 -16.703  0.00  0.00    +0.521 A 
ENDBRANCH  17  21
ENDBRANCH  16  17
ENDBRANCH  15  16
ENDBRANCH   8  15
BRANCH   5  25
ATOM     25  C   UNL     1      37.211 -23.790 -13.663  0.00  0.00    +0.122 C 
ATOM     26  C   UNL     1      38.173 -24.950 -13.437  0.00  0.00    +0.032 C 
BRANCH  25  27
ATOM     27  O   UNL     1      37.793 -22.594 -13.147  0.00  0.00    -0.384 OA
ATOM     28  H   UNL     1      38.169 -22.769 -12.271  0.00  0.00    +0.210 HD
ENDBRANCH  25  27
ENDBRANCH   5  25
TORSDOF 7
ENDMDL
MODEL 2
REMARK VINA RESULT:      -9.0      2.034      5.724
REMARK  Name = 6918218
REMARK  7 active torsions:
REMARK  status: ('A' for Active; 'I' for Inactive)
REMARK    1  A    between atoms: C_5  and  C_25
REMARK    2  A    between atoms: C_7  and  C_10
REMARK    3  A    between atoms: C_8  and  C_15
REMARK    4  A    between atoms: C_15  and  O_16
REMARK    5  A    between atoms: O_16  and  C_17
REMARK    6  A    between atoms: C_17  and  C_21
REMARK    7  A    between atoms: C_25  and  O_27
REMARK                            x       y       z     vdW  Elec       q    Type
REMARK                         _______ _______ _______ _____ _____    ______ ____
ROOT
ATOM      1  S   UNL     1      32.926 -23.749 -14.222  0.00  0.00    -0.094 S 
ATOM      2  O   UNL     1      36.387 -22.137 -16.598  0.00  0.00    -0.274 OA
ATOM      3  N   UNL     1      34.807 -23.808 -16.056  0.00  0.00    -0.244 N 
ATOM      4  C   UNL     1      34.657 -24.175 -14.639  0.00  0.00    +0.143 C 
ATOM      5  C   UNL     1      35.734 -23.122 -14.326  0.00  0.00    +0.133 C 
ATOM      6  C   UNL     1      35.804 -22.897 -15.857  0.00  0.00    +0.235 C 
ATOM      7  C   UNL     1      32.527 -23.526 -15.923  0.00  0.00    +0.051 C 
ATOM      8  C   UNL     1      33.623 -23.557 -16.700  0.00  0.00    +0.135 C 
ENDROOT
BRANCH   7  10
ATOM      9  O   UNL     1      30.571 -22.213 -15.484  0.00  0.00    -0.351 OA
ATOM     10  C   UNL     1      31.108 -23.272 -16.297  0.00  0.00    +0.145 C 
ATOM     11  C   UNL     1      30.201 -24.475 -16.088  0.00  0.00    +0.037 C 
ATOM     12  C   UNL     1      28.868 -23.816 -15.832  0.00  0.00    +0.035 C 
ATOM     13  C   UNL     1      29.274 -22.609 -15.016  0.00  0.00    +0.143 C 
ENDBRANCH   7  10
BRANCH   8  15
ATOM     14  O   UNL     1      33.775 -24.158 -18.987  0.00  0.00    -0.243 OA
ATOM     15  C   UNL     1      33.644 -23.289 -18.137  0.00  0.00    +0.356 C 
BRANCH  15  16
ATOM     16  O   UNL     1      33.499 -21.954 -18.336  0.00  0.00    -0.436 OA
BRANCH  16  17
ATOM     17  C   UNL     1      33.088 -21.569 -19.652  0.00  0.00    +0.275 C 
BRANCH  17  21
ATOM     18  O   UNL     1      33.375 -19.360 -20.672  0.00  0.00    -0.391 OA
ATOM     19  O   UNL     1      35.694 -19.233 -20.821  0.00  0.00    -0.395 OA
ATOM     20  O   UNL     1      34.384 -17.501 -21.560  0.00  0.00    -0.202 OA
ATOM     21  C   UNL     1      33.977 -20.499 -20.175  0.00  0.00    +0.204 A 
ATOM     22  C   UNL     1      35.289 -20.426 -20.260  0.00  0.00    +0.164 A 
ATOM     23  C   UNL     1      36.345 -21.388 -19.863  0.00  0.00    +0.076 C 
ATOM     24  C   UNL     1      34.478 -18.614 -21.056  0.00  0.00    +0.521 A 
ENDBRANCH  17  21
ENDBRANCH  16  17
ENDBRANCH  15  16
ENDBRANCH   8  15
BRANCH   5  25
ATOM     25  C   UNL     1      37.045 -23.530 -13.694  0.00  0.00    +0.122 C 
ATOM     26  C   UNL     1      37.119 -23.080 -12.241  0.00  0.00    +0.032 C 
BRANCH  25  27
ATOM     27  O   UNL     1      37.176 -24.950 -13.751  0.00  0.00    -0.384 OA
ATOM     28  H   UNL     1      38.050 -25.180 -14.103  0.00  0.00    +0.210 HD
ENDBRANCH  25  27
ENDBRANCH   5  25
TORSDOF 7
ENDMDL
MODEL 3
REMARK VINA RESULT:      -9.0      1.291      4.805
REMARK  Name = 6918218
REMARK  7 active torsions:
REMARK  status: ('A' for Active; 'I' for Inactive)
REMARK    1  A    between atoms: C_5  and  C_25
REMARK    2  A    between atoms: C_7  and  C_10
REMARK    3  A    between atoms: C_8  and  C_15
REMARK    4  A    between atoms: C_15  and  O_16
REMARK    5  A    between atoms: O_16  and  C_17
REMARK    6  A    between atoms: C_17  and  C_21
REMARK    7  A    between atoms: C_25  and  O_27
REMARK                            x       y       z     vdW  Elec       q    Type
REMARK                         _______ _______ _______ _____ _____    ______ ____
ROOT
ATOM      1  S   UNL     1      36.790 -21.292 -17.782  0.00  0.00    -0.094 S 
ATOM      2  O   UNL     1      32.882 -20.856 -19.964  0.00  0.00    -0.274 OA
ATOM      3  N   UNL     1      34.825 -22.053 -19.352  0.00  0.00    -0.244 N 
ATOM      4  C   UNL     1      36.121 -21.369 -19.485  0.00  0.00    +0.143 C 
ATOM      5  C   UNL     1      35.341 -20.143 -19.989  0.00  0.00    +0.133 C 
ATOM      6  C   UNL     1      34.075 -21.022 -19.841  0.00  0.00    +0.235 C 
ATOM      7  C   UNL     1      35.569 -22.424 -17.207  0.00  0.00    +0.051 C 
ATOM      8  C   UNL     1      34.633 -22.665 -18.140  0.00  0.00    +0.135 C 
ENDROOT
BRANCH   7  10
ATOM      9  O   UNL     1      36.920 -22.542 -15.232  0.00  0.00    -0.351 OA
ATOM     10  C   UNL     1      35.654 -22.915 -15.803  0.00  0.00    +0.145 C 
ATOM     11  C   UNL     1      35.560 -24.430 -15.685  0.00  0.00    +0.037 C 
ATOM     12  C   UNL     1      36.349 -24.690 -14.426  0.00  0.00    +0.035 C 
ATOM     13  C   UNL     1      37.467 -23.680 -14.548  0.00  0.00    +0.143 C 
ENDBRANCH   7  10
BRANCH   8  15
ATOM     14  O   UNL     1      33.292 -24.607 -18.354  0.00  0.00    -0.243 OA
ATOM     15  C   UNL     1      33.427 -23.466 -17.937  0.00  0.00    +0.356 C 
BRANCH  15  16
ATOM     16  O   UNL     1      32.528 -22.733 -17.230  0.00  0.00    -0.436 OA
BRANCH  16  17
ATOM     17  C   UNL     1      31.962 -23.386 -16.089  0.00  0.00    +0.275 C 
BRANCH  17  21
ATOM     18  O   UNL     1      29.921 -22.262 -16.847  0.00  0.00    -0.391 OA
ATOM     19  O   UNL     1      28.285 -23.619 -15.898  0.00  0.00    -0.395 OA
ATOM     20  O   UNL     1      27.697 -21.791 -17.153  0.00  0.00    -0.202 OA
ATOM     21  C   UNL     1      30.479 -23.305 -16.133  0.00  0.00    +0.204 A 
ATOM     22  C   UNL     1      29.553 -24.071 -15.597  0.00  0.00    +0.164 A 
ATOM     23  C   UNL     1      29.662 -25.289 -14.758  0.00  0.00    +0.076 C 
ATOM     24  C   UNL     1      28.568 -22.504 -16.669  0.00  0.00    +0.521 A 
ENDBRANCH  17  21
ENDBRANCH  16  17
ENDBRANCH  15  16
ENDBRANCH   8  15
BRANCH   5  25
ATOM     25  C   UNL     1      35.571 -19.608 -21.384  0.00  0.00    +0.122 C 
ATOM     26  C   UNL     1      34.501 -18.594 -21.768  0.00  0.00    +0.032 C 
BRANCH  25  27
ATOM     27  O   UNL     1      36.852 -18.982 -21.446  0.00  0.00    -0.384 OA
ATOM     28  H   UNL     1      37.341 -19.167 -20.629  0.00  0.00    +0.210 HD
ENDBRANCH  25  27
ENDBRANCH   5  25
TORSDOF 7
ENDMDL
MODEL 4
REMARK VINA RESULT:      -8.8      2.024      5.705
REMARK  Name = 6918218
REMARK  7 active torsions:
REMARK  status: ('A' for Active; 'I' for Inactive)
REMARK    1  A    between atoms: C_5  and  C_25
REMARK    2  A    between atoms: C_7  and  C_10
REMARK    3  A    between atoms: C_8  and  C_15
REMARK    4  A    between atoms: C_15  and  O_16
REMARK    5  A    between atoms: O_16  and  C_17
REMARK    6  A    between atoms: C_17  and  C_21
REMARK    7  A    between atoms: C_25  and  O_27
REMARK                            x       y       z     vdW  Elec       q    Type
REMARK                         _______ _______ _______ _____ _____    ______ ____
ROOT
ATOM      1  S   UNL     1      33.058 -23.892 -13.911  0.00  0.00    -0.094 S 
ATOM      2  O   UNL     1      36.931 -23.193 -16.086  0.00  0.00    -0.274 OA
ATOM      3  N   UNL     1      34.910 -24.358 -15.716  0.00  0.00    -0.244 N 
ATOM      4  C   UNL     1      34.602 -24.777 -14.340  0.00  0.00    +0.143 C 
ATOM      5  C   UNL     1      35.928 -24.120 -13.920  0.00  0.00    +0.133 C 
ATOM      6  C   UNL     1      36.122 -23.803 -15.424  0.00  0.00    +0.235 C 
ATOM      7  C   UNL     1      32.811 -23.424 -15.590  0.00  0.00    +0.051 C 
ATOM      8  C   UNL     1      33.878 -23.716 -16.352  0.00  0.00    +0.135 C 
ENDROOT
BRANCH   7  10
ATOM      9  O   UNL     1      30.841 -22.331 -14.771  0.00  0.00    -0.351 OA
ATOM     10  C   UNL     1      31.546 -22.730 -15.960  0.00  0.00    +0.145 C 
ATOM     11  C   UNL     1      30.585 -23.603 -16.754  0.00  0.00    +0.037 C 
ATOM     12  C   UNL     1      29.249 -23.011 -16.380  0.00  0.00    +0.035 C 
ATOM     13  C   UNL     1      29.457 -22.679 -14.920  0.00  0.00    +0.143 C 
ENDBRANCH   7  10
BRANCH   8  15
ATOM     14  O   UNL     1      33.682 -24.064 -18.688  0.00  0.00    -0.243 OA
ATOM     15  C   UNL     1      34.034 -23.351 -17.759  0.00  0.00    +0.356 C 
BRANCH  15  16
ATOM     16  O   UNL     1      34.619 -22.127 -17.832  0.00  0.00    -0.436 OA
BRANCH  16  17
ATOM     17  C   UNL     1      35.652 -21.996 -18.813  0.00  0.00    +0.275 C 
BRANCH  17  21
ATOM     18  O   UNL     1      36.421 -20.112 -20.177  0.00  0.00    -0.391 OA
ATOM     19  O   UNL     1      34.404 -19.325 -21.032  0.00  0.00    -0.395 OA
ATOM     20  O   UNL     1      36.381 -18.300 -21.584  0.00  0.00    -0.202 OA
ATOM     21  C   UNL     1      35.354 -20.863 -19.727  0.00  0.00    +0.204 A 
ATOM     22  C   UNL     1      34.213 -20.417 -20.211  0.00  0.00    +0.164 A 
ATOM     23  C   UNL     1      32.821 -20.889 -20.015  0.00  0.00    +0.076 C 
ATOM     24  C   UNL     1      35.780 -19.179 -20.977  0.00  0.00    +0.521 A 
ENDBRANCH  17  21
ENDBRANCH  16  17
ENDBRANCH  15  16
ENDBRANCH   8  15
BRANCH   5  25
ATOM     25  C   UNL     1      37.035 -24.949 -13.309  0.00  0.00    +0.122 C 
ATOM     26  C   UNL     1      37.928 -24.100 -12.413  0.00  0.00    +0.032 C 
BRANCH  25  27
ATOM     27  O   UNL     1      36.465 -26.004 -12.536  0.00  0.00    -0.384 OA
ATOM     28  H   UNL     1      36.813 -26.855 -12.843  0.00  0.00    +0.210 HD
ENDBRANCH  25  27
ENDBRANCH   5  25
TORSDOF 7
ENDMDL
MODEL 5
REMARK VINA RESULT:      -8.5      2.898      7.926
REMARK  Name = 6918218
REMARK  7 active torsions:
REMARK  status: ('A' for Active; 'I' for Inactive)
REMARK    1  A    between atoms: C_5  and  C_25
REMARK    2  A    between atoms: C_7  and  C_10
REMARK    3  A    between atoms: C_8  and  C_15
REMARK    4  A    between atoms: C_15  and  O_16
REMARK    5  A    between atoms: O_16  and  C_17
REMARK    6  A    between atoms: C_17  and  C_21
REMARK    7  A    between atoms: C_25  and  O_27
REMARK                            x       y       z     vdW  Elec       q    Type
REMARK                         _______ _______ _______ _____ _____    ______ ____
ROOT
ATOM      1  S   UNL     1      32.742 -24.165 -13.331  0.00  0.00    -0.094 S 
ATOM      2  O   UNL     1      33.130 -23.608 -17.777  0.00  0.00    -0.274 OA
ATOM      3  N   UNL     1      33.213 -22.833 -15.547  0.00  0.00    -0.244 N 
ATOM      4  C   UNL     1      32.064 -23.124 -14.676  0.00  0.00    +0.143 C 
ATOM      5  C   UNL     1      31.432 -23.851 -15.876  0.00  0.00    +0.133 C 
ATOM      6  C   UNL     1      32.690 -23.414 -16.666  0.00  0.00    +0.235 C 
ATOM      7  C   UNL     1      34.392 -23.794 -13.820  0.00  0.00    +0.051 C 
ATOM      8  C   UNL     1      34.430 -23.137 -14.991  0.00  0.00    +0.135 C 
ENDROOT
BRANCH   7  10
ATOM      9  O   UNL     1      34.995 -24.933 -11.800  0.00  0.00    -0.351 OA
ATOM     10  C   UNL     1      35.516 -24.279 -12.971  0.00  0.00    +0.145 C 
ATOM     11  C   UNL     1      36.422 -23.163 -12.471  0.00  0.00    +0.037 C 
ATOM     12  C   UNL     1      36.942 -23.744 -11.179  0.00  0.00    +0.035 C 
ATOM     13  C   UNL     1      35.722 -24.468 -10.654  0.00  0.00    +0.143 C 
ENDBRANCH   7  10
BRANCH   8  15
ATOM     14  O   UNL     1      35.865 -21.679 -16.188  0.00  0.00    -0.243 OA
ATOM     15  C   UNL     1      35.647 -22.789 -15.724  0.00  0.00    +0.356 C 
BRANCH  15  16
ATOM     16  O   UNL     1      36.449 -23.882 -15.786  0.00  0.00    -0.436 OA
BRANCH  16  17
ATOM     17  C   UNL     1      37.844 -23.636 -15.579  0.00  0.00    +0.275 C 
BRANCH  17  21
ATOM     18  O   UNL     1      39.871 -24.793 -14.836  0.00  0.00    -0.391 OA
ATOM     19  O   UNL     1      39.066 -26.956 -14.534  0.00  0.00    -0.395 OA
ATOM     20  O   UNL     1      41.270 -26.467 -14.125  0.00  0.00    -0.202 OA
ATOM     21  C   UNL     1      38.526 -24.879 -15.134  0.00  0.00    +0.204 A 
ATOM     22  C   UNL     1      38.071 -26.103 -14.963  0.00  0.00    +0.164 A 
ATOM     23  C   UNL     1      36.716 -26.674 -15.153  0.00  0.00    +0.076 C 
ATOM     24  C   UNL     1      40.153 -26.100 -14.472  0.00  0.00    +0.521 A 
ENDBRANCH  17  21
ENDBRANCH  16  17
ENDBRANCH  15  16
ENDBRANCH   8  15
BRANCH   5  25
ATOM     25  C   UNL     1      30.126 -23.367 -16.464  0.00  0.00    +0.122 C 
ATOM     26  C   UNL     1      29.078 -23.154 -15.379  0.00  0.00    +0.032 C 
BRANCH  25  27
ATOM     27  O   UNL     1      30.343 -22.136 -17.152  0.00  0.00    -0.384 OA
ATOM     28  H   UNL     1      30.143 -22.253 -18.094  0.00  0.00    +0.210 HD
ENDBRANCH  25  27
ENDBRANCH   5  25
TORSDOF 7
ENDMDL
MODEL 6
REMARK VINA RESULT:      -8.5      2.077      6.564
REMARK  Name = 6918218
REMARK  7 active torsions:
REMARK  status: ('A' for Active; 'I' for Inactive)
REMARK    1  A    between atoms: C_5  and  C_25
REMARK    2  A    between atoms: C_7  and  C_10
REMARK    3  A    between atoms: C_8  and  C_15
REMARK    4  A    between atoms: C_15  and  O_16
REMARK    5  A    between atoms: O_16  and  C_17
REMARK    6  A    between atoms: C_17  and  C_21
REMARK    7  A    between atoms: C_25  and  O_27
REMARK                            x       y       z     vdW  Elec       q    Type
REMARK                         _______ _______ _______ _____ _____    ______ ____
ROOT
ATOM      1  S   UNL     1      34.372 -23.948 -13.457  0.00  0.00    -0.094 S 
ATOM      2  O   UNL     1      33.583 -23.784 -17.881  0.00  0.00    -0.274 OA
ATOM      3  N   UNL     1      34.114 -22.793 -15.803  0.00  0.00    -0.244 N 
ATOM      4  C   UNL     1      33.259 -23.118 -14.651  0.00  0.00    +0.143 C 
ATOM      5  C   UNL     1      32.448 -24.019 -15.598  0.00  0.00    +0.133 C 
ATOM      6  C   UNL     1      33.409 -23.531 -16.710  0.00  0.00    +0.235 C 
ATOM      7  C   UNL     1      35.792 -23.455 -14.375  0.00  0.00    +0.051 C 
ATOM      8  C   UNL     1      35.458 -22.914 -15.558  0.00  0.00    +0.135 C 
ENDROOT
BRANCH   7  10
ATOM      9  O   UNL     1      37.499 -25.107 -14.057  0.00  0.00    -0.351 OA
ATOM     10  C   UNL     1      37.141 -23.736 -13.809  0.00  0.00    +0.145 C 
ATOM     11  C   UNL     1      37.220 -23.538 -12.303  0.00  0.00    +0.037 C 
ATOM     12  C   UNL     1      38.315 -24.504 -11.922  0.00  0.00    +0.035 C 
ATOM     13  C   UNL     1      38.037 -25.665 -12.849  0.00  0.00    +0.143 C 
ENDBRANCH   7  10
BRANCH   8  15
ATOM     14  O   UNL     1      37.565 -22.893 -16.643  0.00  0.00    -0.243 OA
ATOM     15  C   UNL     1      36.404 -22.512 -16.598  0.00  0.00    +0.356 C 
BRANCH  15  16
ATOM     16  O   UNL     1      35.775 -21.676 -17.463  0.00  0.00    -0.436 OA
BRANCH  16  17
ATOM     17  C   UNL     1      36.280 -21.680 -18.802  0.00  0.00    +0.275 C 
BRANCH  17  21
ATOM     18  O   UNL     1      34.032 -21.245 -19.673  0.00  0.00    -0.391 OA
ATOM     19  O   UNL     1      34.461 -19.521 -21.177  0.00  0.00    -0.395 OA
ATOM     20  O   UNL     1      32.326 -20.313 -20.891  0.00  0.00    -0.202 OA
ATOM     21  C   UNL     1      35.373 -20.916 -19.697  0.00  0.00    +0.204 A 
ATOM     22  C   UNL     1      35.614 -19.941 -20.548  0.00  0.00    +0.164 A 
ATOM     23  C   UNL     1      36.879 -19.259 -20.915  0.00  0.00    +0.076 C 
ATOM     24  C   UNL     1      33.517 -20.356 -20.602  0.00  0.00    +0.521 A 
ENDBRANCH  17  21
ENDBRANCH  16  17
ENDBRANCH  15  16
ENDBRANCH   8  15
BRANCH   5  25
ATOM     25  C   UNL     1      30.988 -23.734 -15.864  0.00  0.00    +0.122 C 
ATOM     26  C   UNL     1      30.134 -24.975 -15.639  0.00  0.00    +0.032 C 
BRANCH  25  27
ATOM     27  O   UNL     1      30.542 -22.696 -14.994  0.00  0.00    -0.384 OA
ATOM     28  H   UNL     1      30.620 -22.990 -14.073  0.00  0.00    +0.210 HD
ENDBRANCH  25  27
ENDBRANCH   5  25
TORSDOF 7
ENDMDL
MODEL 7
REMARK VINA RESULT:      -8.3      8.715     11.808
REMARK  Name = 6918218
REMARK  7 active torsions:
REMARK  status: ('A' for Active; 'I' for Inactive)
REMARK    1  A    between atoms: C_5  and  C_25
REMARK    2  A    between atoms: C_7  and  C_10
REMARK    3  A    between atoms: C_8  and  C_15
REMARK    4  A    between atoms: C_15  and  O_16
REMARK    5  A    between atoms: O_16  and  C_17
REMARK    6  A    between atoms: C_17  and  C_21
REMARK    7  A    between atoms: C_25  and  O_27
REMARK                            x       y       z     vdW  Elec       q    Type
REMARK                         _______ _______ _______ _____ _____    ______ ____
ROOT
ATOM      1  S   UNL     1      34.540 -15.620 -24.183  0.00  0.00    -0.094 S 
ATOM      2  O   UNL     1      32.300 -16.379 -20.357  0.00  0.00    -0.274 OA
ATOM      3  N   UNL     1      33.925 -15.256 -21.654  0.00  0.00    -0.244 N 
ATOM      4  C   UNL     1      34.861 -16.076 -22.439  0.00  0.00    +0.143 C 
ATOM      5  C   UNL     1      34.129 -17.311 -21.888  0.00  0.00    +0.133 C 
ATOM      6  C   UNL     1      33.264 -16.307 -21.086  0.00  0.00    +0.235 C 
ATOM      7  C   UNL     1      33.570 -14.237 -23.686  0.00  0.00    +0.051 C 
ATOM      8  C   UNL     1      33.337 -14.240 -22.363  0.00  0.00    +0.135 C 
ENDROOT
BRANCH   7  10
ATOM      9  O   UNL     1      32.783 -14.019 -25.939  0.00  0.00    -0.351 OA
ATOM     10  C   UNL     1      33.079 -13.296 -24.731  0.00  0.00    +0.145 C 
ATOM     11  C   UNL     1      34.094 -12.227 -25.109  0.00  0.00    +0.037 C 
ATOM     12  C   UNL     1      33.709 -11.927 -26.537  0.00  0.00    +0.035 C 
ATOM     13  C   UNL     1      33.338 -13.301 -27.050  0.00  0.00    +0.143 C 
ENDBRANCH   7  10
BRANCH   8  15
ATOM     14  O   UNL     1      32.304 -13.305 -20.446  0.00  0.00    -0.243 OA
ATOM     15  C   UNL     1      32.471 -13.297 -21.657  0.00  0.00    +0.356 C 
BRANCH  15  16
ATOM     16  O   UNL     1      31.916 -12.450 -22.562  0.00  0.00    -0.436 OA
BRANCH  16  17
ATOM     17  C   UNL     1      30.985 -11.502 -22.029  0.00  0.00    +0.275 C 
BRANCH  17  21
ATOM     18  O   UNL     1      32.223  -9.488 -22.673  0.00  0.00    -0.391 OA
ATOM     19  O   UNL     1      32.612  -8.517 -20.594  0.00  0.00    -0.395 OA
ATOM     20  O   UNL     1      33.370  -7.509 -22.509  0.00  0.00    -0.202 OA
ATOM     21  C   UNL     1      31.688 -10.248 -21.652  0.00  0.00    +0.204 A 
ATOM     22  C   UNL     1      31.908  -9.698 -20.476  0.00  0.00    +0.164 A 
ATOM     23  C   UNL     1      31.533 -10.136 -19.110  0.00  0.00    +0.076 C 
ATOM     24  C   UNL     1      32.780  -8.435 -21.966  0.00  0.00    +0.521 A 
ENDBRANCH  17  21
ENDBRANCH  16  17
ENDBRANCH  15  16
ENDBRANCH   8  15
BRANCH   5  25
ATOM     25  C   UNL     1      34.862 -18.323 -21.038  0.00  0.00    +0.122 C 
ATOM     26  C   UNL     1      34.107 -19.645 -20.980  0.00  0.00    +0.032 C 
BRANCH  25  27
ATOM     27  O   UNL     1      36.160 -18.549 -21.585  0.00  0.00    -0.384 OA
ATOM     28  H   UNL     1      36.133 -19.321 -22.172  0.00  0.00    +0.210 HD
ENDBRANCH  25  27
ENDBRANCH   5  25
TORSDOF 7
ENDMDL
MODEL 8
REMARK VINA RESULT:      -8.3     12.657     16.467
REMARK  Name = 6918218
REMARK  7 active torsions:
REMARK  status: ('A' for Active; 'I' for Inactive)
REMARK    1  A    between atoms: C_5  and  C_25
REMARK    2  A    between atoms: C_7  and  C_10
REMARK    3  A    between atoms: C_8  and  C_15
REMARK    4  A    between atoms: C_15  and  O_16
REMARK    5  A    between atoms: O_16  and  C_17
REMARK    6  A    between atoms: C_17  and  C_21
REMARK    7  A    between atoms: C_25  and  O_27
REMARK                            x       y       z     vdW  Elec       q    Type
REMARK                         _______ _______ _______ _____ _____    ______ ____
ROOT
ATOM      1  S   UNL     1      31.343  -7.097 -21.027  0.00  0.00    -0.094 S 
ATOM      2  O   UNL     1      32.554  -6.262 -25.276  0.00  0.00    -0.274 OA
ATOM      3  N   UNL     1      33.013  -6.530 -22.975  0.00  0.00    -0.244 N 
ATOM      4  C   UNL     1      32.169  -5.798 -22.018  0.00  0.00    +0.143 C 
ATOM      5  C   UNL     1      31.401  -5.243 -23.230  0.00  0.00    +0.133 C 
ATOM      6  C   UNL     1      32.411  -6.036 -24.096  0.00  0.00    +0.235 C 
ATOM      7  C   UNL     1      32.418  -8.332 -21.674  0.00  0.00    +0.051 C 
ATOM      8  C   UNL     1      33.171  -7.860 -22.681  0.00  0.00    +0.135 C 
ENDROOT
BRANCH   7  10
ATOM      9  O   UNL     1      31.299 -10.449 -21.787  0.00  0.00    -0.351 OA
ATOM     10  C   UNL     1      32.338  -9.712 -21.118  0.00  0.00    +0.145 C 
ATOM     11  C   UNL     1      32.003  -9.749 -19.634  0.00  0.00    +0.037 C 
ATOM     12  C   UNL     1      31.305 -11.081 -19.509  0.00  0.00    +0.035 C 
ATOM     13  C   UNL     1      30.520 -11.140 -20.800  0.00  0.00    +0.143 C 
ENDBRANCH   7  10
BRANCH   8  15
ATOM     14  O   UNL     1      35.255  -8.386 -23.679  0.00  0.00    -0.243 OA
ATOM     15  C   UNL     1      34.077  -8.661 -23.503  0.00  0.00    +0.356 C 
BRANCH  15  16
ATOM     16  O   UNL     1      33.391  -9.718 -24.010  0.00  0.00    -0.436 OA
BRANCH  16  17
ATOM     17  C   UNL     1      34.180 -10.687 -24.709  0.00  0.00    +0.275 C 
BRANCH  17  21
ATOM     18  O   UNL     1      33.389 -12.434 -23.184  0.00  0.00    -0.391 OA
ATOM     19  O   UNL     1      32.842 -14.125 -24.687  0.00  0.00    -0.395 OA
ATOM     20  O   UNL     1      32.556 -14.434 -22.431  0.00  0.00    -0.202 OA
ATOM     21  C   UNL     1      33.633 -12.051 -24.488  0.00  0.00    +0.204 A 
ATOM     22  C   UNL     1      33.324 -13.008 -25.337  0.00  0.00    +0.164 A 
ATOM     23  C   UNL     1      33.411 -13.064 -26.816  0.00  0.00    +0.076 C 
ATOM     24  C   UNL     1      32.903 -13.719 -23.364  0.00  0.00    +0.521 A 
ENDBRANCH  17  21
ENDBRANCH  16  17
ENDBRANCH  15  16
ENDBRANCH   8  15
BRANCH   5  25
ATOM     25  C   UNL     1      31.372  -3.757 -23.506  0.00  0.00    +0.122 C 
ATOM     26  C   UNL     1      30.795  -3.465 -24.885  0.00  0.00    +0.032 C 
BRANCH  25  27
ATOM     27  O   UNL     1      30.575  -3.108 -22.517  0.00  0.00    -0.384 OA
ATOM     28  H   UNL     1      31.150  -2.739 -21.829  0.00  0.00    +0.210 HD
ENDBRANCH  25  27
ENDBRANCH   5  25
TORSDOF 7
ENDMDL
MODEL 9
REMARK VINA RESULT:      -8.2      2.108      5.381
REMARK  Name = 6918218
REMARK  7 active torsions:
REMARK  status: ('A' for Active; 'I' for Inactive)
REMARK    1  A    between atoms: C_5  and  C_25
REMARK    2  A    between atoms: C_7  and  C_10
REMARK    3  A    between atoms: C_8  and  C_15
REMARK    4  A    between atoms: C_15  and  O_16
REMARK    5  A    between atoms: O_16  and  C_17
REMARK    6  A    between atoms: C_17  and  C_21
REMARK    7  A    between atoms: C_25  and  O_27
REMARK                            x       y       z     vdW  Elec       q    Type
REMARK                         _______ _______ _______ _____ _____    ______ ____
ROOT
ATOM      1  S   UNL     1      36.862 -21.171 -18.205  0.00  0.00    -0.094 S 
ATOM      2  O   UNL     1      32.725 -20.678 -19.900  0.00  0.00    -0.274 OA
ATOM      3  N   UNL     1      34.705 -21.908 -19.514  0.00  0.00    -0.244 N 
ATOM      4  C   UNL     1      35.988 -21.253 -19.812  0.00  0.00    +0.143 C 
ATOM      5  C   UNL     1      35.176 -20.016 -20.234  0.00  0.00    +0.133 C 
ATOM      6  C   UNL     1      33.921 -20.868 -19.921  0.00  0.00    +0.235 C 
ATOM      7  C   UNL     1      35.699 -22.270 -17.470  0.00  0.00    +0.051 C 
ATOM      8  C   UNL     1      34.652 -22.503 -18.279  0.00  0.00    +0.135 C 
ENDROOT
BRANCH   7  10
ATOM      9  O   UNL     1      37.315 -22.499 -15.716  0.00  0.00    -0.351 OA
ATOM     10  C   UNL     1      35.946 -22.748 -16.081  0.00  0.00    +0.145 C 
ATOM     11  C   UNL     1      35.721 -24.243 -15.906  0.00  0.00    +0.037 C 
ATOM     12  C   UNL     1      36.661 -24.565 -14.771  0.00  0.00    +0.035 C 
ATOM     13  C   UNL     1      37.843 -23.677 -15.088  0.00  0.00    +0.143 C 
ENDBRANCH   7  10
BRANCH   8  15
ATOM     14  O   UNL     1      33.239 -24.405 -18.332  0.00  0.00    -0.243 OA
ATOM     15  C   UNL     1      33.465 -23.276 -17.919  0.00  0.00    +0.356 C 
BRANCH  15  16
ATOM     16  O   UNL     1      32.697 -22.536 -17.079  0.00  0.00    -0.436 OA
BRANCH  16  17
ATOM     17  C   UNL     1      31.540 -23.197 -16.557  0.00  0.00    +0.275 C 
BRANCH  17  21
ATOM     18  O   UNL     1      32.976 -23.352 -14.578  0.00  0.00    -0.391 OA
ATOM     19  O   UNL     1      31.856 -24.972 -13.338  0.00  0.00    -0.395 OA
ATOM     20  O   UNL     1      33.784 -24.020 -12.538  0.00  0.00    -0.202 OA
ATOM     21  C   UNL     1      31.844 -23.796 -15.232  0.00  0.00    +0.204 A 
ATOM     22  C   UNL     1      31.211 -24.713 -14.529  0.00  0.00    +0.164 A 
ATOM     23  C   UNL     1      29.969 -25.471 -14.813  0.00  0.00    +0.076 C 
ATOM     24  C   UNL     1      32.936 -24.109 -13.418  0.00  0.00    +0.521 A 
ENDBRANCH  17  21
ENDBRANCH  16  17
ENDBRANCH  15  16
ENDBRANCH   8  15
BRANCH   5  25
ATOM     25  C   UNL     1      35.244 -19.502 -21.654  0.00  0.00    +0.122 C 
ATOM     26  C   UNL     1      34.207 -18.411 -21.894  0.00  0.00    +0.032 C 
BRANCH  25  27
ATOM     27  O   UNL     1      36.545 -18.974 -21.904  0.00  0.00    -0.384 OA
ATOM     28  H   UNL     1      36.473 -18.195 -22.478  0.00  0.00    +0.210 HD
ENDBRANCH  25  27
ENDBRANCH   5  25
TORSDOF 7
ENDMDL
