MODEL 1
REMARK VINA RESULT:      -9.5      0.000      0.000
REMARK  Name = 4564
REMARK  3 active torsions:
REMARK  status: ('A' for Active; 'I' for Inactive)
REMARK    1  A    between atoms: C_6  and  O_15
REMARK    2  A    between atoms: O_15  and  C_16
REMARK    3  A    between atoms: C_16  and  C_17
REMARK                            x       y       z     vdW  Elec       q    Type
REMARK                         _______ _______ _______ _____ _____    ______ ____
ROOT
ATOM      1  N   UNL     1      32.251 -23.725 -15.728  0.00  0.00    -0.293 NA
ATOM      2  N   UNL     1      29.093 -22.418 -17.084  0.00  0.00    -0.266 NA
ATOM      3  N   UNL     1      30.281 -24.324 -14.420  0.00  0.00    -0.316 NA
ATOM      4  N   UNL     1      28.199 -23.455 -15.325  0.00  0.00    -0.296 N 
ATOM      5  N   UNL     1      32.422 -25.023 -13.786  0.00  0.00    -0.283 N 
ATOM      6  C   UNL     1      31.503 -23.041 -16.621  0.00  0.00    +0.288 C 
ATOM      7  C   UNL     1      30.140 -22.991 -16.420  0.00  0.00    +0.215 C 
ATOM      8  C   UNL     1      29.559 -23.629 -15.332  0.00  0.00    +0.196 C 
ATOM      9  C   UNL     1      31.603 -24.317 -14.697  0.00  0.00    +0.200 C 
ATOM     10  C   UNL     1      27.951 -22.723 -16.390  0.00  0.00    +0.164 C 
ATOM     11  H   UNL     1      29.148 -21.883 -17.908  0.00  0.00    +0.126 HD
ATOM     12  H   UNL     1      27.551 -23.800 -14.668  0.00  0.00    +0.150 HD
ATOM     13  H   UNL     1      33.396 -25.060 -13.926  0.00  0.00    +0.156 HD
ATOM     14  H   UNL     1      32.019 -25.478 -13.012  0.00  0.00    +0.156 HD
ENDROOT
BRANCH   6  15
ATOM     15  O   UNL     1      32.130 -22.428 -17.679  0.00  0.00    -0.453 OA
BRANCH  15  16
ATOM     16  C   UNL     1      33.448 -22.847 -17.976  0.00  0.00    +0.208 C 
BRANCH  16  17
ATOM     17  C   UNL     1      33.905 -22.141 -19.251  0.00  0.00    +0.044 C 
ATOM     18  C   UNL     1      32.997 -20.945 -19.564  0.00  0.00    +0.004 C 
ATOM     19  C   UNL     1      35.370 -21.698 -19.131  0.00  0.00    +0.004 C 
ATOM     20  C   UNL     1      33.465 -20.192 -20.807  0.00  0.00    +0.000 C 
ATOM     21  C   UNL     1      35.834 -20.943 -20.375  0.00  0.00    +0.000 C 
ATOM     22  C   UNL     1      34.923 -19.760 -20.687  0.00  0.00    +0.000 C 
ENDBRANCH  16  17
ENDBRANCH  15  16
ENDBRANCH   6  15
TORSDOF 3
ENDMDL
MODEL 2
REMARK VINA RESULT:      -9.2      2.665      4.292
REMARK  Name = 4564
REMARK  3 active torsions:
REMARK  status: ('A' for Active; 'I' for Inactive)
REMARK    1  A    between atoms: C_6  and  O_15
REMARK    2  A    between atoms: O_15  and  C_16
REMARK    3  A    between atoms: C_16  and  C_17
REMARK                            x       y       z     vdW  Elec       q    Type
REMARK                         _______ _______ _______ _____ _____    ______ ____
ROOT
ATOM      1  N   UNL     1      33.319 -23.146 -15.332  0.00  0.00    -0.293 NA
ATOM      2  N   UNL     1      36.539 -24.913 -15.517  0.00  0.00    -0.266 NA
ATOM      3  N   UNL     1      33.964 -24.263 -13.261  0.00  0.00    -0.316 NA
ATOM      4  N   UNL     1      36.094 -25.427 -13.394  0.00  0.00    -0.296 N 
ATOM      5  N   UNL     1      31.962 -23.063 -13.425  0.00  0.00    -0.283 N 
ATOM      6  C   UNL     1      34.444 -23.560 -15.955  0.00  0.00    +0.288 C 
ATOM      7  C   UNL     1      35.336 -24.329 -15.238  0.00  0.00    +0.215 C 
ATOM      8  C   UNL     1      35.081 -24.663 -13.915  0.00  0.00    +0.196 C 
ATOM      9  C   UNL     1      33.151 -23.518 -14.040  0.00  0.00    +0.200 C 
ATOM     10  C   UNL     1      36.954 -25.559 -14.382  0.00  0.00    +0.164 C 
ATOM     11  H   UNL     1      37.020 -24.876 -16.375  0.00  0.00    +0.126 HD
ATOM     12  H   UNL     1      36.163 -25.796 -12.484  0.00  0.00    +0.150 HD
ATOM     13  H   UNL     1      31.322 -22.515 -13.934  0.00  0.00    +0.156 HD
ATOM     14  H   UNL     1      31.773 -23.296 -12.487  0.00  0.00    +0.156 HD
ENDROOT
BRANCH   6  15
ATOM     15  O   UNL     1      34.645 -23.201 -17.266  0.00  0.00    -0.453 OA
BRANCH  15  16
ATOM     16  C   UNL     1      33.495 -22.897 -18.033  0.00  0.00    +0.208 C 
BRANCH  16  17
ATOM     17  C   UNL     1      33.936 -22.156 -19.294  0.00  0.00    +0.044 C 
ATOM     18  C   UNL     1      33.007 -20.969 -19.578  0.00  0.00    +0.004 C 
ATOM     19  C   UNL     1      35.394 -21.691 -19.168  0.00  0.00    +0.004 C 
ATOM     20  C   UNL     1      33.459 -20.181 -20.806  0.00  0.00    +0.000 C 
ATOM     21  C   UNL     1      35.842 -20.901 -20.396  0.00  0.00    +0.000 C 
ATOM     22  C   UNL     1      34.910 -19.727 -20.680  0.00  0.00    +0.000 C 
ENDBRANCH  16  17
ENDBRANCH  15  16
ENDBRANCH   6  15
TORSDOF 3
ENDMDL
MODEL 3
REMARK VINA RESULT:      -9.0      1.208      1.831
REMARK  Name = 4564
REMARK  3 active torsions:
REMARK  status: ('A' for Active; 'I' for Inactive)
REMARK    1  A    between atoms: C_6  and  O_15
REMARK    2  A    between atoms: O_15  and  C_16
REMARK    3  A    between atoms: C_16  and  C_17
REMARK                            x       y       z     vdW  Elec       q    Type
REMARK                         _______ _______ _______ _____ _____    ______ ____
ROOT
ATOM      1  N   UNL     1      33.508 -23.335 -16.511  0.00  0.00    -0.293 NA
ATOM      2  N   UNL     1      29.959 -22.496 -16.982  0.00  0.00    -0.266 NA
ATOM      3  N   UNL     1      32.130 -23.684 -14.528  0.00  0.00    -0.316 NA
ATOM      4  N   UNL     1      29.786 -23.127 -14.850  0.00  0.00    -0.296 N 
ATOM      5  N   UNL     1      34.425 -24.138 -14.511  0.00  0.00    -0.283 N 
ATOM      6  C   UNL     1      32.446 -22.906 -17.226  0.00  0.00    +0.288 C 
ATOM      7  C   UNL     1      31.218 -22.861 -16.599  0.00  0.00    +0.215 C 
ATOM      8  C   UNL     1      31.085 -23.248 -15.272  0.00  0.00    +0.196 C 
ATOM      9  C   UNL     1      33.288 -23.694 -15.223  0.00  0.00    +0.200 C 
ATOM     10  C   UNL     1      29.135 -22.672 -15.901  0.00  0.00    +0.164 C 
ATOM     11  H   UNL     1      29.692 -22.167 -17.870  0.00  0.00    +0.126 HD
ATOM     12  H   UNL     1      29.421 -23.333 -13.959  0.00  0.00    +0.150 HD
ATOM     13  H   UNL     1      35.303 -24.171 -14.955  0.00  0.00    +0.156 HD
ATOM     14  H   UNL     1      34.340 -24.414 -13.570  0.00  0.00    +0.156 HD
ENDROOT
BRANCH   6  15
ATOM     15  O   UNL     1      32.635 -22.534 -18.535  0.00  0.00    -0.453 OA
BRANCH  15  16
ATOM     16  C   UNL     1      33.960 -22.576 -19.030  0.00  0.00    +0.208 C 
BRANCH  16  17
ATOM     17  C   UNL     1      34.349 -21.174 -19.494  0.00  0.00    +0.044 C 
ATOM     18  C   UNL     1      35.730 -21.187 -20.161  0.00  0.00    +0.004 C 
ATOM     19  C   UNL     1      33.287 -20.604 -20.446  0.00  0.00    +0.004 C 
ATOM     20  C   UNL     1      36.118 -19.805 -20.681  0.00  0.00    +0.000 C 
ATOM     21  C   UNL     1      33.681 -19.222 -20.966  0.00  0.00    +0.000 C 
ATOM     22  C   UNL     1      35.058 -19.238 -21.620  0.00  0.00    +0.000 C 
ENDBRANCH  16  17
ENDBRANCH  15  16
ENDBRANCH   6  15
TORSDOF 3
ENDMDL
MODEL 4
REMARK VINA RESULT:      -9.0      6.529      8.988
REMARK  Name = 4564
REMARK  3 active torsions:
REMARK  status: ('A' for Active; 'I' for Inactive)
REMARK    1  A    between atoms: C_6  and  O_15
REMARK    2  A    between atoms: O_15  and  C_16
REMARK    3  A    between atoms: C_16  and  C_17
REMARK                            x       y       z     vdW  Elec       q    Type
REMARK                         _______ _______ _______ _____ _____    ______ ____
ROOT
ATOM      1  N   UNL     1      35.073 -17.153 -23.106  0.00  0.00    -0.293 NA
ATOM      2  N   UNL     1      33.502 -15.167 -20.438  0.00  0.00    -0.266 NA
ATOM      3  N   UNL     1      33.705 -15.301 -23.914  0.00  0.00    -0.316 NA
ATOM      4  N   UNL     1      32.672 -13.995 -22.144  0.00  0.00    -0.296 N 
ATOM      5  N   UNL     1      34.821 -16.728 -25.395  0.00  0.00    -0.283 N 
ATOM      6  C   UNL     1      34.804 -16.844 -21.818  0.00  0.00    +0.288 C 
ATOM      7  C   UNL     1      33.984 -15.764 -21.568  0.00  0.00    +0.215 C 
ATOM      8  C   UNL     1      33.455 -15.019 -22.613  0.00  0.00    +0.196 C 
ATOM      9  C   UNL     1      34.515 -16.373 -24.062  0.00  0.00    +0.200 C 
ATOM     10  C   UNL     1      32.721 -14.112 -20.834  0.00  0.00    +0.164 C 
ATOM     11  H   UNL     1      33.683 -15.442 -19.511  0.00  0.00    +0.126 HD
ATOM     12  H   UNL     1      32.181 -13.323 -22.669  0.00  0.00    +0.150 HD
ATOM     13  H   UNL     1      35.406 -17.499 -25.577  0.00  0.00    +0.156 HD
ATOM     14  H   UNL     1      34.450 -16.206 -26.142  0.00  0.00    +0.156 HD
ENDROOT
BRANCH   6  15
ATOM     15  O   UNL     1      35.354 -17.616 -20.823  0.00  0.00    -0.453 OA
BRANCH  15  16
ATOM     16  C   UNL     1      36.119 -18.736 -21.227  0.00  0.00    +0.208 C 
BRANCH  16  17
ATOM     17  C   UNL     1      35.306 -20.001 -20.954  0.00  0.00    +0.044 C 
ATOM     18  C   UNL     1      35.945 -20.822 -19.827  0.00  0.00    +0.004 C 
ATOM     19  C   UNL     1      33.851 -19.648 -20.616  0.00  0.00    +0.004 C 
ATOM     20  C   UNL     1      35.122 -22.065 -19.499  0.00  0.00    +0.000 C 
ATOM     21  C   UNL     1      33.031 -20.894 -20.286  0.00  0.00    +0.000 C 
ATOM     22  C   UNL     1      33.674 -21.712 -19.172  0.00  0.00    +0.000 C 
ENDBRANCH  16  17
ENDBRANCH  15  16
ENDBRANCH   6  15
TORSDOF 3
ENDMDL
MODEL 5
REMARK VINA RESULT:      -8.9      6.439      9.002
REMARK  Name = 4564
REMARK  3 active torsions:
REMARK  status: ('A' for Active; 'I' for Inactive)
REMARK    1  A    between atoms: C_6  and  O_15
REMARK    2  A    between atoms: O_15  and  C_16
REMARK    3  A    between atoms: C_16  and  C_17
REMARK                            x       y       z     vdW  Elec       q    Type
REMARK                         _______ _______ _______ _____ _____    ______ ____
ROOT
ATOM      1  N   UNL     1      34.337 -16.095 -20.926  0.00  0.00    -0.293 NA
ATOM      2  N   UNL     1      35.108 -17.034 -24.398  0.00  0.00    -0.266 NA
ATOM      3  N   UNL     1      33.137 -14.789 -22.602  0.00  0.00    -0.316 NA
ATOM      4  N   UNL     1      33.653 -15.419 -24.893  0.00  0.00    -0.296 N 
ATOM      5  N   UNL     1      32.837 -14.404 -20.314  0.00  0.00    -0.283 N 
ATOM      6  C   UNL     1      34.965 -16.819 -21.878  0.00  0.00    +0.288 C 
ATOM      7  C   UNL     1      34.686 -16.534 -23.198  0.00  0.00    +0.215 C 
ATOM      8  C   UNL     1      33.783 -15.533 -23.533  0.00  0.00    +0.196 C 
ATOM      9  C   UNL     1      33.473 -15.138 -21.341  0.00  0.00    +0.200 C 
ATOM     10  C   UNL     1      34.462 -16.334 -25.383  0.00  0.00    +0.164 C 
ATOM     11  H   UNL     1      35.756 -17.762 -24.530  0.00  0.00    +0.126 HD
ATOM     12  H   UNL     1      33.083 -14.790 -25.392  0.00  0.00    +0.150 HD
ATOM     13  H   UNL     1      33.035 -14.604 -19.371  0.00  0.00    +0.156 HD
ATOM     14  H   UNL     1      32.197 -13.692 -20.542  0.00  0.00    +0.156 HD
ENDROOT
BRANCH   6  15
ATOM     15  O   UNL     1      35.849 -17.797 -21.491  0.00  0.00    -0.453 OA
BRANCH  15  16
ATOM     16  C   UNL     1      35.521 -19.131 -21.832  0.00  0.00    +0.208 C 
BRANCH  16  17
ATOM     17  C   UNL     1      34.980 -19.830 -20.585  0.00  0.00    +0.044 C 
ATOM     18  C   UNL     1      33.512 -20.227 -20.781  0.00  0.00    +0.004 C 
ATOM     19  C   UNL     1      35.837 -21.055 -20.237  0.00  0.00    +0.004 C 
ATOM     20  C   UNL     1      32.964 -20.974 -19.568  0.00  0.00    +0.000 C 
ATOM     21  C   UNL     1      35.284 -21.802 -19.024  0.00  0.00    +0.000 C 
ATOM     22  C   UNL     1      33.821 -22.187 -19.219  0.00  0.00    +0.000 C 
ENDBRANCH  16  17
ENDBRANCH  15  16
ENDBRANCH   6  15
TORSDOF 3
ENDMDL
MODEL 6
REMARK VINA RESULT:      -8.9      1.691      3.711
REMARK  Name = 4564
REMARK  3 active torsions:
REMARK  status: ('A' for Active; 'I' for Inactive)
REMARK    1  A    between atoms: C_6  and  O_15
REMARK    2  A    between atoms: O_15  and  C_16
REMARK    3  A    between atoms: C_16  and  C_17
REMARK                            x       y       z     vdW  Elec       q    Type
REMARK                         _______ _______ _______ _____ _____    ______ ____
ROOT
ATOM      1  N   UNL     1      32.356 -22.777 -17.490  0.00  0.00    -0.293 NA
ATOM      2  N   UNL     1      35.258 -24.092 -15.652  0.00  0.00    -0.266 NA
ATOM      3  N   UNL     1      31.822 -23.649 -15.275  0.00  0.00    -0.316 NA
ATOM      4  N   UNL     1      33.747 -24.515 -14.068  0.00  0.00    -0.296 N 
ATOM      5  N   UNL     1      30.166 -22.751 -16.661  0.00  0.00    -0.283 N 
ATOM      6  C   UNL     1      33.665 -23.074 -17.338  0.00  0.00    +0.288 C 
ATOM      7  C   UNL     1      34.063 -23.661 -16.155  0.00  0.00    +0.215 C 
ATOM      8  C   UNL     1      33.141 -23.935 -15.154  0.00  0.00    +0.196 C 
ATOM      9  C   UNL     1      31.526 -23.078 -16.463  0.00  0.00    +0.200 C 
ATOM     10  C   UNL     1      35.018 -24.595 -14.401  0.00  0.00    +0.164 C 
ATOM     11  H   UNL     1      36.130 -24.048 -16.105  0.00  0.00    +0.126 HD
ATOM     12  H   UNL     1      33.325 -24.807 -13.228  0.00  0.00    +0.150 HD
ATOM     13  H   UNL     1      29.878 -22.332 -17.505  0.00  0.00    +0.156 HD
ATOM     14  H   UNL     1      29.505 -22.942 -15.957  0.00  0.00    +0.156 HD
ENDROOT
BRANCH   6  15
ATOM     15  O   UNL     1      34.534 -22.782 -18.362  0.00  0.00    -0.453 OA
BRANCH  15  16
ATOM     16  C   UNL     1      33.969 -22.303 -19.567  0.00  0.00    +0.208 C 
BRANCH  16  17
ATOM     17  C   UNL     1      34.482 -20.886 -19.813  0.00  0.00    +0.044 C 
ATOM     18  C   UNL     1      35.929 -20.914 -20.323  0.00  0.00    +0.004 C 
ATOM     19  C   UNL     1      33.569 -20.142 -20.798  0.00  0.00    +0.004 C 
ATOM     20  C   UNL     1      36.447 -19.510 -20.626  0.00  0.00    +0.000 C 
ATOM     21  C   UNL     1      34.092 -18.739 -21.101  0.00  0.00    +0.000 C 
ATOM     22  C   UNL     1      35.533 -18.771 -21.599  0.00  0.00    +0.000 C 
ENDBRANCH  16  17
ENDBRANCH  15  16
ENDBRANCH   6  15
TORSDOF 3
ENDMDL
MODEL 7
REMARK VINA RESULT:      -8.8      7.137      9.902
REMARK  Name = 4564
REMARK  3 active torsions:
REMARK  status: ('A' for Active; 'I' for Inactive)
REMARK    1  A    between atoms: C_6  and  O_15
REMARK    2  A    between atoms: O_15  and  C_16
REMARK    3  A    between atoms: C_16  and  C_17
REMARK                            x       y       z     vdW  Elec       q    Type
REMARK                         _______ _______ _______ _____ _____    ______ ____
ROOT
ATOM      1  N   UNL     1      33.902 -15.598 -22.115  0.00  0.00    -0.293 NA
ATOM      2  N   UNL     1      33.961 -15.957 -25.775  0.00  0.00    -0.266 NA
ATOM      3  N   UNL     1      32.724 -13.827 -23.310  0.00  0.00    -0.316 NA
ATOM      4  N   UNL     1      32.769 -14.074 -25.728  0.00  0.00    -0.296 N 
ATOM      5  N   UNL     1      32.844 -13.848 -20.973  0.00  0.00    -0.283 N 
ATOM      6  C   UNL     1      34.238 -16.213 -23.270  0.00  0.00    +0.288 C 
ATOM      7  C   UNL     1      33.821 -15.640 -24.454  0.00  0.00    +0.215 C 
ATOM      8  C   UNL     1      33.077 -14.467 -24.451  0.00  0.00    +0.196 C 
ATOM      9  C   UNL     1      33.175 -14.459 -22.205  0.00  0.00    +0.200 C 
ATOM     10  C   UNL     1      33.315 -14.990 -26.499  0.00  0.00    +0.164 C 
ATOM     11  H   UNL     1      34.439 -16.736 -26.139  0.00  0.00    +0.126 HD
ATOM     12  H   UNL     1      32.254 -13.282 -26.006  0.00  0.00    +0.150 HD
ATOM     13  H   UNL     1      33.140 -14.254 -20.127  0.00  0.00    +0.156 HD
ATOM     14  H   UNL     1      32.317 -13.017 -20.962  0.00  0.00    +0.156 HD
ENDROOT
BRANCH   6  15
ATOM     15  O   UNL     1      34.975 -17.370 -23.215  0.00  0.00    -0.453 OA
BRANCH  15  16
ATOM     16  C   UNL     1      35.532 -17.718 -21.962  0.00  0.00    +0.208 C 
BRANCH  16  17
ATOM     17  C   UNL     1      35.069 -19.129 -21.601  0.00  0.00    +0.044 C 
ATOM     18  C   UNL     1      36.067 -19.800 -20.649  0.00  0.00    +0.004 C 
ATOM     19  C   UNL     1      33.663 -19.097 -20.986  0.00  0.00    +0.004 C 
ATOM     20  C   UNL     1      35.599 -21.192 -20.233  0.00  0.00    +0.000 C 
ATOM     21  C   UNL     1      33.199 -20.491 -20.568  0.00  0.00    +0.000 C 
ATOM     22  C   UNL     1      34.198 -21.159 -19.629  0.00  0.00    +0.000 C 
ENDBRANCH  16  17
ENDBRANCH  15  16
ENDBRANCH   6  15
TORSDOF 3
ENDMDL
MODEL 8
REMARK VINA RESULT:      -8.8      2.361      3.671
REMARK  Name = 4564
REMARK  3 active torsions:
REMARK  status: ('A' for Active; 'I' for Inactive)
REMARK    1  A    between atoms: C_6  and  O_15
REMARK    2  A    between atoms: O_15  and  C_16
REMARK    3  A    between atoms: C_16  and  C_17
REMARK                            x       y       z     vdW  Elec       q    Type
REMARK                         _______ _______ _______ _____ _____    ______ ____
ROOT
ATOM      1  N   UNL     1      35.426 -23.156 -16.649  0.00  0.00    -0.293 NA
ATOM      2  N   UNL     1      32.166 -23.894 -15.115  0.00  0.00    -0.266 NA
ATOM      3  N   UNL     1      35.573 -24.208 -14.453  0.00  0.00    -0.316 NA
ATOM      4  N   UNL     1      33.413 -24.692 -13.448  0.00  0.00    -0.296 N 
ATOM      5  N   UNL     1      37.494 -23.629 -15.657  0.00  0.00    -0.283 N 
ATOM      6  C   UNL     1      34.076 -23.174 -16.615  0.00  0.00    +0.288 C 
ATOM      7  C   UNL     1      33.464 -23.708 -15.501  0.00  0.00    +0.215 C 
ATOM      8  C   UNL     1      34.218 -24.211 -14.449  0.00  0.00    +0.196 C 
ATOM      9  C   UNL     1      36.083 -23.667 -15.581  0.00  0.00    +0.200 C 
ATOM     10  C   UNL     1      32.187 -24.487 -13.880  0.00  0.00    +0.164 C 
ATOM     11  H   UNL     1      31.365 -23.649 -15.630  0.00  0.00    +0.126 HD
ATOM     12  H   UNL     1      33.690 -25.100 -12.596  0.00  0.00    +0.150 HD
ATOM     13  H   UNL     1      37.934 -23.248 -16.450  0.00  0.00    +0.156 HD
ATOM     14  H   UNL     1      38.037 -23.983 -14.916  0.00  0.00    +0.156 HD
ENDROOT
BRANCH   6  15
ATOM     15  O   UNL     1      33.379 -22.662 -17.683  0.00  0.00    -0.453 OA
BRANCH  15  16
ATOM     16  C   UNL     1      34.004 -22.731 -18.950  0.00  0.00    +0.208 C 
BRANCH  16  17
ATOM     17  C   UNL     1      34.249 -21.307 -19.447  0.00  0.00    +0.044 C 
ATOM     18  C   UNL     1      35.565 -21.226 -20.231  0.00  0.00    +0.004 C 
ATOM     19  C   UNL     1      33.072 -20.821 -20.303  0.00  0.00    +0.004 C 
ATOM     20  C   UNL     1      35.807 -19.823 -20.782  0.00  0.00    +0.000 C 
ATOM     21  C   UNL     1      33.318 -19.418 -20.855  0.00  0.00    +0.000 C 
ATOM     22  C   UNL     1      34.632 -19.340 -21.627  0.00  0.00    +0.000 C 
ENDBRANCH  16  17
ENDBRANCH  15  16
ENDBRANCH   6  15
TORSDOF 3
ENDMDL
MODEL 9
REMARK VINA RESULT:      -8.7      9.895     12.384
REMARK  Name = 4564
REMARK  3 active torsions:
REMARK  status: ('A' for Active; 'I' for Inactive)
REMARK    1  A    between atoms: C_6  and  O_15
REMARK    2  A    between atoms: O_15  and  C_16
REMARK    3  A    between atoms: C_16  and  C_17
REMARK                            x       y       z     vdW  Elec       q    Type
REMARK                         _______ _______ _______ _____ _____    ______ ____
ROOT
ATOM      1  N   UNL     1      32.164 -12.625 -22.624  0.00  0.00    -0.293 NA
ATOM      2  N   UNL     1      34.829 -10.961 -24.535  0.00  0.00    -0.266 NA
ATOM      3  N   UNL     1      32.067 -10.188 -22.557  0.00  0.00    -0.316 NA
ATOM      4  N   UNL     1      33.833  -9.098 -23.823  0.00  0.00    -0.296 N 
ATOM      5  N   UNL     1      30.493 -11.501 -21.429  0.00  0.00    -0.283 N 
ATOM      6  C   UNL     1      33.261 -12.602 -23.411  0.00  0.00    +0.288 C 
ATOM      7  C   UNL     1      33.771 -11.374 -23.777  0.00  0.00    +0.215 C 
ATOM      8  C   UNL     1      33.168 -10.199 -23.346  0.00  0.00    +0.196 C 
ATOM      9  C   UNL     1      31.641 -11.433 -22.251  0.00  0.00    +0.200 C 
ATOM     10  C   UNL     1      34.826  -9.591 -24.533  0.00  0.00    +0.164 C 
ATOM     11  H   UNL     1      35.476 -11.541 -24.998  0.00  0.00    +0.126 HD
ATOM     12  H   UNL     1      33.616  -8.150 -23.668  0.00  0.00    +0.150 HD
ATOM     13  H   UNL     1      30.127 -12.376 -21.166  0.00  0.00    +0.156 HD
ATOM     14  H   UNL     1      30.059 -10.674 -21.118  0.00  0.00    +0.156 HD
ENDROOT
BRANCH   6  15
ATOM     15  O   UNL     1      33.818 -13.794 -23.808  0.00  0.00    -0.453 OA
BRANCH  15  16
ATOM     16  C   UNL     1      34.414 -14.591 -22.802  0.00  0.00    +0.208 C 
BRANCH  16  17
ATOM     17  C   UNL     1      34.963 -15.860 -23.452  0.00  0.00    +0.044 C 
ATOM     18  C   UNL     1      35.082 -16.989 -22.420  0.00  0.00    +0.004 C 
ATOM     19  C   UNL     1      34.082 -16.289 -24.633  0.00  0.00    +0.004 C 
ATOM     20  C   UNL     1      35.580 -18.284 -23.058  0.00  0.00    +0.000 C 
ATOM     21  C   UNL     1      34.581 -17.586 -25.266  0.00  0.00    +0.000 C 
ATOM     22  C   UNL     1      34.707 -18.703 -24.236  0.00  0.00    +0.000 C 
ENDBRANCH  16  17
ENDBRANCH  15  16
ENDBRANCH   6  15
TORSDOF 3
ENDMDL
