MODEL 1
REMARK VINA RESULT:      -8.1      0.000      0.000
REMARK  Name = 129236
REMARK  5 active torsions:
REMARK  status: ('A' for Active; 'I' for Inactive)
REMARK    1  A    between atoms: S_1  and  C_6
REMARK    2  A    between atoms: S_1  and  N_15
REMARK    3  A    between atoms: N_15  and  C_17
REMARK    4  A    between atoms: C_17  and  C_18
REMARK    5  A    between atoms: C_18  and  N_19
REMARK                            x       y       z     vdW  Elec       q    Type
REMARK                         _______ _______ _______ _____ _____    ______ ____
ROOT
ATOM      1  S   UNL     1      35.369 -18.590 -22.236  0.00  0.00    +0.060 S 
ATOM      2  O   UNL     1      34.687 -19.498 -23.145  0.00  0.00    -0.153 OA
ATOM      3  O   UNL     1      36.789 -18.330 -22.409  0.00  0.00    -0.153 OA
ENDROOT
BRANCH   1   6
ATOM      4 CL   UNL     1      32.420 -13.053 -22.037  0.00  0.00    -0.082 Cl
ATOM      5  N   UNL     1      34.173 -16.351 -25.909  0.00  0.00    -0.242 NA
ATOM      6  C   UNL     1      34.543 -17.041 -22.277  0.00  0.00    +0.123 C 
ATOM      7  C   UNL     1      34.201 -16.397 -23.477  0.00  0.00    +0.039 C 
ATOM      8  C   UNL     1      33.538 -15.152 -23.441  0.00  0.00    +0.015 C 
ATOM      9  C   UNL     1      34.233 -16.455 -21.050  0.00  0.00    +0.021 C 
ATOM     10  C   UNL     1      33.232 -14.577 -22.198  0.00  0.00    +0.058 C 
ATOM     11  C   UNL     1      33.578 -15.226 -21.011  0.00  0.00    +0.013 C 
ATOM     12  C   UNL     1      34.488 -16.938 -24.732  0.00  0.00    +0.100 C 
ATOM     13  C   UNL     1      33.204 -14.528 -24.648  0.00  0.00    +0.022 C 
ATOM     14  C   UNL     1      33.540 -15.160 -25.836  0.00  0.00    +0.099 C 
ENDBRANCH   1   6
BRANCH   1  15
ATOM     15  N   UNL     1      35.092 -19.102 -20.631  0.00  0.00    -0.182 NA
ATOM     16  H   UNL     1      34.190 -18.719 -20.352  0.00  0.00    +0.149 HD
BRANCH  15  17
ATOM     17  C   UNL     1      35.062 -20.536 -20.313  0.00  0.00    +0.068 C 
BRANCH  17  18
ATOM     18  C   UNL     1      33.657 -20.925 -19.878  0.00  0.00    -0.067 C 
BRANCH  18  19
ATOM     19  N   UNL     1      32.665 -20.268 -20.721  0.00  0.00    +0.381 N 
ATOM     20  H   UNL     1      32.612 -20.747 -21.620  0.00  0.00    -0.089 HD
ATOM     21  H   UNL     1      32.936 -19.296 -20.868  0.00  0.00    -0.089 HD
ATOM     22  H   UNL     1      31.754 -20.302 -20.264  0.00  0.00    -0.089 HD
ENDBRANCH  18  19
ENDBRANCH  17  18
ENDBRANCH  15  17
ENDBRANCH   1  15
TORSDOF 5
ENDMDL
MODEL 2
REMARK VINA RESULT:      -7.8      2.089      2.909
REMARK  Name = 129236
REMARK  5 active torsions:
REMARK  status: ('A' for Active; 'I' for Inactive)
REMARK    1  A    between atoms: S_1  and  C_6
REMARK    2  A    between atoms: S_1  and  N_15
REMARK    3  A    between atoms: N_15  and  C_17
REMARK    4  A    between atoms: C_17  and  C_18
REMARK    5  A    between atoms: C_18  and  N_19
REMARK                            x       y       z     vdW  Elec       q    Type
REMARK                         _______ _______ _______ _____ _____    ______ ____
ROOT
ATOM      1  S   UNL     1      35.232 -17.741 -21.481  0.00  0.00    +0.060 S 
ATOM      2  O   UNL     1      36.408 -18.480 -21.914  0.00  0.00    -0.153 OA
ATOM      3  O   UNL     1      35.328 -16.834 -20.349  0.00  0.00    -0.153 OA
ENDROOT
BRANCH   1   6
ATOM      4 CL   UNL     1      33.214 -14.666 -26.567  0.00  0.00    -0.082 Cl
ATOM      5  N   UNL     1      32.825 -13.989 -21.244  0.00  0.00    -0.242 NA
ATOM      6  C   UNL     1      34.627 -16.815 -22.845  0.00  0.00    +0.123 C 
ATOM      7  C   UNL     1      33.873 -15.641 -22.689  0.00  0.00    +0.039 C 
ATOM      8  C   UNL     1      33.416 -14.944 -23.826  0.00  0.00    +0.015 C 
ATOM      9  C   UNL     1      34.924 -17.297 -24.120  0.00  0.00    +0.021 C 
ATOM     10  C   UNL     1      33.724 -15.441 -25.102  0.00  0.00    +0.058 C 
ATOM     11  C   UNL     1      34.475 -16.610 -25.246  0.00  0.00    +0.013 C 
ATOM     12  C   UNL     1      33.546 -15.116 -21.436  0.00  0.00    +0.100 C 
ATOM     13  C   UNL     1      32.667 -13.775 -23.648  0.00  0.00    +0.022 C 
ATOM     14  C   UNL     1      32.404 -13.348 -22.356  0.00  0.00    +0.099 C 
ENDBRANCH   1   6
BRANCH   1  15
ATOM     15  N   UNL     1      33.958 -18.842 -21.200  0.00  0.00    -0.182 NA
ATOM     16  H   UNL     1      33.516 -19.016 -22.103  0.00  0.00    +0.149 HD
BRANCH  15  17
ATOM     17  C   UNL     1      34.240 -20.155 -20.605  0.00  0.00    +0.068 C 
BRANCH  17  18
ATOM     18  C   UNL     1      33.007 -20.645 -19.859  0.00  0.00    -0.067 C 
BRANCH  18  19
ATOM     19  N   UNL     1      33.100 -22.079 -19.612  0.00  0.00    +0.381 N 
ATOM     20  H   UNL     1      32.277 -22.389 -19.096  0.00  0.00    -0.089 HD
ATOM     21  H   UNL     1      33.939 -22.275 -19.067  0.00  0.00    -0.089 HD
ATOM     22  H   UNL     1      33.150 -22.574 -20.503  0.00  0.00    -0.089 HD
ENDBRANCH  18  19
ENDBRANCH  17  18
ENDBRANCH  15  17
ENDBRANCH   1  15
TORSDOF 5
ENDMDL
MODEL 3
REMARK VINA RESULT:      -7.7      9.638     11.208
REMARK  Name = 129236
REMARK  5 active torsions:
REMARK  status: ('A' for Active; 'I' for Inactive)
REMARK    1  A    between atoms: S_1  and  C_6
REMARK    2  A    between atoms: S_1  and  N_15
REMARK    3  A    between atoms: N_15  and  C_17
REMARK    4  A    between atoms: C_17  and  C_18
REMARK    5  A    between atoms: C_18  and  N_19
REMARK                            x       y       z     vdW  Elec       q    Type
REMARK                         _______ _______ _______ _____ _____    ______ ____
ROOT
ATOM      1  S   UNL     1      36.244 -24.197 -11.987  0.00  0.00    +0.060 S 
ATOM      2  O   UNL     1      36.821 -22.944 -11.525  0.00  0.00    -0.153 OA
ATOM      3  O   UNL     1      35.423 -24.988 -11.084  0.00  0.00    -0.153 OA
ENDROOT
BRANCH   1   6
ATOM      4 CL   UNL     1      32.530 -23.147 -16.936  0.00  0.00    -0.082 Cl
ATOM      5  N   UNL     1      37.743 -22.444 -15.809  0.00  0.00    -0.242 NA
ATOM      6  C   UNL     1      35.282 -23.870 -13.418  0.00  0.00    +0.123 C 
ATOM      7  C   UNL     1      35.829 -23.313 -14.587  0.00  0.00    +0.039 C 
ATOM      8  C   UNL     1      35.001 -23.074 -15.703  0.00  0.00    +0.015 C 
ATOM      9  C   UNL     1      33.925 -24.185 -13.357  0.00  0.00    +0.021 C 
ATOM     10  C   UNL     1      33.637 -23.398 -15.625  0.00  0.00    +0.058 C 
ATOM     11  C   UNL     1      33.105 -23.950 -14.458  0.00  0.00    +0.013 C 
ATOM     12  C   UNL     1      37.180 -22.979 -14.702  0.00  0.00    +0.100 C 
ATOM     13  C   UNL     1      35.565 -22.521 -16.859  0.00  0.00    +0.022 C 
ATOM     14  C   UNL     1      36.921 -22.229 -16.858  0.00  0.00    +0.099 C 
ENDBRANCH   1   6
BRANCH   1  15
ATOM     15  N   UNL     1      37.490 -25.185 -12.608  0.00  0.00    -0.182 NA
ATOM     16  H   UNL     1      38.199 -25.257 -11.878  0.00  0.00    +0.149 HD
BRANCH  15  17
ATOM     17  C   UNL     1      37.192 -26.554 -13.048  0.00  0.00    +0.068 C 
BRANCH  17  18
ATOM     18  C   UNL     1      37.436 -26.666 -14.546  0.00  0.00    -0.067 C 
BRANCH  18  19
ATOM     19  N   UNL     1      36.178 -26.884 -15.249  0.00  0.00    +0.381 N 
ATOM     20  H   UNL     1      35.546 -27.424 -14.657  0.00  0.00    -0.089 HD
ATOM     21  H   UNL     1      36.356 -27.397 -16.112  0.00  0.00    -0.089 HD
ATOM     22  H   UNL     1      35.751 -25.985 -15.470  0.00  0.00    -0.089 HD
ENDBRANCH  18  19
ENDBRANCH  17  18
ENDBRANCH  15  17
ENDBRANCH   1  15
TORSDOF 5
ENDMDL
MODEL 4
REMARK VINA RESULT:      -7.6      8.606     10.572
REMARK  Name = 129236
REMARK  5 active torsions:
REMARK  status: ('A' for Active; 'I' for Inactive)
REMARK    1  A    between atoms: S_1  and  C_6
REMARK    2  A    between atoms: S_1  and  N_15
REMARK    3  A    between atoms: N_15  and  C_17
REMARK    4  A    between atoms: C_17  and  C_18
REMARK    5  A    between atoms: C_18  and  N_19
REMARK                            x       y       z     vdW  Elec       q    Type
REMARK                         _______ _______ _______ _____ _____    ______ ____
ROOT
ATOM      1  S   UNL     1      35.180 -24.240 -13.261  0.00  0.00    +0.060 S 
ATOM      2  O   UNL     1      36.096 -23.123 -13.436  0.00  0.00    -0.153 OA
ATOM      3  O   UNL     1      34.737 -24.606 -11.926  0.00  0.00    -0.153 OA
ENDROOT
BRANCH   1   6
ATOM      4 CL   UNL     1      29.858 -23.243 -16.435  0.00  0.00    -0.082 Cl
ATOM      5  N   UNL     1      35.115 -22.823 -17.494  0.00  0.00    -0.242 NA
ATOM      6  C   UNL     1      33.745 -23.936 -14.225  0.00  0.00    +0.123 C 
ATOM      7  C   UNL     1      33.807 -23.488 -15.555  0.00  0.00    +0.039 C 
ATOM      8  C   UNL     1      32.615 -23.262 -16.275  0.00  0.00    +0.015 C 
ATOM      9  C   UNL     1      32.511 -24.155 -13.613  0.00  0.00    +0.021 C 
ATOM     10  C   UNL     1      31.382 -23.489 -15.645  0.00  0.00    +0.058 C 
ATOM     11  C   UNL     1      31.332 -23.933 -14.322  0.00  0.00    +0.013 C 
ATOM     12  C   UNL     1      35.015 -23.252 -16.216  0.00  0.00    +0.100 C 
ATOM     13  C   UNL     1      32.699 -22.818 -17.600  0.00  0.00    +0.022 C 
ATOM     14  C   UNL     1      33.955 -22.617 -18.153  0.00  0.00    +0.099 C 
ENDBRANCH   1   6
BRANCH   1  15
ATOM     15  N   UNL     1      35.839 -25.619 -14.022  0.00  0.00    -0.182 NA
ATOM     16  H   UNL     1      35.942 -25.388 -15.010  0.00  0.00    +0.149 HD
BRANCH  15  17
ATOM     17  C   UNL     1      37.130 -26.159 -13.575  0.00  0.00    +0.068 C 
BRANCH  17  18
ATOM     18  C   UNL     1      38.138 -26.057 -14.709  0.00  0.00    -0.067 C 
BRANCH  18  19
ATOM     19  N   UNL     1      38.211 -24.686 -15.200  0.00  0.00    +0.381 N 
ATOM     20  H   UNL     1      37.915 -24.658 -16.176  0.00  0.00    -0.089 HD
ATOM     21  H   UNL     1      39.171 -24.350 -15.126  0.00  0.00    -0.089 HD
ATOM     22  H   UNL     1      37.599 -24.092 -14.642  0.00  0.00    -0.089 HD
ENDBRANCH  18  19
ENDBRANCH  17  18
ENDBRANCH  15  17
ENDBRANCH   1  15
TORSDOF 5
ENDMDL
MODEL 5
REMARK VINA RESULT:      -7.6      3.984      5.970
REMARK  Name = 129236
REMARK  5 active torsions:
REMARK  status: ('A' for Active; 'I' for Inactive)
REMARK    1  A    between atoms: S_1  and  C_6
REMARK    2  A    between atoms: S_1  and  N_15
REMARK    3  A    between atoms: N_15  and  C_17
REMARK    4  A    between atoms: C_17  and  C_18
REMARK    5  A    between atoms: C_18  and  N_19
REMARK                            x       y       z     vdW  Elec       q    Type
REMARK                         _______ _______ _______ _____ _____    ______ ____
ROOT
ATOM      1  S   UNL     1      32.938 -13.279 -23.162  0.00  0.00    +0.060 S 
ATOM      2  O   UNL     1      32.005 -13.625 -24.223  0.00  0.00    -0.153 OA
ATOM      3  O   UNL     1      32.453 -12.605 -21.968  0.00  0.00    -0.153 OA
ENDROOT
BRANCH   1   6
ATOM      4 CL   UNL     1      35.854 -18.390 -20.980  0.00  0.00    -0.082 Cl
ATOM      5  N   UNL     1      34.119 -16.695 -25.782  0.00  0.00    -0.242 NA
ATOM      6  C   UNL     1      33.754 -14.743 -22.642  0.00  0.00    +0.123 C 
ATOM      7  C   UNL     1      34.093 -15.778 -23.529  0.00  0.00    +0.039 C 
ATOM      8  C   UNL     1      34.749 -16.930 -23.047  0.00  0.00    +0.015 C 
ATOM      9  C   UNL     1      34.062 -14.851 -21.285  0.00  0.00    +0.021 C 
ATOM     10  C   UNL     1      35.052 -17.022 -21.680  0.00  0.00    +0.058 C 
ATOM     11  C   UNL     1      34.710 -15.987 -20.806  0.00  0.00    +0.013 C 
ATOM     12  C   UNL     1      33.808 -15.722 -24.896  0.00  0.00    +0.100 C 
ATOM     13  C   UNL     1      35.079 -17.948 -23.949  0.00  0.00    +0.022 C 
ATOM     14  C   UNL     1      34.746 -17.783 -25.285  0.00  0.00    +0.099 C 
ENDBRANCH   1   6
BRANCH   1  15
ATOM     15  N   UNL     1      34.220 -12.369 -23.827  0.00  0.00    -0.182 NA
ATOM     16  H   UNL     1      34.799 -13.021 -24.356  0.00  0.00    +0.149 HD
BRANCH  15  17
ATOM     17  C   UNL     1      33.933 -11.237 -24.719  0.00  0.00    +0.068 C 
BRANCH  17  18
ATOM     18  C   UNL     1      34.002  -9.941 -23.925  0.00  0.00    -0.067 C 
BRANCH  18  19
ATOM     19  N   UNL     1      32.736  -9.695 -23.245  0.00  0.00    +0.381 N 
ATOM     20  H   UNL     1      32.267 -10.583 -23.069  0.00  0.00    -0.089 HD
ATOM     21  H   UNL     1      32.144  -9.108 -23.833  0.00  0.00    -0.089 HD
ATOM     22  H   UNL     1      32.912  -9.221 -22.360  0.00  0.00    -0.089 HD
ENDBRANCH  18  19
ENDBRANCH  17  18
ENDBRANCH  15  17
ENDBRANCH   1  15
TORSDOF 5
ENDMDL
MODEL 6
REMARK VINA RESULT:      -7.5      8.368     10.337
REMARK  Name = 129236
REMARK  5 active torsions:
REMARK  status: ('A' for Active; 'I' for Inactive)
REMARK    1  A    between atoms: S_1  and  C_6
REMARK    2  A    between atoms: S_1  and  N_15
REMARK    3  A    between atoms: N_15  and  C_17
REMARK    4  A    between atoms: C_17  and  C_18
REMARK    5  A    between atoms: C_18  and  N_19
REMARK                            x       y       z     vdW  Elec       q    Type
REMARK                         _______ _______ _______ _____ _____    ______ ____
ROOT
ATOM      1  S   UNL     1      37.272 -23.329 -14.642  0.00  0.00    +0.060 S 
ATOM      2  O   UNL     1      37.651 -22.246 -15.536  0.00  0.00    -0.153 OA
ATOM      3  O   UNL     1      37.657 -23.275 -13.241  0.00  0.00    -0.153 OA
ENDROOT
BRANCH   1   6
ATOM      4 CL   UNL     1      31.041 -24.071 -14.515  0.00  0.00    -0.082 Cl
ATOM      5  N   UNL     1      34.671 -22.567 -18.189  0.00  0.00    -0.242 NA
ATOM      6  C   UNL     1      35.527 -23.510 -14.699  0.00  0.00    +0.123 C 
ATOM      7  C   UNL     1      34.776 -23.249 -15.857  0.00  0.00    +0.039 C 
ATOM      8  C   UNL     1      33.375 -23.413 -15.837  0.00  0.00    +0.015 C 
ATOM      9  C   UNL     1      34.893 -23.929 -13.529  0.00  0.00    +0.021 C 
ATOM     10  C   UNL     1      32.754 -23.837 -14.652  0.00  0.00    +0.058 C 
ATOM     11  C   UNL     1      33.510 -24.093 -13.506  0.00  0.00    +0.013 C 
ATOM     12  C   UNL     1      35.359 -22.827 -17.054  0.00  0.00    +0.100 C 
ATOM     13  C   UNL     1      32.646 -23.150 -17.002  0.00  0.00    +0.022 C 
ATOM     14  C   UNL     1      33.333 -22.735 -18.133  0.00  0.00    +0.099 C 
ENDBRANCH   1   6
BRANCH   1  15
ATOM     15  N   UNL     1      37.809 -24.808 -15.305  0.00  0.00    -0.182 NA
ATOM     16  H   UNL     1      38.547 -24.580 -15.971  0.00  0.00    +0.149 HD
BRANCH  15  17
ATOM     17  C   UNL     1      38.340 -25.858 -14.426  0.00  0.00    +0.068 C 
BRANCH  17  18
ATOM     18  C   UNL     1      37.230 -26.844 -14.091  0.00  0.00    -0.067 C 
BRANCH  18  19
ATOM     19  N   UNL     1      36.275 -26.923 -15.191  0.00  0.00    +0.381 N 
ATOM     20  H   UNL     1      35.439 -26.389 -14.954  0.00  0.00    -0.089 HD
ATOM     21  H   UNL     1      36.023 -27.898 -15.351  0.00  0.00    -0.089 HD
ATOM     22  H   UNL     1      36.697 -26.537 -16.035  0.00  0.00    -0.089 HD
ENDBRANCH  18  19
ENDBRANCH  17  18
ENDBRANCH  15  17
ENDBRANCH   1  15
TORSDOF 5
ENDMDL
MODEL 7
REMARK VINA RESULT:      -7.5      9.980     11.278
REMARK  Name = 129236
REMARK  5 active torsions:
REMARK  status: ('A' for Active; 'I' for Inactive)
REMARK    1  A    between atoms: S_1  and  C_6
REMARK    2  A    between atoms: S_1  and  N_15
REMARK    3  A    between atoms: N_15  and  C_17
REMARK    4  A    between atoms: C_17  and  C_18
REMARK    5  A    between atoms: C_18  and  N_19
REMARK                            x       y       z     vdW  Elec       q    Type
REMARK                         _______ _______ _______ _____ _____    ______ ____
ROOT
ATOM      1  S   UNL     1      35.905 -24.014 -12.733  0.00  0.00    +0.060 S 
ATOM      2  O   UNL     1      37.202 -23.353 -12.744  0.00  0.00    -0.153 OA
ATOM      3  O   UNL     1      34.967 -23.742 -11.656  0.00  0.00    -0.153 OA
ENDROOT
BRANCH   1   6
ATOM      4 CL   UNL     1      33.286 -22.629 -18.266  0.00  0.00    -0.082 Cl
ATOM      5  N   UNL     1      31.546 -24.533 -13.545  0.00  0.00    -0.242 NA
ATOM      6  C   UNL     1      35.087 -23.653 -14.244  0.00  0.00    +0.123 C 
ATOM      7  C   UNL     1      33.708 -23.845 -14.423  0.00  0.00    +0.039 C 
ATOM      8  C   UNL     1      33.111 -23.536 -15.663  0.00  0.00    +0.015 C 
ATOM      9  C   UNL     1      35.871 -23.160 -15.288  0.00  0.00    +0.021 C 
ATOM     10  C   UNL     1      33.913 -23.040 -16.703  0.00  0.00    +0.058 C 
ATOM     11  C   UNL     1      35.284 -22.854 -16.514  0.00  0.00    +0.013 C 
ATOM     12  C   UNL     1      32.877 -24.336 -13.412  0.00  0.00    +0.100 C 
ATOM     13  C   UNL     1      31.734 -23.733 -15.820  0.00  0.00    +0.022 C 
ATOM     14  C   UNL     1      31.010 -24.227 -14.746  0.00  0.00    +0.099 C 
ENDBRANCH   1   6
BRANCH   1  15
ATOM     15  N   UNL     1      36.142 -25.701 -12.846  0.00  0.00    -0.182 NA
ATOM     16  H   UNL     1      35.481 -26.044 -13.542  0.00  0.00    +0.149 HD
BRANCH  15  17
ATOM     17  C   UNL     1      37.461 -26.234 -13.213  0.00  0.00    +0.068 C 
BRANCH  17  18
ATOM     18  C   UNL     1      37.466 -26.589 -14.693  0.00  0.00    -0.067 C 
BRANCH  18  19
ATOM     19  N   UNL     1      36.122 -26.938 -15.135  0.00  0.00    +0.381 N 
ATOM     20  H   UNL     1      36.167 -27.357 -16.064  0.00  0.00    -0.089 HD
ATOM     21  H   UNL     1      35.546 -26.097 -15.168  0.00  0.00    -0.089 HD
ATOM     22  H   UNL     1      35.712 -27.605 -14.481  0.00  0.00    -0.089 HD
ENDBRANCH  18  19
ENDBRANCH  17  18
ENDBRANCH  15  17
ENDBRANCH   1  15
TORSDOF 5
ENDMDL
MODEL 8
REMARK VINA RESULT:      -7.4     10.071     11.896
REMARK  Name = 129236
REMARK  5 active torsions:
REMARK  status: ('A' for Active; 'I' for Inactive)
REMARK    1  A    between atoms: S_1  and  C_6
REMARK    2  A    between atoms: S_1  and  N_15
REMARK    3  A    between atoms: N_15  and  C_17
REMARK    4  A    between atoms: C_17  and  C_18
REMARK    5  A    between atoms: C_18  and  N_19
REMARK                            x       y       z     vdW  Elec       q    Type
REMARK                         _______ _______ _______ _____ _____    ______ ____
ROOT
ATOM      1  S   UNL     1      32.192 -24.045 -13.902  0.00  0.00    +0.060 S 
ATOM      2  O   UNL     1      31.992 -25.483 -13.808  0.00  0.00    -0.153 OA
ATOM      3  O   UNL     1      31.949 -23.206 -12.739  0.00  0.00    -0.153 OA
ENDROOT
BRANCH   1   6
ATOM      4 CL   UNL     1      37.960 -22.858 -16.074  0.00  0.00    -0.082 Cl
ATOM      5  N   UNL     1      35.889 -24.914 -11.555  0.00  0.00    -0.242 NA
ATOM      6  C   UNL     1      33.841 -23.748 -14.426  0.00  0.00    +0.123 C 
ATOM      7  C   UNL     1      34.956 -24.049 -13.627  0.00  0.00    +0.039 C 
ATOM      8  C   UNL     1      36.256 -23.785 -14.108  0.00  0.00    +0.015 C 
ATOM      9  C   UNL     1      34.013 -23.189 -15.693  0.00  0.00    +0.021 C 
ATOM     10  C   UNL     1      36.411 -23.223 -15.385  0.00  0.00    +0.058 C 
ATOM     11  C   UNL     1      35.295 -22.928 -16.171  0.00  0.00    +0.013 C 
ATOM     12  C   UNL     1      34.841 -24.609 -12.353  0.00  0.00    +0.100 C 
ATOM     13  C   UNL     1      37.353 -24.093 -13.297  0.00  0.00    +0.022 C 
ATOM     14  C   UNL     1      37.118 -24.648 -12.047  0.00  0.00    +0.099 C 
ENDBRANCH   1   6
BRANCH   1  15
ATOM     15  N   UNL     1      31.283 -23.444 -15.215  0.00  0.00    -0.182 NA
ATOM     16  H   UNL     1      31.397 -24.109 -15.980  0.00  0.00    +0.149 HD
BRANCH  15  17
ATOM     17  C   UNL     1      29.840 -23.213 -15.066  0.00  0.00    +0.068 C 
BRANCH  17  18
ATOM     18  C   UNL     1      29.081 -24.444 -15.539  0.00  0.00    -0.067 C 
BRANCH  18  19
ATOM     19  N   UNL     1      28.939 -25.401 -14.448  0.00  0.00    +0.381 N 
ATOM     20  H   UNL     1      29.272 -24.980 -13.581  0.00  0.00    -0.089 HD
ATOM     21  H   UNL     1      29.490 -26.235 -14.655  0.00  0.00    -0.089 HD
ATOM     22  H   UNL     1      27.958 -25.658 -14.347  0.00  0.00    -0.089 HD
ENDBRANCH  18  19
ENDBRANCH  17  18
ENDBRANCH  15  17
ENDBRANCH   1  15
TORSDOF 5
ENDMDL
MODEL 9
REMARK VINA RESULT:      -7.3      9.187     10.518
REMARK  Name = 129236
REMARK  5 active torsions:
REMARK  status: ('A' for Active; 'I' for Inactive)
REMARK    1  A    between atoms: S_1  and  C_6
REMARK    2  A    between atoms: S_1  and  N_15
REMARK    3  A    between atoms: N_15  and  C_17
REMARK    4  A    between atoms: C_17  and  C_18
REMARK    5  A    between atoms: C_18  and  N_19
REMARK                            x       y       z     vdW  Elec       q    Type
REMARK                         _______ _______ _______ _____ _____    ______ ____
ROOT
ATOM      1  S   UNL     1      31.563 -24.054 -14.144  0.00  0.00    +0.060 S 
ATOM      2  O   UNL     1      31.639 -25.503 -14.034  0.00  0.00    -0.153 OA
ATOM      3  O   UNL     1      31.830 -23.227 -12.978  0.00  0.00    -0.153 OA
ENDROOT
BRANCH   1   6
ATOM      4 CL   UNL     1      35.204 -22.167 -18.895  0.00  0.00    -0.082 Cl
ATOM      5  N   UNL     1      35.998 -23.690 -13.797  0.00  0.00    -0.242 NA
ATOM      6  C   UNL     1      32.658 -23.537 -15.415  0.00  0.00    +0.123 C 
ATOM      7  C   UNL     1      34.047 -23.446 -15.228  0.00  0.00    +0.039 C 
ATOM      8  C   UNL     1      34.872 -23.023 -16.290  0.00  0.00    +0.015 C 
ATOM      9  C   UNL     1      32.091 -23.209 -16.647  0.00  0.00    +0.021 C 
ATOM     10  C   UNL     1      34.286 -22.698 -17.523  0.00  0.00    +0.058 C 
ATOM     11  C   UNL     1      32.904 -22.791 -17.698  0.00  0.00    +0.013 C 
ATOM     12  C   UNL     1      34.666 -23.762 -14.016  0.00  0.00    +0.100 C 
ATOM     13  C   UNL     1      36.254 -22.942 -16.083  0.00  0.00    +0.022 C 
ATOM     14  C   UNL     1      36.758 -23.281 -14.836  0.00  0.00    +0.099 C 
ENDBRANCH   1   6
BRANCH   1  15
ATOM     15  N   UNL     1      30.040 -23.627 -14.787  0.00  0.00    -0.182 NA
ATOM     16  H   UNL     1      30.217 -22.988 -15.561  0.00  0.00    +0.149 HD
BRANCH  15  17
ATOM     17  C   UNL     1      29.138 -24.671 -15.294  0.00  0.00    +0.068 C 
BRANCH  17  18
ATOM     18  C   UNL     1      28.468 -24.180 -16.569  0.00  0.00    -0.067 C 
BRANCH  18  19
ATOM     19  N   UNL     1      28.489 -22.723 -16.624  0.00  0.00    +0.381 N 
ATOM     20  H   UNL     1      29.428 -22.388 -16.408  0.00  0.00    -0.089 HD
ATOM     21  H   UNL     1      27.829 -22.348 -15.943  0.00  0.00    -0.089 HD
ATOM     22  H   UNL     1      28.225 -22.414 -17.560  0.00  0.00    -0.089 HD
ENDBRANCH  18  19
ENDBRANCH  17  18
ENDBRANCH  15  17
ENDBRANCH   1  15
TORSDOF 5
ENDMDL
