MODEL 1
REMARK VINA RESULT:      -5.5      0.000      0.000
REMARK  Name = 7244
REMARK  1 active torsions:
REMARK  status: ('A' for Active; 'I' for Inactive)
REMARK    1  A    between atoms: C_2  and  O_8
REMARK                            x       y       z     vdW  Elec       q    Type
REMARK                         _______ _______ _______ _____ _____    ______ ____
ROOT
ATOM      1 BR   UNL     1      34.803 -18.736 -22.008  0.00  0.00    -0.046 Br
ATOM      2  C   UNL     1      33.558 -20.663 -20.273  0.00  0.00    +0.140 C 
ATOM      3  C   UNL     1      34.764 -20.116 -20.708  0.00  0.00    +0.068 C 
ATOM      4  C   UNL     1      33.557 -21.678 -19.315  0.00  0.00    +0.037 C 
ATOM      5  C   UNL     1      35.971 -20.583 -20.188  0.00  0.00    +0.010 C 
ATOM      6  C   UNL     1      34.763 -22.145 -18.794  0.00  0.00    +0.003 C 
ATOM      7  C   UNL     1      35.970 -21.598 -19.230  0.00  0.00    +0.001 C 
ENDROOT
BRANCH   2   8
ATOM      8  O   UNL     1      32.361 -20.229 -20.762  0.00  0.00    -0.505 OA
ATOM      9  H   UNL     1      32.072 -20.508 -21.609  0.00  0.00    +0.292 HD
ENDBRANCH   2   8
TORSDOF 1
ENDMDL
MODEL 2
REMARK VINA RESULT:      -5.4      3.723      4.661
REMARK  Name = 7244
REMARK  1 active torsions:
REMARK  status: ('A' for Active; 'I' for Inactive)
REMARK    1  A    between atoms: C_2  and  O_8
REMARK                            x       y       z     vdW  Elec       q    Type
REMARK                         _______ _______ _______ _____ _____    ______ ____
ROOT
ATOM      1 BR   UNL     1      34.389 -15.434 -20.749  0.00  0.00    -0.046 Br
ATOM      2  C   UNL     1      35.118 -16.958 -23.077  0.00  0.00    +0.140 C 
ATOM      3  C   UNL     1      34.595 -17.008 -21.786  0.00  0.00    +0.068 C 
ATOM      4  C   UNL     1      35.260 -18.131 -23.818  0.00  0.00    +0.037 C 
ATOM      5  C   UNL     1      34.212 -18.231 -21.234  0.00  0.00    +0.010 C 
ATOM      6  C   UNL     1      34.877 -19.354 -23.268  0.00  0.00    +0.003 C 
ATOM      7  C   UNL     1      34.354 -19.404 -21.976  0.00  0.00    +0.001 C 
ENDROOT
BRANCH   2   8
ATOM      8  O   UNL     1      35.502 -15.778 -23.644  0.00  0.00    -0.505 OA
ATOM      9  H   UNL     1      35.032 -14.991 -23.450  0.00  0.00    +0.292 HD
ENDBRANCH   2   8
TORSDOF 1
ENDMDL
MODEL 3
REMARK VINA RESULT:      -5.4      2.672      3.646
REMARK  Name = 7244
REMARK  1 active torsions:
REMARK  status: ('A' for Active; 'I' for Inactive)
REMARK    1  A    between atoms: C_2  and  O_8
REMARK                            x       y       z     vdW  Elec       q    Type
REMARK                         _______ _______ _______ _____ _____    ______ ____
ROOT
ATOM      1 BR   UNL     1      33.814 -22.786 -18.349  0.00  0.00    -0.046 Br
ATOM      2  C   UNL     1      35.455 -20.982 -19.876  0.00  0.00    +0.140 C 
ATOM      3  C   UNL     1      34.152 -21.359 -19.551  0.00  0.00    +0.068 C 
ATOM      4  C   UNL     1      35.675 -19.928 -20.763  0.00  0.00    +0.037 C 
ATOM      5  C   UNL     1      33.069 -20.683 -20.113  0.00  0.00    +0.010 C 
ATOM      6  C   UNL     1      34.593 -19.252 -21.326  0.00  0.00    +0.003 C 
ATOM      7  C   UNL     1      33.290 -19.629 -21.001  0.00  0.00    +0.001 C 
ENDROOT
BRANCH   2   8
ATOM      8  O   UNL     1      36.534 -21.622 -19.343  0.00  0.00    -0.505 OA
ATOM      9  H   UNL     1      37.345 -21.643 -19.812  0.00  0.00    +0.292 HD
ENDBRANCH   2   8
TORSDOF 1
ENDMDL
MODEL 4
REMARK VINA RESULT:      -5.4      1.815      2.535
REMARK  Name = 7244
REMARK  1 active torsions:
REMARK  status: ('A' for Active; 'I' for Inactive)
REMARK    1  A    between atoms: C_2  and  O_8
REMARK                            x       y       z     vdW  Elec       q    Type
REMARK                         _______ _______ _______ _____ _____    ______ ____
ROOT
ATOM      1 BR   UNL     1      35.782 -18.286 -22.030  0.00  0.00    -0.046 Br
ATOM      2  C   UNL     1      35.581 -20.528 -20.239  0.00  0.00    +0.140 C 
ATOM      3  C   UNL     1      34.877 -19.583 -20.984  0.00  0.00    +0.068 C 
ATOM      4  C   UNL     1      34.891 -21.471 -19.477  0.00  0.00    +0.037 C 
ATOM      5  C   UNL     1      33.482 -19.581 -20.970  0.00  0.00    +0.010 C 
ATOM      6  C   UNL     1      33.496 -21.470 -19.462  0.00  0.00    +0.003 C 
ATOM      7  C   UNL     1      32.792 -20.524 -20.208  0.00  0.00    +0.001 C 
ENDROOT
BRANCH   2   8
ATOM      8  O   UNL     1      36.945 -20.556 -20.232  0.00  0.00    -0.505 OA
ATOM      9  H   UNL     1      37.425 -20.179 -20.943  0.00  0.00    +0.292 HD
ENDBRANCH   2   8
TORSDOF 1
ENDMDL
MODEL 5
REMARK VINA RESULT:      -5.3      4.640      5.593
REMARK  Name = 7244
REMARK  1 active torsions:
REMARK  status: ('A' for Active; 'I' for Inactive)
REMARK    1  A    between atoms: C_2  and  O_8
REMARK                            x       y       z     vdW  Elec       q    Type
REMARK                         _______ _______ _______ _____ _____    ______ ____
ROOT
ATOM      1 BR   UNL     1      34.219 -14.496 -23.288  0.00  0.00    -0.046 Br
ATOM      2  C   UNL     1      34.377 -16.879 -24.892  0.00  0.00    +0.140 C 
ATOM      3  C   UNL     1      34.468 -16.349 -23.605  0.00  0.00    +0.068 C 
ATOM      4  C   UNL     1      34.564 -18.246 -25.097  0.00  0.00    +0.037 C 
ATOM      5  C   UNL     1      34.745 -17.184 -22.524  0.00  0.00    +0.010 C 
ATOM      6  C   UNL     1      34.841 -19.083 -24.016  0.00  0.00    +0.003 C 
ATOM      7  C   UNL     1      34.932 -18.551 -22.729  0.00  0.00    +0.001 C 
ENDROOT
BRANCH   2   8
ATOM      8  O   UNL     1      34.107 -16.089 -25.970  0.00  0.00    -0.505 OA
ATOM      9  H   UNL     1      34.807 -15.666 -26.427  0.00  0.00    +0.292 HD
ENDBRANCH   2   8
TORSDOF 1
ENDMDL
MODEL 6
REMARK VINA RESULT:      -5.3      2.022      2.798
REMARK  Name = 7244
REMARK  1 active torsions:
REMARK  status: ('A' for Active; 'I' for Inactive)
REMARK    1  A    between atoms: C_2  and  O_8
REMARK                            x       y       z     vdW  Elec       q    Type
REMARK                         _______ _______ _______ _____ _____    ______ ____
ROOT
ATOM      1 BR   UNL     1      34.206 -22.500 -18.903  0.00  0.00    -0.046 Br
ATOM      2  C   UNL     1      33.919 -20.119 -20.492  0.00  0.00    +0.140 C 
ATOM      3  C   UNL     1      34.815 -20.987 -19.870  0.00  0.00    +0.068 C 
ATOM      4  C   UNL     1      34.394 -19.013 -21.198  0.00  0.00    +0.037 C 
ATOM      5  C   UNL     1      36.187 -20.750 -19.953  0.00  0.00    +0.010 C 
ATOM      6  C   UNL     1      35.765 -18.775 -21.281  0.00  0.00    +0.003 C 
ATOM      7  C   UNL     1      36.662 -19.644 -20.658  0.00  0.00    +0.001 C 
ENDROOT
BRANCH   2   8
ATOM      8  O   UNL     1      32.572 -20.323 -20.430  0.00  0.00    -0.505 OA
ATOM      9  H   UNL     1      32.013 -19.660 -20.075  0.00  0.00    +0.292 HD
ENDBRANCH   2   8
TORSDOF 1
ENDMDL
MODEL 7
REMARK VINA RESULT:      -5.3      3.653      5.009
REMARK  Name = 7244
REMARK  1 active torsions:
REMARK  status: ('A' for Active; 'I' for Inactive)
REMARK    1  A    between atoms: C_2  and  O_8
REMARK                            x       y       z     vdW  Elec       q    Type
REMARK                         _______ _______ _______ _____ _____    ______ ____
ROOT
ATOM      1 BR   UNL     1      35.110 -19.922 -20.747  0.00  0.00    -0.046 Br
ATOM      2  C   UNL     1      35.094 -17.261 -21.840  0.00  0.00    +0.140 C 
ATOM      3  C   UNL     1      35.007 -18.624 -22.125  0.00  0.00    +0.068 C 
ATOM      4  C   UNL     1      35.015 -16.327 -22.873  0.00  0.00    +0.037 C 
ATOM      5  C   UNL     1      34.842 -19.053 -23.441  0.00  0.00    +0.010 C 
ATOM      6  C   UNL     1      34.849 -16.755 -24.190  0.00  0.00    +0.003 C 
ATOM      7  C   UNL     1      34.763 -18.118 -24.474  0.00  0.00    +0.001 C 
ENDROOT
BRANCH   2   8
ATOM      8  O   UNL     1      35.256 -16.810 -20.564  0.00  0.00    -0.505 OA
ATOM      9  H   UNL     1      36.030 -17.029 -20.084  0.00  0.00    +0.292 HD
ENDBRANCH   2   8
TORSDOF 1
ENDMDL
MODEL 8
REMARK VINA RESULT:      -5.2     11.100     11.739
REMARK  Name = 7244
REMARK  1 active torsions:
REMARK  status: ('A' for Active; 'I' for Inactive)
REMARK    1  A    between atoms: C_2  and  O_8
REMARK                            x       y       z     vdW  Elec       q    Type
REMARK                         _______ _______ _______ _____ _____    ______ ____
ROOT
ATOM      1 BR   UNL     1      32.950  -7.718 -22.737  0.00  0.00    -0.046 Br
ATOM      2  C   UNL     1      32.308  -8.907 -20.198  0.00  0.00    +0.140 C 
ATOM      3  C   UNL     1      32.216  -9.032 -21.583  0.00  0.00    +0.068 C 
ATOM      4  C   UNL     1      31.759  -9.888 -19.372  0.00  0.00    +0.037 C 
ATOM      5  C   UNL     1      31.576 -10.136 -22.144  0.00  0.00    +0.010 C 
ATOM      6  C   UNL     1      31.119 -10.994 -19.931  0.00  0.00    +0.003 C 
ATOM      7  C   UNL     1      31.027 -11.117 -21.318  0.00  0.00    +0.001 C 
ENDROOT
BRANCH   2   8
ATOM      8  O   UNL     1      32.927  -7.839 -19.618  0.00  0.00    -0.505 OA
ATOM      9  H   UNL     1      32.469  -7.316 -18.990  0.00  0.00    +0.292 HD
ENDBRANCH   2   8
TORSDOF 1
ENDMDL
MODEL 9
REMARK VINA RESULT:      -5.2      4.559      5.799
REMARK  Name = 7244
REMARK  1 active torsions:
REMARK  status: ('A' for Active; 'I' for Inactive)
REMARK    1  A    between atoms: C_2  and  O_8
REMARK                            x       y       z     vdW  Elec       q    Type
REMARK                         _______ _______ _______ _____ _____    ______ ____
ROOT
ATOM      1 BR   UNL     1      35.630 -18.832 -21.328  0.00  0.00    -0.046 Br
ATOM      2  C   UNL     1      35.082 -16.624 -23.088  0.00  0.00    +0.140 C 
ATOM      3  C   UNL     1      35.107 -17.063 -21.765  0.00  0.00    +0.068 C 
ATOM      4  C   UNL     1      34.693 -15.317 -23.382  0.00  0.00    +0.037 C 
ATOM      5  C   UNL     1      34.743 -16.196 -20.735  0.00  0.00    +0.010 C 
ATOM      6  C   UNL     1      34.329 -14.449 -22.353  0.00  0.00    +0.003 C 
ATOM      7  C   UNL     1      34.354 -14.889 -21.029  0.00  0.00    +0.001 C 
ENDROOT
BRANCH   2   8
ATOM      8  O   UNL     1      35.432 -17.446 -24.118  0.00  0.00    -0.505 OA
ATOM      9  H   UNL     1      36.337 -17.603 -24.306  0.00  0.00    +0.292 HD
ENDBRANCH   2   8
TORSDOF 1
ENDMDL
