MODEL 1
REMARK VINA RESULT:     -11.2      0.000      0.000
REMARK  Name = 5287512
REMARK  2 active torsions:
REMARK  status: ('A' for Active; 'I' for Inactive)
REMARK    1  A    between atoms: C_3  and  C_10
REMARK    2  A    between atoms: C_5  and  C_19
REMARK                            x       y       z     vdW  Elec       q    Type
REMARK                         _______ _______ _______ _____ _____    ______ ____
ROOT
ATOM      1  N   UNL     1      34.362 -16.392 -25.941  0.00  0.00    -0.228 NA
ATOM      2  N   UNL     1      33.854 -15.537 -24.968  0.00  0.00    -0.277 N 
ATOM      3  C   UNL     1      34.547 -17.245 -23.715  0.00  0.00    +0.041 C 
ATOM      4  C   UNL     1      34.800 -17.581 -25.163  0.00  0.00    +0.118 C 
ATOM      5  C   UNL     1      33.963 -16.035 -23.694  0.00  0.00    +0.084 C 
ATOM      6  H   UNL     1      35.149 -15.963 -26.429  0.00  0.00    +0.145 HD
ATOM      7  H   UNL     1      33.455 -14.660 -25.172  0.00  0.00    +0.166 HD
ENDROOT
BRANCH   3  10
ATOM      8  N   UNL     1      33.911 -18.918 -22.130  0.00  0.00    -0.405 NA
ATOM      9  N   UNL     1      35.788 -20.755 -19.591  0.00  0.00    -0.242 NA
ATOM     10  C   UNL     1      34.911 -18.159 -22.628  0.00  0.00    +0.130 C 
ATOM     11  C   UNL     1      36.209 -18.211 -22.170  0.00  0.00    +0.033 C 
ATOM     12  C   UNL     1      34.204 -19.772 -21.130  0.00  0.00    +0.131 C 
ATOM     13  C   UNL     1      35.496 -19.902 -20.591  0.00  0.00    +0.107 C 
ATOM     14  C   UNL     1      36.489 -19.098 -21.138  0.00  0.00    +0.024 C 
ATOM     15  C   UNL     1      33.211 -20.576 -20.584  0.00  0.00    +0.088 C 
ATOM     16  C   UNL     1      33.491 -21.463 -19.552  0.00  0.00    +0.002 C 
ATOM     17  C   UNL     1      34.790 -21.514 -19.093  0.00  0.00    +0.095 C 
ENDBRANCH   3  10
BRANCH   5  19
ATOM     18  N   UNL     1      32.884 -14.068 -22.851  0.00  0.00    -0.409 NA
ATOM     19  C   UNL     1      33.454 -15.264 -22.559  0.00  0.00    +0.127 C 
ATOM     20  C   UNL     1      33.564 -15.761 -21.264  0.00  0.00    +0.086 C 
ATOM     21  C   UNL     1      32.411 -13.347 -21.808  0.00  0.00    +0.109 C 
ATOM     22  C   UNL     1      33.065 -14.992 -20.219  0.00  0.00    -0.016 C 
ATOM     23  C   UNL     1      32.476 -13.761 -20.487  0.00  0.00    +0.023 C 
ATOM     24  C   UNL     1      31.786 -12.033 -22.133  0.00  0.00    +0.066 C 
ENDBRANCH   5  19
TORSDOF 2
ENDMDL
MODEL 2
REMARK VINA RESULT:     -10.5      1.095      6.028
REMARK  Name = 5287512
REMARK  2 active torsions:
REMARK  status: ('A' for Active; 'I' for Inactive)
REMARK    1  A    between atoms: C_3  and  C_10
REMARK    2  A    between atoms: C_5  and  C_19
REMARK                            x       y       z     vdW  Elec       q    Type
REMARK                         _______ _______ _______ _____ _____    ______ ____
ROOT
ATOM      1  N   UNL     1      34.695 -17.184 -25.889  0.00  0.00    -0.228 NA
ATOM      2  N   UNL     1      35.008 -18.086 -24.876  0.00  0.00    -0.277 N 
ATOM      3  C   UNL     1      34.166 -16.393 -23.695  0.00  0.00    +0.041 C 
ATOM      4  C   UNL     1      34.169 -16.004 -25.152  0.00  0.00    +0.118 C 
ATOM      5  C   UNL     1      34.703 -17.623 -23.621  0.00  0.00    +0.084 C 
ATOM      6  H   UNL     1      33.988 -17.569 -26.515  0.00  0.00    +0.145 HD
ATOM      7  H   UNL     1      35.408 -18.969 -25.043  0.00  0.00    +0.166 HD
ENDROOT
BRANCH   3  10
ATOM      8  N   UNL     1      33.070 -14.361 -23.077  0.00  0.00    -0.405 NA
ATOM      9  N   UNL     1      32.181 -12.919 -19.839  0.00  0.00    -0.242 NA
ATOM     10  C   UNL     1      33.654 -15.500 -22.650  0.00  0.00    +0.130 C 
ATOM     11  C   UNL     1      33.782 -15.842 -21.322  0.00  0.00    +0.033 C 
ATOM     12  C   UNL     1      32.585 -13.513 -22.148  0.00  0.00    +0.131 C 
ATOM     13  C   UNL     1      32.665 -13.767 -20.768  0.00  0.00    +0.107 C 
ATOM     14  C   UNL     1      33.276 -14.953 -20.381  0.00  0.00    +0.024 C 
ATOM     15  C   UNL     1      31.974 -12.327 -22.535  0.00  0.00    +0.088 C 
ATOM     16  C   UNL     1      31.468 -11.439 -21.594  0.00  0.00    +0.002 C 
ATOM     17  C   UNL     1      31.597 -11.780 -20.265  0.00  0.00    +0.095 C 
ENDBRANCH   3  10
BRANCH   5  19
ATOM     18  N   UNL     1      33.952 -19.149 -21.932  0.00  0.00    -0.409 NA
ATOM     19  C   UNL     1      34.992 -18.446 -22.446  0.00  0.00    +0.127 C 
ATOM     20  C   UNL     1      36.276 -18.483 -21.911  0.00  0.00    +0.086 C 
ATOM     21  C   UNL     1      34.209 -19.912 -20.846  0.00  0.00    +0.109 C 
ATOM     22  C   UNL     1      36.502 -19.279 -20.794  0.00  0.00    -0.016 C 
ATOM     23  C   UNL     1      35.454 -20.011 -20.245  0.00  0.00    +0.023 C 
ATOM     24  C   UNL     1      33.063 -20.684 -20.284  0.00  0.00    +0.066 C 
ENDBRANCH   5  19
TORSDOF 2
ENDMDL
MODEL 3
REMARK VINA RESULT:     -10.4      7.002      9.742
REMARK  Name = 5287512
REMARK  2 active torsions:
REMARK  status: ('A' for Active; 'I' for Inactive)
REMARK    1  A    between atoms: C_3  and  C_10
REMARK    2  A    between atoms: C_5  and  C_19
REMARK                            x       y       z     vdW  Elec       q    Type
REMARK                         _______ _______ _______ _____ _____    ______ ____
ROOT
ATOM      1  N   UNL     1      32.989 -22.192 -19.150  0.00  0.00    -0.228 NA
ATOM      2  N   UNL     1      32.177 -22.516 -18.068  0.00  0.00    -0.277 N 
ATOM      3  C   UNL     1      34.197 -22.941 -17.227  0.00  0.00    +0.041 C 
ATOM      4  C   UNL     1      34.359 -22.504 -18.661  0.00  0.00    +0.118 C 
ATOM      5  C   UNL     1      32.878 -22.946 -16.970  0.00  0.00    +0.084 C 
ATOM      6  H   UNL     1      32.902 -21.204 -19.389  0.00  0.00    +0.145 HD
ATOM      7  H   UNL     1      31.196 -22.443 -18.087  0.00  0.00    +0.166 HD
ENDROOT
BRANCH   3  10
ATOM      8  N   UNL     1      35.400 -24.551 -15.932  0.00  0.00    -0.405 NA
ATOM      9  N   UNL     1      38.501 -24.355 -14.011  0.00  0.00    -0.242 NA
ATOM     10  C   UNL     1      35.346 -23.279 -16.381  0.00  0.00    +0.130 C 
ATOM     11  C   UNL     1      36.295 -22.324 -16.085  0.00  0.00    +0.033 C 
ATOM     12  C   UNL     1      36.441 -24.902 -15.152  0.00  0.00    +0.131 C 
ATOM     13  C   UNL     1      37.461 -24.004 -14.792  0.00  0.00    +0.107 C 
ATOM     14  C   UNL     1      37.359 -22.707 -15.279  0.00  0.00    +0.024 C 
ATOM     15  C   UNL     1      36.544 -26.199 -14.665  0.00  0.00    +0.088 C 
ATOM     16  C   UNL     1      37.609 -26.582 -13.859  0.00  0.00    +0.002 C 
ATOM     17  C   UNL     1      38.556 -25.627 -13.562  0.00  0.00    +0.095 C 
ENDBRANCH   3  10
BRANCH   5  19
ATOM     18  N   UNL     1      30.983 -23.986 -15.935  0.00  0.00    -0.409 NA
ATOM     19  C   UNL     1      32.166 -23.346 -15.756  0.00  0.00    +0.127 C 
ATOM     20  C   UNL     1      32.701 -23.070 -14.501  0.00  0.00    +0.086 C 
ATOM     21  C   UNL     1      30.317 -24.359 -14.818  0.00  0.00    +0.109 C 
ATOM     22  C   UNL     1      31.987 -23.470 -13.378  0.00  0.00    -0.016 C 
ATOM     23  C   UNL     1      30.772 -24.127 -13.530  0.00  0.00    +0.023 C 
ATOM     24  C   UNL     1      29.017 -25.063 -15.019  0.00  0.00    +0.066 C 
ENDBRANCH   5  19
TORSDOF 2
ENDMDL
MODEL 4
REMARK VINA RESULT:     -10.4      2.829      7.644
REMARK  Name = 5287512
REMARK  2 active torsions:
REMARK  status: ('A' for Active; 'I' for Inactive)
REMARK    1  A    between atoms: C_3  and  C_10
REMARK    2  A    between atoms: C_5  and  C_19
REMARK                            x       y       z     vdW  Elec       q    Type
REMARK                         _______ _______ _______ _____ _____    ______ ____
ROOT
ATOM      1  N   UNL     1      33.336 -15.315 -26.632  0.00  0.00    -0.228 NA
ATOM      2  N   UNL     1      33.692 -15.858 -25.401  0.00  0.00    -0.277 N 
ATOM      3  C   UNL     1      33.364 -13.724 -24.846  0.00  0.00    +0.041 C 
ATOM      4  C   UNL     1      33.150 -13.870 -26.332  0.00  0.00    +0.118 C 
ATOM      5  C   UNL     1      33.708 -14.938 -24.384  0.00  0.00    +0.084 C 
ATOM      6  H   UNL     1      32.472 -15.731 -26.978  0.00  0.00    +0.145 HD
ATOM      7  H   UNL     1      33.912 -16.809 -25.273  0.00  0.00    +0.166 HD
ENDROOT
BRANCH   3  10
ATOM      8  N   UNL     1      34.062 -11.460 -24.522  0.00  0.00    -0.405 NA
ATOM      9  N   UNL     1      32.871  -8.801 -22.317  0.00  0.00    -0.242 NA
ATOM     10  C   UNL     1      33.206 -12.439 -24.159  0.00  0.00    +0.130 C 
ATOM     11  C   UNL     1      32.226 -12.280 -23.203  0.00  0.00    +0.033 C 
ATOM     12  C   UNL     1      33.949 -10.263 -23.914  0.00  0.00    +0.131 C 
ATOM     13  C   UNL     1      32.984  -9.998 -22.926  0.00  0.00    +0.107 C 
ATOM     14  C   UNL     1      32.127 -11.038 -22.587  0.00  0.00    +0.024 C 
ATOM     15  C   UNL     1      34.805  -9.223 -24.252  0.00  0.00    +0.088 C 
ATOM     16  C   UNL     1      34.705  -7.981 -23.638  0.00  0.00    +0.002 C 
ATOM     17  C   UNL     1      33.726  -7.823 -22.681  0.00  0.00    +0.095 C 
ENDBRANCH   3  10
BRANCH   5  19
ATOM     18  N   UNL     1      34.299 -16.674 -22.841  0.00  0.00    -0.409 NA
ATOM     19  C   UNL     1      34.084 -15.348 -23.030  0.00  0.00    +0.127 C 
ATOM     20  C   UNL     1      34.207 -14.403 -22.016  0.00  0.00    +0.086 C 
ATOM     21  C   UNL     1      34.647 -17.063 -21.593  0.00  0.00    +0.109 C 
ATOM     22  C   UNL     1      34.567 -14.842 -20.747  0.00  0.00    -0.016 C 
ATOM     23  C   UNL     1      34.793 -16.195 -20.523  0.00  0.00    +0.023 C 
ATOM     24  C   UNL     1      34.883 -18.522 -21.389  0.00  0.00    +0.066 C 
ENDBRANCH   5  19
TORSDOF 2
ENDMDL
MODEL 5
REMARK VINA RESULT:     -10.3      3.258      7.811
REMARK  Name = 5287512
REMARK  2 active torsions:
REMARK  status: ('A' for Active; 'I' for Inactive)
REMARK    1  A    between atoms: C_3  and  C_10
REMARK    2  A    between atoms: C_5  and  C_19
REMARK                            x       y       z     vdW  Elec       q    Type
REMARK                         _______ _______ _______ _____ _____    ______ ____
ROOT
ATOM      1  N   UNL     1      33.216 -14.634 -27.001  0.00  0.00    -0.228 NA
ATOM      2  N   UNL     1      33.117 -15.072 -25.684  0.00  0.00    -0.277 N 
ATOM      3  C   UNL     1      33.579 -12.912 -25.381  0.00  0.00    +0.041 C 
ATOM      4  C   UNL     1      33.573 -13.197 -26.862  0.00  0.00    +0.118 C 
ATOM      5  C   UNL     1      33.329 -14.079 -24.762  0.00  0.00    +0.084 C 
ATOM      6  H   UNL     1      32.327 -14.744 -27.490  0.00  0.00    +0.145 HD
ATOM      7  H   UNL     1      32.915 -16.003 -25.437  0.00  0.00    +0.166 HD
ENDROOT
BRANCH   3  10
ATOM      8  N   UNL     1      32.955 -11.122 -23.926  0.00  0.00    -0.405 NA
ATOM      9  N   UNL     1      34.428  -7.843 -23.270  0.00  0.00    -0.242 NA
ATOM     10  C   UNL     1      33.834 -11.572 -24.846  0.00  0.00    +0.130 C 
ATOM     11  C   UNL     1      34.920 -10.844 -25.284  0.00  0.00    +0.033 C 
ATOM     12  C   UNL     1      33.154  -9.893 -23.409  0.00  0.00    +0.131 C 
ATOM     13  C   UNL     1      34.230  -9.072 -23.787  0.00  0.00    +0.107 C 
ATOM     14  C   UNL     1      35.106  -9.580 -24.738  0.00  0.00    +0.024 C 
ATOM     15  C   UNL     1      32.278  -9.385 -22.458  0.00  0.00    +0.088 C 
ATOM     16  C   UNL     1      32.465  -8.121 -21.911  0.00  0.00    +0.002 C 
ATOM     17  C   UNL     1      33.550  -7.394 -22.350  0.00  0.00    +0.095 C 
ENDBRANCH   3  10
BRANCH   5  19
ATOM     18  N   UNL     1      34.103 -15.373 -22.899  0.00  0.00    -0.409 NA
ATOM     19  C   UNL     1      33.281 -14.384 -23.331  0.00  0.00    +0.127 C 
ATOM     20  C   UNL     1      32.428 -13.678 -22.489  0.00  0.00    +0.086 C 
ATOM     21  C   UNL     1      34.066 -15.663 -21.578  0.00  0.00    +0.109 C 
ATOM     22  C   UNL     1      32.418 -14.005 -21.137  0.00  0.00    -0.016 C 
ATOM     23  C   UNL     1      33.250 -15.014 -20.665  0.00  0.00    +0.023 C 
ATOM     24  C   UNL     1      34.971 -16.750 -21.107  0.00  0.00    +0.066 C 
ENDBRANCH   5  19
TORSDOF 2
ENDMDL
MODEL 6
REMARK VINA RESULT:     -10.2      4.941      8.721
REMARK  Name = 5287512
REMARK  2 active torsions:
REMARK  status: ('A' for Active; 'I' for Inactive)
REMARK    1  A    between atoms: C_3  and  C_10
REMARK    2  A    between atoms: C_5  and  C_19
REMARK                            x       y       z     vdW  Elec       q    Type
REMARK                         _______ _______ _______ _____ _____    ______ ____
ROOT
ATOM      1  N   UNL     1      30.930 -23.503 -16.137  0.00  0.00    -0.228 NA
ATOM      2  N   UNL     1      31.465 -22.877 -17.258  0.00  0.00    -0.277 N 
ATOM      3  C   UNL     1      33.319 -23.388 -16.131  0.00  0.00    +0.041 C 
ATOM      4  C   UNL     1      32.128 -23.828 -15.317  0.00  0.00    +0.118 C 
ATOM      5  C   UNL     1      32.835 -22.814 -17.245  0.00  0.00    +0.084 C 
ATOM      6  H   UNL     1      30.425 -24.351 -16.398  0.00  0.00    +0.145 HD
ATOM      7  H   UNL     1      30.915 -22.515 -17.989  0.00  0.00    +0.166 HD
ENDROOT
BRANCH   3  10
ATOM      8  N   UNL     1      35.101 -24.883 -15.579  0.00  0.00    -0.405 NA
ATOM      9  N   UNL     1      38.518 -24.329 -14.412  0.00  0.00    -0.242 NA
ATOM     10  C   UNL     1      34.696 -23.599 -15.674  0.00  0.00    +0.130 C 
ATOM     11  C   UNL     1      35.499 -22.521 -15.370  0.00  0.00    +0.033 C 
ATOM     12  C   UNL     1      36.360 -25.120 -15.163  0.00  0.00    +0.131 C 
ATOM     13  C   UNL     1      37.259 -24.092 -14.829  0.00  0.00    +0.107 C 
ATOM     14  C   UNL     1      36.793 -22.788 -14.942  0.00  0.00    +0.024 C 
ATOM     15  C   UNL     1      36.826 -26.424 -15.050  0.00  0.00    +0.088 C 
ATOM     16  C   UNL     1      38.121 -26.690 -14.623  0.00  0.00    +0.002 C 
ATOM     17  C   UNL     1      38.923 -25.612 -14.317  0.00  0.00    +0.095 C 
ENDBRANCH   3  10
BRANCH   5  19
ATOM     18  N   UNL     1      32.832 -21.293 -19.098  0.00  0.00    -0.409 NA
ATOM     19  C   UNL     1      33.549 -22.164 -18.346  0.00  0.00    +0.127 C 
ATOM     20  C   UNL     1      34.892 -22.448 -18.579  0.00  0.00    +0.086 C 
ATOM     21  C   UNL     1      33.483 -20.688 -20.117  0.00  0.00    +0.109 C 
ATOM     22  C   UNL     1      35.526 -21.806 -19.636  0.00  0.00    -0.016 C 
ATOM     23  C   UNL     1      34.816 -20.908 -20.425  0.00  0.00    +0.023 C 
ATOM     24  C   UNL     1      32.691 -19.729 -20.942  0.00  0.00    +0.066 C 
ENDBRANCH   5  19
TORSDOF 2
ENDMDL
MODEL 7
REMARK VINA RESULT:     -10.2      2.182      6.902
REMARK  Name = 5287512
REMARK  2 active torsions:
REMARK  status: ('A' for Active; 'I' for Inactive)
REMARK    1  A    between atoms: C_3  and  C_10
REMARK    2  A    between atoms: C_5  and  C_19
REMARK                            x       y       z     vdW  Elec       q    Type
REMARK                         _______ _______ _______ _____ _____    ______ ____
ROOT
ATOM      1  N   UNL     1      33.307 -15.529 -26.730  0.00  0.00    -0.228 NA
ATOM      2  N   UNL     1      33.712 -16.115 -25.535  0.00  0.00    -0.277 N 
ATOM      3  C   UNL     1      33.317 -14.024 -24.872  0.00  0.00    +0.041 C 
ATOM      4  C   UNL     1      33.073 -14.108 -26.358  0.00  0.00    +0.118 C 
ATOM      5  C   UNL     1      33.717 -15.244 -24.475  0.00  0.00    +0.084 C 
ATOM      6  H   UNL     1      32.451 -15.962 -27.077  0.00  0.00    +0.145 HD
ATOM      7  H   UNL     1      33.970 -17.062 -25.457  0.00  0.00    +0.166 HD
ENDROOT
BRANCH   3  10
ATOM      8  N   UNL     1      32.301 -12.850 -23.054  0.00  0.00    -0.405 NA
ATOM      9  N   UNL     1      32.505  -9.379 -21.933  0.00  0.00    -0.242 NA
ATOM     10  C   UNL     1      33.126 -12.780 -24.120  0.00  0.00    +0.130 C 
ATOM     11  C   UNL     1      33.769 -11.626 -24.513  0.00  0.00    +0.033 C 
ATOM     12  C   UNL     1      32.099 -11.728 -22.335  0.00  0.00    +0.131 C 
ATOM     13  C   UNL     1      32.708 -10.501 -22.651  0.00  0.00    +0.107 C 
ATOM     14  C   UNL     1      33.546 -10.481 -23.758  0.00  0.00    +0.024 C 
ATOM     15  C   UNL     1      31.261 -11.749 -21.228  0.00  0.00    +0.088 C 
ATOM     16  C   UNL     1      31.039 -10.603 -20.473  0.00  0.00    +0.002 C 
ATOM     17  C   UNL     1      31.682  -9.449 -20.866  0.00  0.00    +0.095 C 
ENDBRANCH   3  10
BRANCH   5  19
ATOM     18  N   UNL     1      34.395 -17.029 -23.027  0.00  0.00    -0.409 NA
ATOM     19  C   UNL     1      34.140 -15.702 -23.151  0.00  0.00    +0.127 C 
ATOM     20  C   UNL     1      34.265 -14.799 -22.100  0.00  0.00    +0.086 C 
ATOM     21  C   UNL     1      34.787 -17.462 -21.807  0.00  0.00    +0.109 C 
ATOM     22  C   UNL     1      34.671 -15.283 -20.861  0.00  0.00    -0.016 C 
ATOM     23  C   UNL     1      34.939 -16.638 -20.703  0.00  0.00    +0.023 C 
ATOM     24  C   UNL     1      35.066 -18.921 -21.673  0.00  0.00    +0.066 C 
ENDBRANCH   5  19
TORSDOF 2
ENDMDL
MODEL 8
REMARK VINA RESULT:      -9.8      5.354     10.690
REMARK  Name = 5287512
REMARK  2 active torsions:
REMARK  status: ('A' for Active; 'I' for Inactive)
REMARK    1  A    between atoms: C_3  and  C_10
REMARK    2  A    between atoms: C_5  and  C_19
REMARK                            x       y       z     vdW  Elec       q    Type
REMARK                         _______ _______ _______ _____ _____    ______ ____
ROOT
ATOM      1  N   UNL     1      32.279 -24.495 -14.045  0.00  0.00    -0.228 NA
ATOM      2  N   UNL     1      33.526 -24.990 -13.675  0.00  0.00    -0.277 N 
ATOM      3  C   UNL     1      34.073 -23.717 -15.421  0.00  0.00    +0.041 C 
ATOM      4  C   UNL     1      32.576 -23.669 -15.245  0.00  0.00    +0.118 C 
ATOM      5  C   UNL     1      34.548 -24.540 -14.471  0.00  0.00    +0.084 C 
ATOM      6  H   UNL     1      31.876 -23.926 -13.300  0.00  0.00    +0.145 HD
ATOM      7  H   UNL     1      33.661 -25.602 -12.916  0.00  0.00    +0.166 HD
ENDROOT
BRANCH   3  10
ATOM      8  N   UNL     1      34.004 -22.611 -17.539  0.00  0.00    -0.405 NA
ATOM      9  N   UNL     1      36.547 -20.866 -19.499  0.00  0.00    -0.242 NA
ATOM     10  C   UNL     1      34.758 -22.966 -16.478  0.00  0.00    +0.130 C 
ATOM     11  C   UNL     1      36.096 -22.661 -16.356  0.00  0.00    +0.033 C 
ATOM     12  C   UNL     1      34.596 -21.919 -18.533  0.00  0.00    +0.131 C 
ATOM     13  C   UNL     1      35.955 -21.557 -18.505  0.00  0.00    +0.107 C 
ATOM     14  C   UNL     1      36.687 -21.947 -17.391  0.00  0.00    +0.024 C 
ATOM     15  C   UNL     1      33.863 -21.529 -19.647  0.00  0.00    +0.088 C 
ATOM     16  C   UNL     1      34.455 -20.815 -20.681  0.00  0.00    +0.002 C 
ATOM     17  C   UNL     1      35.793 -20.511 -20.560  0.00  0.00    +0.095 C 
ENDBRANCH   3  10
BRANCH   5  19
ATOM     18  N   UNL     1      36.596 -24.343 -13.242  0.00  0.00    -0.409 NA
ATOM     19  C   UNL     1      35.920 -24.988 -14.225  0.00  0.00    +0.127 C 
ATOM     20  C   UNL     1      36.469 -26.022 -14.977  0.00  0.00    +0.086 C 
ATOM     21  C   UNL     1      37.865 -24.749 -13.007  0.00  0.00    +0.109 C 
ATOM     22  C   UNL     1      37.776 -26.411 -14.707  0.00  0.00    -0.016 C 
ATOM     23  C   UNL     1      38.494 -25.769 -13.704  0.00  0.00    +0.023 C 
ATOM     24  C   UNL     1      38.606 -24.039 -11.925  0.00  0.00    +0.066 C 
ENDBRANCH   5  19
TORSDOF 2
ENDMDL
MODEL 9
REMARK VINA RESULT:      -9.7      7.206      9.771
REMARK  Name = 5287512
REMARK  2 active torsions:
REMARK  status: ('A' for Active; 'I' for Inactive)
REMARK    1  A    between atoms: C_3  and  C_10
REMARK    2  A    between atoms: C_5  and  C_19
REMARK                            x       y       z     vdW  Elec       q    Type
REMARK                         _______ _______ _______ _____ _____    ______ ____
ROOT
ATOM      1  N   UNL     1      33.641 -21.927 -18.957  0.00  0.00    -0.228 NA
ATOM      2  N   UNL     1      32.417 -22.272 -18.393  0.00  0.00    -0.277 N 
ATOM      3  C   UNL     1      33.830 -23.062 -16.861  0.00  0.00    +0.041 C 
ATOM      4  C   UNL     1      34.633 -22.476 -17.995  0.00  0.00    +0.118 C 
ATOM      5  C   UNL     1      32.534 -22.924 -17.192  0.00  0.00    +0.084 C 
ATOM      6  H   UNL     1      33.733 -20.915 -19.040  0.00  0.00    +0.145 HD
ATOM      7  H   UNL     1      31.551 -22.067 -18.814  0.00  0.00    +0.166 HD
ENDROOT
BRANCH   3  10
ATOM      8  N   UNL     1      35.376 -24.620 -15.914  0.00  0.00    -0.405 NA
ATOM      9  N   UNL     1      36.315 -25.382 -12.466  0.00  0.00    -0.242 NA
ATOM     10  C   UNL     1      34.465 -23.652 -15.679  0.00  0.00    +0.130 C 
ATOM     11  C   UNL     1      34.125 -23.215 -14.417  0.00  0.00    +0.033 C 
ATOM     12  C   UNL     1      35.984 -25.188 -14.853  0.00  0.00    +0.131 C 
ATOM     13  C   UNL     1      35.708 -24.813 -13.526  0.00  0.00    +0.107 C 
ATOM     14  C   UNL     1      34.763 -23.813 -13.338  0.00  0.00    +0.024 C 
ATOM     15  C   UNL     1      36.929 -26.188 -15.042  0.00  0.00    +0.088 C 
ATOM     16  C   UNL     1      37.568 -26.785 -13.962  0.00  0.00    +0.002 C 
ATOM     17  C   UNL     1      37.226 -26.349 -12.701  0.00  0.00    +0.095 C 
ENDBRANCH   3  10
BRANCH   5  19
ATOM     18  N   UNL     1      30.192 -22.693 -16.742  0.00  0.00    -0.409 NA
ATOM     19  C   UNL     1      31.336 -23.373 -16.481  0.00  0.00    +0.127 C 
ATOM     20  C   UNL     1      31.404 -24.442 -15.593  0.00  0.00    +0.086 C 
ATOM     21  C   UNL     1      29.079 -23.101 -16.089  0.00  0.00    +0.109 C 
ATOM     22  C   UNL     1      30.239 -24.831 -14.941  0.00  0.00    -0.016 C 
ATOM     23  C   UNL     1      29.050 -24.153 -15.188  0.00  0.00    +0.023 C 
ATOM     24  C   UNL     1      27.822 -22.352 -16.378  0.00  0.00    +0.066 C 
ENDBRANCH   5  19
TORSDOF 2
ENDMDL
