MODEL 1
REMARK VINA RESULT:      -6.5      0.000      0.000
REMARK  Name = 445478
REMARK  9 active torsions:
REMARK  status: ('A' for Active; 'I' for Inactive)
REMARK    1  A    between atoms: C_1  and  C_2
REMARK    2  A    between atoms: C_1  and  CA_10
REMARK    3  A    between atoms: C_2  and  C_3
REMARK    4  A    between atoms: C_3  and  C_4
REMARK    5  A    between atoms: C_4  and  C_7
REMARK    6  A    between atoms: C_7  and  O_8
REMARK    7  A    between atoms: CA_10  and  N_11
REMARK    8  A    between atoms: CA_10  and  C_16
REMARK    9  A    between atoms: C_16  and  O_17
REMARK                            x       y       z     vdW  Elec       q    Type
REMARK                         _______ _______ _______ _____ _____    ______ ____
ROOT
ATOM      1  C   UNL     1      37.809 -24.466 -14.876  0.00  0.00    -0.011 C 
ENDROOT
BRANCH   1   2
ATOM      2  C   UNL     1      36.357 -24.638 -14.403  0.00  0.00    +0.003 C 
BRANCH   2   3
ATOM      3  C   UNL     1      35.870 -23.474 -13.526  0.00  0.00    +0.033 C 
BRANCH   3   4
ATOM      4  C   UNL     1      36.422 -23.483 -12.124  0.00  0.00    +0.053 C 
ATOM      5  C   UNL     1      37.532 -22.810 -11.785  0.00  0.00    +0.002 C 
BRANCH   4   7
ATOM      6  O   UNL     1      36.073 -24.241  -9.864  0.00  0.00    -0.245 OA
ATOM      7  C   UNL     1      35.769 -24.270 -11.046  0.00  0.00    +0.334 C 
BRANCH   7   8
ATOM      8  O   UNL     1      34.778 -25.042 -11.549  0.00  0.00    -0.477 OA
ATOM      9  H   UNL     1      34.281 -24.746 -12.286  0.00  0.00    +0.295 HD
ENDBRANCH   7   8
ENDBRANCH   4   7
ENDBRANCH   3   4
ENDBRANCH   2   3
ENDBRANCH   1   2
BRANCH   1  10
ATOM     10  CA  UNL     1      38.736 -25.653 -14.563  0.00  0.00    +0.036 C 
BRANCH  10  11
ATOM     11  N   UNL     1      38.700 -26.041 -13.153  0.00  0.00    +0.389 N 
ATOM     12  H1  UNL     1      39.513 -26.620 -12.939  0.00  0.00    -0.088 HD
ATOM     13  H2  UNL     1      37.848 -26.570 -12.967  0.00  0.00    -0.088 HD
ATOM     14  H3  UNL     1      38.717 -25.204 -12.569  0.00  0.00    -0.088 HD
ENDBRANCH  10  11
BRANCH  10  16
ATOM     15  OXT UNL     1      40.955 -24.671 -14.300  0.00  0.00    -0.253 OA
ATOM     16  C   UNL     1      40.180 -25.369 -14.938  0.00  0.00    +0.293 C 
BRANCH  16  17
ATOM     17  O   UNL     1      40.537 -25.995 -16.091  0.00  0.00    -0.482 OA
ATOM     18  H   UNL     1      40.875 -25.496 -16.809  0.00  0.00    +0.295 HD
ENDBRANCH  16  17
ENDBRANCH  10  16
ENDBRANCH   1  10
TORSDOF 9
ENDMDL
MODEL 2
REMARK VINA RESULT:      -6.5     10.378     11.182
REMARK  Name = 445478
REMARK  9 active torsions:
REMARK  status: ('A' for Active; 'I' for Inactive)
REMARK    1  A    between atoms: C_1  and  C_2
REMARK    2  A    between atoms: C_1  and  CA_10
REMARK    3  A    between atoms: C_2  and  C_3
REMARK    4  A    between atoms: C_3  and  C_4
REMARK    5  A    between atoms: C_4  and  C_7
REMARK    6  A    between atoms: C_7  and  O_8
REMARK    7  A    between atoms: CA_10  and  N_11
REMARK    8  A    between atoms: CA_10  and  C_16
REMARK    9  A    between atoms: C_16  and  O_17
REMARK                            x       y       z     vdW  Elec       q    Type
REMARK                         _______ _______ _______ _____ _____    ______ ____
ROOT
ATOM      1  C   UNL     1      35.784 -18.421 -22.643  0.00  0.00    -0.011 C 
ENDROOT
BRANCH   1   2
ATOM      2  C   UNL     1      35.205 -18.601 -21.231  0.00  0.00    +0.003 C 
BRANCH   2   3
ATOM      3  C   UNL     1      35.324 -20.042 -20.713  0.00  0.00    +0.033 C 
BRANCH   3   4
ATOM      4  C   UNL     1      34.027 -20.633 -20.223  0.00  0.00    +0.053 C 
ATOM      5  C   UNL     1      32.837 -20.076 -20.494  0.00  0.00    +0.002 C 
BRANCH   4   7
ATOM      6  O   UNL     1      34.987 -22.532 -19.094  0.00  0.00    -0.245 OA
ATOM      7  C   UNL     1      34.010 -21.859 -19.384  0.00  0.00    +0.334 C 
BRANCH   7   8
ATOM      8  O   UNL     1      32.751 -22.146 -18.979  0.00  0.00    -0.477 OA
ATOM      9  H   UNL     1      32.021 -21.717 -19.379  0.00  0.00    +0.295 HD
ENDBRANCH   7   8
ENDBRANCH   4   7
ENDBRANCH   3   4
ENDBRANCH   2   3
ENDBRANCH   1   2
BRANCH   1  10
ATOM     10  CA  UNL     1      34.737 -18.213 -23.750  0.00  0.00    +0.036 C 
BRANCH  10  11
ATOM     11  N   UNL     1      34.664 -19.341 -24.679  0.00  0.00    +0.389 N 
ATOM     12  H1  UNL     1      35.583 -19.777 -24.757  0.00  0.00    -0.088 HD
ATOM     13  H2  UNL     1      34.366 -19.008 -25.595  0.00  0.00    -0.088 HD
ATOM     14  H3  UNL     1      33.992 -20.025 -24.330  0.00  0.00    -0.088 HD
ENDBRANCH  10  11
BRANCH  10  16
ATOM     15  OXT UNL     1      34.757 -16.810 -25.748  0.00  0.00    -0.253 OA
ATOM     16  C   UNL     1      34.998 -16.953 -24.557  0.00  0.00    +0.293 C 
BRANCH  16  17
ATOM     17  O   UNL     1      35.540 -15.965 -23.797  0.00  0.00    -0.482 OA
ATOM     18  H   UNL     1      35.625 -16.081 -22.870  0.00  0.00    +0.295 HD
ENDBRANCH  16  17
ENDBRANCH  10  16
ENDBRANCH   1  10
TORSDOF 9
ENDMDL
MODEL 3
REMARK VINA RESULT:      -6.5      1.409      1.783
REMARK  Name = 445478
REMARK  9 active torsions:
REMARK  status: ('A' for Active; 'I' for Inactive)
REMARK    1  A    between atoms: C_1  and  C_2
REMARK    2  A    between atoms: C_1  and  CA_10
REMARK    3  A    between atoms: C_2  and  C_3
REMARK    4  A    between atoms: C_3  and  C_4
REMARK    5  A    between atoms: C_4  and  C_7
REMARK    6  A    between atoms: C_7  and  O_8
REMARK    7  A    between atoms: CA_10  and  N_11
REMARK    8  A    between atoms: CA_10  and  C_16
REMARK    9  A    between atoms: C_16  and  O_17
REMARK                            x       y       z     vdW  Elec       q    Type
REMARK                         _______ _______ _______ _____ _____    ______ ____
ROOT
ATOM      1  C   UNL     1      37.764 -26.008 -14.558  0.00  0.00    -0.011 C 
ENDROOT
BRANCH   1   2
ATOM      2  C   UNL     1      37.306 -26.293 -13.119  0.00  0.00    +0.003 C 
BRANCH   2   3
ATOM      3  C   UNL     1      37.870 -25.291 -12.100  0.00  0.00    +0.033 C 
BRANCH   3   4
ATOM      4  C   UNL     1      36.923 -24.176 -11.738  0.00  0.00    +0.053 C 
ATOM      5  C   UNL     1      37.282 -22.885 -11.789  0.00  0.00    +0.002 C 
BRANCH   4   7
ATOM      6  O   UNL     1      34.563 -24.579 -12.003  0.00  0.00    -0.245 OA
ATOM      7  C   UNL     1      35.540 -24.463 -11.279  0.00  0.00    +0.334 C 
BRANCH   7   8
ATOM      8  O   UNL     1      35.495 -24.577  -9.932  0.00  0.00    -0.477 OA
ATOM      9  H   UNL     1      35.143 -23.881  -9.414  0.00  0.00    +0.295 HD
ENDBRANCH   7   8
ENDBRANCH   4   7
ENDBRANCH   3   4
ENDBRANCH   2   3
ENDBRANCH   1   2
BRANCH   1  10
ATOM     10  CA  UNL     1      38.677 -24.781 -14.715  0.00  0.00    +0.036 C 
BRANCH  10  11
ATOM     11  N   UNL     1      38.217 -23.864 -15.758  0.00  0.00    +0.389 N 
ATOM     12  H1  UNL     1      38.193 -22.913 -15.389  0.00  0.00    -0.088 HD
ATOM     13  H2  UNL     1      37.281 -24.135 -16.061  0.00  0.00    -0.088 HD
ATOM     14  H3  UNL     1      38.857 -23.904 -16.552  0.00  0.00    -0.088 HD
ENDBRANCH  10  11
BRANCH  10  16
ATOM     15  OXT UNL     1      41.082 -24.919 -14.323  0.00  0.00    -0.253 OA
ATOM     16  C   UNL     1      40.112 -25.167 -15.026  0.00  0.00    +0.293 C 
BRANCH  16  17
ATOM     17  O   UNL     1      40.213 -25.844 -16.200  0.00  0.00    -0.482 OA
ATOM     18  H   UNL     1      40.501 -26.736 -16.204  0.00  0.00    +0.295 HD
ENDBRANCH  16  17
ENDBRANCH  10  16
ENDBRANCH   1  10
TORSDOF 9
ENDMDL
MODEL 4
REMARK VINA RESULT:      -6.4      9.940     10.710
REMARK  Name = 445478
REMARK  9 active torsions:
REMARK  status: ('A' for Active; 'I' for Inactive)
REMARK    1  A    between atoms: C_1  and  C_2
REMARK    2  A    between atoms: C_1  and  CA_10
REMARK    3  A    between atoms: C_2  and  C_3
REMARK    4  A    between atoms: C_3  and  C_4
REMARK    5  A    between atoms: C_4  and  C_7
REMARK    6  A    between atoms: C_7  and  O_8
REMARK    7  A    between atoms: CA_10  and  N_11
REMARK    8  A    between atoms: CA_10  and  C_16
REMARK    9  A    between atoms: C_16  and  O_17
REMARK                            x       y       z     vdW  Elec       q    Type
REMARK                         _______ _______ _______ _____ _____    ______ ____
ROOT
ATOM      1  C   UNL     1      34.226 -19.008 -22.675  0.00  0.00    -0.011 C 
ENDROOT
BRANCH   1   2
ATOM      2  C   UNL     1      34.501 -19.157 -21.170  0.00  0.00    +0.003 C 
BRANCH   2   3
ATOM      3  C   UNL     1      33.567 -20.168 -20.487  0.00  0.00    +0.033 C 
BRANCH   3   4
ATOM      4  C   UNL     1      34.283 -21.262 -19.738  0.00  0.00    +0.053 C 
ATOM      5  C   UNL     1      35.617 -21.284 -19.600  0.00  0.00    +0.002 C 
BRANCH   4   7
ATOM      6  O   UNL     1      32.560 -22.289 -18.404  0.00  0.00    -0.245 OA
ATOM      7  C   UNL     1      33.534 -22.394 -19.133  0.00  0.00    +0.334 C 
BRANCH   7   8
ATOM      8  O   UNL     1      34.082 -23.578 -19.491  0.00  0.00    -0.477 OA
ATOM      9  H   UNL     1      33.734 -24.378 -19.149  0.00  0.00    +0.295 HD
ENDBRANCH   7   8
ENDBRANCH   4   7
ENDBRANCH   3   4
ENDBRANCH   2   3
ENDBRANCH   1   2
BRANCH   1  10
ATOM     10  CA  UNL     1      35.424 -18.519 -23.505  0.00  0.00    +0.036 C 
BRANCH  10  11
ATOM     11  N   UNL     1      36.576 -18.159 -22.679  0.00  0.00    +0.389 N 
ATOM     12  H1  UNL     1      36.582 -18.734 -21.836  0.00  0.00    -0.088 HD
ATOM     13  H2  UNL     1      36.514 -17.175 -22.419  0.00  0.00    -0.088 HD
ATOM     14  H3  UNL     1      37.435 -18.319 -23.205  0.00  0.00    -0.088 HD
ENDBRANCH  10  11
BRANCH  10  16
ATOM     15  OXT UNL     1      34.449 -17.366 -25.424  0.00  0.00    -0.253 OA
ATOM     16  C   UNL     1      35.073 -17.323 -24.372  0.00  0.00    +0.293 C 
BRANCH  16  17
ATOM     17  O   UNL     1      35.532 -16.158 -23.842  0.00  0.00    -0.482 OA
ATOM     18  H   UNL     1      35.015 -15.695 -23.211  0.00  0.00    +0.295 HD
ENDBRANCH  16  17
ENDBRANCH  10  16
ENDBRANCH   1  10
TORSDOF 9
ENDMDL
MODEL 5
REMARK VINA RESULT:      -6.3     10.170     11.529
REMARK  Name = 445478
REMARK  9 active torsions:
REMARK  status: ('A' for Active; 'I' for Inactive)
REMARK    1  A    between atoms: C_1  and  C_2
REMARK    2  A    between atoms: C_1  and  CA_10
REMARK    3  A    between atoms: C_2  and  C_3
REMARK    4  A    between atoms: C_3  and  C_4
REMARK    5  A    between atoms: C_4  and  C_7
REMARK    6  A    between atoms: C_7  and  O_8
REMARK    7  A    between atoms: CA_10  and  N_11
REMARK    8  A    between atoms: CA_10  and  C_16
REMARK    9  A    between atoms: C_16  and  O_17
REMARK                            x       y       z     vdW  Elec       q    Type
REMARK                         _______ _______ _______ _____ _____    ______ ____
ROOT
ATOM      1  C   UNL     1      34.790 -20.137 -20.527  0.00  0.00    -0.011 C 
ENDROOT
BRANCH   1   2
ATOM      2  C   UNL     1      34.235 -19.153 -21.570  0.00  0.00    +0.003 C 
BRANCH   2   3
ATOM      3  C   UNL     1      35.333 -18.503 -22.425  0.00  0.00    +0.033 C 
BRANCH   3   4
ATOM      4  C   UNL     1      34.973 -18.347 -23.880  0.00  0.00    +0.053 C 
ATOM      5  C   UNL     1      34.581 -19.383 -24.637  0.00  0.00    +0.002 C 
BRANCH   4   7
ATOM      6  O   UNL     1      34.751 -16.804 -25.715  0.00  0.00    -0.245 OA
ATOM      7  C   UNL     1      35.063 -17.028 -24.556  0.00  0.00    +0.334 C 
BRANCH   7   8
ATOM      8  O   UNL     1      35.551 -16.088 -23.713  0.00  0.00    -0.477 OA
ATOM      9  H   UNL     1      35.571 -16.251 -22.791  0.00  0.00    +0.295 HD
ENDBRANCH   7   8
ENDBRANCH   4   7
ENDBRANCH   3   4
ENDBRANCH   2   3
ENDBRANCH   1   2
BRANCH   1  10
ATOM     10  CA  UNL     1      33.844 -21.292 -20.159  0.00  0.00    +0.036 C 
BRANCH  10  11
ATOM     11  N   UNL     1      32.646 -20.838 -19.453  0.00  0.00    +0.389 N 
ATOM     12  H1  UNL     1      32.886 -20.613 -18.487  0.00  0.00    -0.088 HD
ATOM     13  H2  UNL     1      31.943 -21.577 -19.465  0.00  0.00    -0.088 HD
ATOM     14  H3  UNL     1      32.274 -20.007 -19.913  0.00  0.00    -0.088 HD
ENDBRANCH  10  11
BRANCH  10  16
ATOM     15  OXT UNL     1      35.537 -22.168 -18.635  0.00  0.00    -0.253 OA
ATOM     16  C   UNL     1      34.527 -22.344 -19.303  0.00  0.00    +0.293 C 
BRANCH  16  17
ATOM     17  O   UNL     1      33.879 -23.538 -19.352  0.00  0.00    -0.482 OA
ATOM     18  H   UNL     1      32.951 -23.562 -19.481  0.00  0.00    +0.295 HD
ENDBRANCH  16  17
ENDBRANCH  10  16
ENDBRANCH   1  10
TORSDOF 9
ENDMDL
MODEL 6
REMARK VINA RESULT:      -6.3      9.936     10.700
REMARK  Name = 445478
REMARK  9 active torsions:
REMARK  status: ('A' for Active; 'I' for Inactive)
REMARK    1  A    between atoms: C_1  and  C_2
REMARK    2  A    between atoms: C_1  and  CA_10
REMARK    3  A    between atoms: C_2  and  C_3
REMARK    4  A    between atoms: C_3  and  C_4
REMARK    5  A    between atoms: C_4  and  C_7
REMARK    6  A    between atoms: C_7  and  O_8
REMARK    7  A    between atoms: CA_10  and  N_11
REMARK    8  A    between atoms: CA_10  and  C_16
REMARK    9  A    between atoms: C_16  and  O_17
REMARK                            x       y       z     vdW  Elec       q    Type
REMARK                         _______ _______ _______ _____ _____    ______ ____
ROOT
ATOM      1  C   UNL     1      35.122 -18.026 -21.169  0.00  0.00    -0.011 C 
ENDROOT
BRANCH   1   2
ATOM      2  C   UNL     1      34.610 -19.411 -21.596  0.00  0.00    +0.003 C 
BRANCH   2   3
ATOM      3  C   UNL     1      33.757 -20.094 -20.517  0.00  0.00    +0.033 C 
BRANCH   3   4
ATOM      4  C   UNL     1      34.455 -21.219 -19.797  0.00  0.00    +0.053 C 
ATOM      5  C   UNL     1      35.779 -21.221 -19.580  0.00  0.00    +0.002 C 
BRANCH   4   7
ATOM      6  O   UNL     1      34.054 -23.567 -19.436  0.00  0.00    -0.245 OA
ATOM      7  C   UNL     1      33.701 -22.404 -19.312  0.00  0.00    +0.334 C 
BRANCH   7   8
ATOM      8  O   UNL     1      32.550 -22.027 -18.710  0.00  0.00    -0.477 OA
ATOM      9  H   UNL     1      31.833 -22.627 -18.653  0.00  0.00    +0.295 HD
ENDBRANCH   7   8
ENDBRANCH   4   7
ENDBRANCH   3   4
ENDBRANCH   2   3
ENDBRANCH   1   2
BRANCH   1  10
ATOM     10  CA  UNL     1      34.710 -16.870 -22.095  0.00  0.00    +0.036 C 
BRANCH  10  11
ATOM     11  N   UNL     1      35.582 -16.742 -23.263  0.00  0.00    +0.389 N 
ATOM     12  H1  UNL     1      36.095 -15.862 -23.209  0.00  0.00    -0.088 HD
ATOM     13  H2  UNL     1      35.018 -16.755 -24.112  0.00  0.00    -0.088 HD
ATOM     14  H3  UNL     1      36.243 -17.520 -23.280  0.00  0.00    -0.088 HD
ENDBRANCH  10  11
BRANCH  10  16
ATOM     15  OXT UNL     1      34.844 -15.376 -20.169  0.00  0.00    -0.253 OA
ATOM     16  C   UNL     1      34.689 -15.535 -21.373  0.00  0.00    +0.293 C 
BRANCH  16  17
ATOM     17  O   UNL     1      34.479 -14.498 -22.227  0.00  0.00    -0.482 OA
ATOM     18  H   UNL     1      34.036 -13.727 -21.928  0.00  0.00    +0.295 HD
ENDBRANCH  16  17
ENDBRANCH  10  16
ENDBRANCH   1  10
TORSDOF 9
ENDMDL
MODEL 7
REMARK VINA RESULT:      -6.2      1.213      5.123
REMARK  Name = 445478
REMARK  9 active torsions:
REMARK  status: ('A' for Active; 'I' for Inactive)
REMARK    1  A    between atoms: C_1  and  C_2
REMARK    2  A    between atoms: C_1  and  CA_10
REMARK    3  A    between atoms: C_2  and  C_3
REMARK    4  A    between atoms: C_3  and  C_4
REMARK    5  A    between atoms: C_4  and  C_7
REMARK    6  A    between atoms: C_7  and  O_8
REMARK    7  A    between atoms: CA_10  and  N_11
REMARK    8  A    between atoms: CA_10  and  C_16
REMARK    9  A    between atoms: C_16  and  O_17
REMARK                            x       y       z     vdW  Elec       q    Type
REMARK                         _______ _______ _______ _____ _____    ______ ____
ROOT
ATOM      1  C   UNL     1      36.087 -23.383 -13.380  0.00  0.00    -0.011 C 
ENDROOT
BRANCH   1   2
ATOM      2  C   UNL     1      37.268 -23.302 -14.360  0.00  0.00    +0.003 C 
BRANCH   2   3
ATOM      3  C   UNL     1      37.650 -24.667 -14.953  0.00  0.00    +0.033 C 
BRANCH   3   4
ATOM      4  C   UNL     1      38.882 -25.284 -14.342  0.00  0.00    +0.053 C 
ATOM      5  C   UNL     1      38.851 -25.939 -13.172  0.00  0.00    +0.002 C 
BRANCH   4   7
ATOM      6  O   UNL     1      41.160 -24.539 -14.578  0.00  0.00    -0.245 OA
ATOM      7  C   UNL     1      40.206 -25.170 -15.005  0.00  0.00    +0.334 C 
BRANCH   7   8
ATOM      8  O   UNL     1      40.223 -25.863 -16.167  0.00  0.00    -0.477 OA
ATOM      9  H   UNL     1      40.173 -26.798 -16.156  0.00  0.00    +0.295 HD
ENDBRANCH   7   8
ENDBRANCH   4   7
ENDBRANCH   3   4
ENDBRANCH   2   3
ENDBRANCH   1   2
BRANCH   1  10
ATOM     10  CA  UNL     1      36.458 -23.179 -11.902  0.00  0.00    +0.036 C 
BRANCH  10  11
ATOM     11  N   UNL     1      37.876 -22.875 -11.711  0.00  0.00    +0.389 N 
ATOM     12  H1  UNL     1      38.000 -21.864 -11.642  0.00  0.00    -0.088 HD
ATOM     13  H2  UNL     1      38.410 -23.229 -12.505  0.00  0.00    -0.088 HD
ATOM     14  H3  UNL     1      38.206 -23.317 -10.853  0.00  0.00    -0.088 HD
ENDBRANCH  10  11
BRANCH  10  16
ATOM     15  OXT UNL     1      35.875 -25.512 -11.479  0.00  0.00    -0.253 OA
ATOM     16  C   UNL     1      36.117 -24.391 -11.052  0.00  0.00    +0.293 C 
BRANCH  16  17
ATOM     17  O   UNL     1      36.113 -24.097  -9.725  0.00  0.00    -0.482 OA
ATOM     18  H   UNL     1      36.877 -24.263  -9.206  0.00  0.00    +0.295 HD
ENDBRANCH  16  17
ENDBRANCH  10  16
ENDBRANCH   1  10
TORSDOF 9
ENDMDL
MODEL 8
REMARK VINA RESULT:      -6.1      2.395      3.045
REMARK  Name = 445478
REMARK  9 active torsions:
REMARK  status: ('A' for Active; 'I' for Inactive)
REMARK    1  A    between atoms: C_1  and  C_2
REMARK    2  A    between atoms: C_1  and  CA_10
REMARK    3  A    between atoms: C_2  and  C_3
REMARK    4  A    between atoms: C_3  and  C_4
REMARK    5  A    between atoms: C_4  and  C_7
REMARK    6  A    between atoms: C_7  and  O_8
REMARK    7  A    between atoms: CA_10  and  N_11
REMARK    8  A    between atoms: CA_10  and  C_16
REMARK    9  A    between atoms: C_16  and  O_17
REMARK                            x       y       z     vdW  Elec       q    Type
REMARK                         _______ _______ _______ _____ _____    ______ ____
ROOT
ATOM      1  C   UNL     1      38.223 -25.891 -14.612  0.00  0.00    -0.011 C 
ENDROOT
BRANCH   1   2
ATOM      2  C   UNL     1      38.715 -25.073 -13.407  0.00  0.00    +0.003 C 
BRANCH   2   3
ATOM      3  C   UNL     1      37.883 -25.313 -12.138  0.00  0.00    +0.033 C 
BRANCH   3   4
ATOM      4  C   UNL     1      37.014 -24.149 -11.738  0.00  0.00    +0.053 C 
ATOM      5  C   UNL     1      37.448 -22.881 -11.782  0.00  0.00    +0.002 C 
BRANCH   4   7
ATOM      6  O   UNL     1      35.306 -25.101 -10.331  0.00  0.00    -0.245 OA
ATOM      7  C   UNL     1      35.628 -24.359 -11.247  0.00  0.00    +0.334 C 
BRANCH   7   8
ATOM      8  O   UNL     1      34.748 -23.616 -11.957  0.00  0.00    -0.477 OA
ATOM      9  H   UNL     1      34.686 -23.724 -12.885  0.00  0.00    +0.295 HD
ENDBRANCH   7   8
ENDBRANCH   4   7
ENDBRANCH   3   4
ENDBRANCH   2   3
ENDBRANCH   1   2
BRANCH   1  10
ATOM     10  CA  UNL     1      36.710 -26.161 -14.635  0.00  0.00    +0.036 C 
BRANCH  10  11
ATOM     11  N   UNL     1      36.348 -27.274 -15.513  0.00  0.00    +0.389 N 
ATOM     12  H1  UNL     1      35.739 -26.935 -16.258  0.00  0.00    -0.088 HD
ATOM     13  H2  UNL     1      35.859 -27.988 -14.973  0.00  0.00    -0.088 HD
ATOM     14  H3  UNL     1      37.193 -27.674 -15.920  0.00  0.00    -0.088 HD
ENDBRANCH  10  11
BRANCH  10  16
ATOM     15  OXT UNL     1      36.331 -24.040 -15.783  0.00  0.00    -0.253 OA
ATOM     16  C   UNL     1      35.915 -24.941 -15.068  0.00  0.00    +0.293 C 
BRANCH  16  17
ATOM     17  O   UNL     1      34.651 -24.954 -14.568  0.00  0.00    -0.482 OA
ATOM     18  H   UNL     1      34.401 -24.332 -13.911  0.00  0.00    +0.295 HD
ENDBRANCH  16  17
ENDBRANCH  10  16
ENDBRANCH   1  10
TORSDOF 9
ENDMDL
MODEL 9
REMARK VINA RESULT:      -6.1      7.177      9.302
REMARK  Name = 445478
REMARK  9 active torsions:
REMARK  status: ('A' for Active; 'I' for Inactive)
REMARK    1  A    between atoms: C_1  and  C_2
REMARK    2  A    between atoms: C_1  and  CA_10
REMARK    3  A    between atoms: C_2  and  C_3
REMARK    4  A    between atoms: C_3  and  C_4
REMARK    5  A    between atoms: C_4  and  C_7
REMARK    6  A    between atoms: C_7  and  O_8
REMARK    7  A    between atoms: CA_10  and  N_11
REMARK    8  A    between atoms: CA_10  and  C_16
REMARK    9  A    between atoms: C_16  and  O_17
REMARK                            x       y       z     vdW  Elec       q    Type
REMARK                         _______ _______ _______ _____ _____    ______ ____
ROOT
ATOM      1  C   UNL     1      30.104 -22.676 -15.132  0.00  0.00    -0.011 C 
ENDROOT
BRANCH   1   2
ATOM      2  C   UNL     1      31.338 -23.416 -15.671  0.00  0.00    +0.003 C 
BRANCH   2   3
ATOM      3  C   UNL     1      31.818 -22.875 -17.026  0.00  0.00    +0.033 C 
BRANCH   3   4
ATOM      4  C   UNL     1      33.300 -23.014 -17.258  0.00  0.00    +0.053 C 
ATOM      5  C   UNL     1      34.133 -23.481 -16.316  0.00  0.00    +0.002 C 
BRANCH   4   7
ATOM      6  O   UNL     1      35.115 -22.573 -18.779  0.00  0.00    -0.245 OA
ATOM      7  C   UNL     1      33.917 -22.610 -18.548  0.00  0.00    +0.334 C 
BRANCH   7   8
ATOM      8  O   UNL     1      32.966 -22.275 -19.451  0.00  0.00    -0.477 OA
ATOM      9  H   UNL     1      32.242 -21.740 -19.193  0.00  0.00    +0.295 HD
ENDBRANCH   7   8
ENDBRANCH   4   7
ENDBRANCH   3   4
ENDBRANCH   2   3
ENDBRANCH   1   2
BRANCH   1  10
ATOM     10  CA  UNL     1      28.763 -23.385 -15.385  0.00  0.00    +0.036 C 
BRANCH  10  11
ATOM     11  N   UNL     1      28.890 -24.842 -15.410  0.00  0.00    +0.389 N 
ATOM     12  H1  UNL     1      28.091 -25.261 -14.933  0.00  0.00    -0.088 HD
ATOM     13  H2  UNL     1      29.751 -25.117 -14.938  0.00  0.00    -0.088 HD
ATOM     14  H3  UNL     1      28.914 -25.164 -16.378  0.00  0.00    -0.088 HD
ENDBRANCH  10  11
BRANCH  10  16
ATOM     15  OXT UNL     1      27.922 -21.786 -17.027  0.00  0.00    -0.253 OA
ATOM     16  C   UNL     1      28.117 -22.945 -16.687  0.00  0.00    +0.293 C 
BRANCH  16  17
ATOM     17  O   UNL     1      27.769 -24.004 -17.465  0.00  0.00    -0.482 OA
ATOM     18  H   UNL     1      28.366 -24.717 -17.580  0.00  0.00    +0.295 HD
ENDBRANCH  16  17
ENDBRANCH  10  16
ENDBRANCH   1  10
TORSDOF 9
ENDMDL
