MODEL 1
REMARK VINA RESULT:      -6.6      0.000      0.000
REMARK  Name = 444182
REMARK  13 active torsions:
REMARK  status: ('A' for Active; 'I' for Inactive)
REMARK    1  A    between atoms: P_1  and  O_3
REMARK    2  A    between atoms: P_1  and  O_5
REMARK    3  A    between atoms: P_1  and  O_13
REMARK    4  A    between atoms: O_5  and  C_6
REMARK    5  A    between atoms: C_6  and  C_7
REMARK    6  A    between atoms: C_7  and  O_8
REMARK    7  A    between atoms: C_7  and  C_10
REMARK    8  A    between atoms: C_10  and  O_11
REMARK    9  A    between atoms: O_13  and  C_14
REMARK   10  A    between atoms: C_14  and  C_15
REMARK   11  A    between atoms: C_15  and  N_16
REMARK   12  A    between atoms: C_15  and  C_21
REMARK   13  A    between atoms: C_21  and  O_22
REMARK                            x       y       z     vdW  Elec       q    Type
REMARK                         _______ _______ _______ _____ _____    ______ ____
ROOT
ATOM      1  P   UNK     1      37.329 -23.536 -11.745  0.00  0.00    +0.476 P 
ATOM      2  O   UNK     1      36.582 -23.854 -10.482  0.00  0.00    -0.227 OA
ENDROOT
BRANCH   1   3
ATOM      3  O   UNK     1      37.934 -22.036 -11.795  0.00  0.00    -0.302 OA
ATOM      4  H   UNK     1      38.766 -22.039 -12.294  0.00  0.00    +0.222 HD
ENDBRANCH   1   3
BRANCH   1   5
ATOM      5  O   UNK     1      36.437 -23.615 -13.094  0.00  0.00    -0.271 OA
BRANCH   5   6
ATOM      6  C   UNK     1      35.098 -24.069 -12.992  0.00  0.00    +0.185 C 
BRANCH   6   7
ATOM      7  C   UNK     1      34.589 -24.490 -14.366  0.00  0.00    +0.170 C 
BRANCH   7   8
ATOM      8  O   UNK     1      35.381 -25.585 -14.833  0.00  0.00    -0.379 OA
ATOM      9  H   UNK     1      36.029 -25.827 -14.153  0.00  0.00    +0.211 HD
ENDBRANCH   7   8
BRANCH   7  10
ATOM     10  C   UNK     1      34.712 -23.357 -15.377  0.00  0.00    +0.169 C 
BRANCH  10  11
ATOM     11  O   UNK     1      35.923 -23.520 -16.108  0.00  0.00    -0.379 OA
ATOM     12  H   UNK     1      36.324 -24.373 -15.883  0.00  0.00    +0.211 HD
ENDBRANCH  10  11
ENDBRANCH   7  10
ENDBRANCH   6   7
ENDBRANCH   5   6
ENDBRANCH   1   5
BRANCH   1  13
ATOM     13  O   UNK     1      38.603 -24.490 -12.029  0.00  0.00    -0.275 OA
BRANCH  13  14
ATOM     14  C   UNK     1      38.527 -25.492 -13.038  0.00  0.00    +0.143 C 
BRANCH  14  15
ATOM     15  C   UNK     1      39.217 -24.991 -14.304  0.00  0.00    +0.066 C 
BRANCH  15  16
ATOM     16  N   UNK     1      38.259 -24.946 -15.406  0.00  0.00    +0.390 N 
ATOM     17  H   UNK     1      38.387 -24.083 -15.934  0.00  0.00    -0.088 HD
ATOM     18  H   UNK     1      37.311 -24.980 -15.033  0.00  0.00    -0.088 HD
ATOM     19  H   UNK     1      38.411 -25.747 -16.021  0.00  0.00    -0.088 HD
ENDBRANCH  15  16
BRANCH  15  21
ATOM     20  O   UNK     1      41.053 -26.571 -13.954  0.00  0.00    -0.253 OA
ATOM     21  C   UNK     1      40.336 -25.931 -14.710  0.00  0.00    +0.295 C 
BRANCH  21  22
ATOM     22  O   UNK     1      40.454 -25.973 -16.063  0.00  0.00    -0.482 OA
ATOM     23  H   UNK     1      40.226 -25.222 -16.577  0.00  0.00    +0.295 HD
ENDBRANCH  21  22
ENDBRANCH  15  21
ENDBRANCH  14  15
ENDBRANCH  13  14
ENDBRANCH   1  13
TORSDOF 13
ENDMDL
MODEL 2
REMARK VINA RESULT:      -6.3      1.281      4.237
REMARK  Name = 444182
REMARK  13 active torsions:
REMARK  status: ('A' for Active; 'I' for Inactive)
REMARK    1  A    between atoms: P_1  and  O_3
REMARK    2  A    between atoms: P_1  and  O_5
REMARK    3  A    between atoms: P_1  and  O_13
REMARK    4  A    between atoms: O_5  and  C_6
REMARK    5  A    between atoms: C_6  and  C_7
REMARK    6  A    between atoms: C_7  and  O_8
REMARK    7  A    between atoms: C_7  and  C_10
REMARK    8  A    between atoms: C_10  and  O_11
REMARK    9  A    between atoms: O_13  and  C_14
REMARK   10  A    between atoms: C_14  and  C_15
REMARK   11  A    between atoms: C_15  and  N_16
REMARK   12  A    between atoms: C_15  and  C_21
REMARK   13  A    between atoms: C_21  and  O_22
REMARK                            x       y       z     vdW  Elec       q    Type
REMARK                         _______ _______ _______ _____ _____    ______ ____
ROOT
ATOM      1  P   UNK     1      37.153 -23.851 -11.722  0.00  0.00    +0.476 P 
ATOM      2  O   UNK     1      38.329 -22.919 -11.673  0.00  0.00    -0.227 OA
ENDROOT
BRANCH   1   3
ATOM      3  O   UNK     1      36.456 -24.111 -10.285  0.00  0.00    -0.302 OA
ATOM      4  H   UNK     1      36.132 -25.024 -10.242  0.00  0.00    +0.222 HD
ENDBRANCH   1   3
BRANCH   1   5
ATOM      5  O   UNK     1      37.500 -25.347 -12.236  0.00  0.00    -0.271 OA
BRANCH   5   6
ATOM      6  C   UNK     1      38.818 -25.619 -12.682  0.00  0.00    +0.185 C 
BRANCH   6   7
ATOM      7  C   UNK     1      38.856 -25.629 -14.206  0.00  0.00    +0.170 C 
BRANCH   7   8
ATOM      8  O   UNK     1      38.404 -26.903 -14.668  0.00  0.00    -0.379 OA
ATOM      9  H   UNK     1      39.027 -27.247 -15.328  0.00  0.00    +0.211 HD
ENDBRANCH   7   8
BRANCH   7  10
ATOM     10  C   UNK     1      40.271 -25.415 -14.728  0.00  0.00    +0.169 C 
BRANCH  10  11
ATOM     11  O   UNK     1      40.361 -25.940 -16.048  0.00  0.00    -0.379 OA
ATOM     12  H   UNK     1      39.627 -26.555 -16.203  0.00  0.00    +0.211 HD
ENDBRANCH  10  11
ENDBRANCH   7  10
ENDBRANCH   6   7
ENDBRANCH   5   6
ENDBRANCH   1   5
BRANCH   1  13
ATOM     13  O   UNK     1      35.942 -23.353 -12.669  0.00  0.00    -0.275 OA
BRANCH  13  14
ATOM     14  C   UNK     1      34.838 -24.217 -12.921  0.00  0.00    +0.143 C 
BRANCH  14  15
ATOM     15  C   UNK     1      34.803 -24.575 -14.404  0.00  0.00    +0.066 C 
BRANCH  15  16
ATOM     16  N   UNK     1      35.496 -25.843 -14.624  0.00  0.00    +0.390 N 
ATOM     17  H   UNK     1      36.498 -25.672 -14.707  0.00  0.00    -0.088 HD
ATOM     18  H   UNK     1      35.153 -26.273 -15.483  0.00  0.00    -0.088 HD
ATOM     19  H   UNK     1      35.321 -26.468 -13.837  0.00  0.00    -0.088 HD
ENDBRANCH  15  16
BRANCH  15  21
ATOM     20  O   UNK     1      36.460 -23.704 -15.981  0.00  0.00    -0.253 OA
ATOM     21  C   UNK     1      35.515 -23.518 -15.227  0.00  0.00    +0.295 C 
BRANCH  21  22
ATOM     22  O   UNK     1      34.963 -22.296 -15.012  0.00  0.00    -0.482 OA
ATOM     23  H   UNK     1      35.025 -21.896 -14.166  0.00  0.00    +0.295 HD
ENDBRANCH  21  22
ENDBRANCH  15  21
ENDBRANCH  14  15
ENDBRANCH  13  14
ENDBRANCH   1  13
TORSDOF 13
ENDMDL
MODEL 3
REMARK VINA RESULT:      -6.2      1.661      2.371
REMARK  Name = 444182
REMARK  13 active torsions:
REMARK  status: ('A' for Active; 'I' for Inactive)
REMARK    1  A    between atoms: P_1  and  O_3
REMARK    2  A    between atoms: P_1  and  O_5
REMARK    3  A    between atoms: P_1  and  O_13
REMARK    4  A    between atoms: O_5  and  C_6
REMARK    5  A    between atoms: C_6  and  C_7
REMARK    6  A    between atoms: C_7  and  O_8
REMARK    7  A    between atoms: C_7  and  C_10
REMARK    8  A    between atoms: C_10  and  O_11
REMARK    9  A    between atoms: O_13  and  C_14
REMARK   10  A    between atoms: C_14  and  C_15
REMARK   11  A    between atoms: C_15  and  N_16
REMARK   12  A    between atoms: C_15  and  C_21
REMARK   13  A    between atoms: C_21  and  O_22
REMARK                            x       y       z     vdW  Elec       q    Type
REMARK                         _______ _______ _______ _____ _____    ______ ____
ROOT
ATOM      1  P   UNK     1      37.460 -23.531 -12.055  0.00  0.00    +0.476 P 
ATOM      2  O   UNK     1      37.157 -24.329 -10.819  0.00  0.00    -0.227 OA
ENDROOT
BRANCH   1   3
ATOM      3  O   UNK     1      37.935 -22.013 -11.761  0.00  0.00    -0.302 OA
ATOM      4  H   UNK     1      37.870 -21.490 -12.575  0.00  0.00    +0.222 HD
ENDBRANCH   1   3
BRANCH   1   5
ATOM      5  O   UNK     1      36.202 -23.334 -13.056  0.00  0.00    -0.271 OA
BRANCH   5   6
ATOM      6  C   UNK     1      35.062 -24.158 -12.878  0.00  0.00    +0.185 C 
BRANCH   6   7
ATOM      7  C   UNK     1      34.438 -24.476 -14.232  0.00  0.00    +0.170 C 
BRANCH   7   8
ATOM      8  O   UNK     1      34.991 -23.594 -15.211  0.00  0.00    -0.379 OA
ATOM      9  H   UNK     1      35.118 -22.715 -14.818  0.00  0.00    +0.211 HD
ENDBRANCH   7   8
BRANCH   7  10
ATOM     10  C   UNK     1      32.929 -24.269 -14.211  0.00  0.00    +0.169 C 
BRANCH  10  11
ATOM     11  O   UNK     1      32.302 -25.480 -13.800  0.00  0.00    -0.379 OA
ATOM     12  H   UNK     1      32.978 -26.158 -13.647  0.00  0.00    +0.211 HD
ENDBRANCH  10  11
ENDBRANCH   7  10
ENDBRANCH   6   7
ENDBRANCH   5   6
ENDBRANCH   1   5
BRANCH   1  13
ATOM     13  O   UNK     1      38.636 -24.146 -12.978  0.00  0.00    -0.275 OA
BRANCH  13  14
ATOM     14  C   UNK     1      38.664 -25.542 -13.254  0.00  0.00    +0.143 C 
BRANCH  14  15
ATOM     15  C   UNK     1      38.366 -25.774 -14.733  0.00  0.00    +0.066 C 
BRANCH  15  16
ATOM     16  N   UNK     1      37.974 -24.515 -15.362  0.00  0.00    +0.390 N 
ATOM     17  H   UNK     1      38.596 -23.769 -15.050  0.00  0.00    -0.088 HD
ATOM     18  H   UNK     1      37.014 -24.289 -15.101  0.00  0.00    -0.088 HD
ATOM     19  H   UNK     1      38.037 -24.608 -16.377  0.00  0.00    -0.088 HD
ENDBRANCH  15  16
BRANCH  15  21
ATOM     20  O   UNK     1      36.740 -27.129 -15.962  0.00  0.00    -0.253 OA
ATOM     21  C   UNK     1      37.213 -26.745 -14.901  0.00  0.00    +0.295 C 
BRANCH  21  22
ATOM     22  O   UNK     1      36.748 -27.146 -13.689  0.00  0.00    -0.482 OA
ATOM     23  H   UNK     1      36.567 -28.053 -13.534  0.00  0.00    +0.295 HD
ENDBRANCH  21  22
ENDBRANCH  15  21
ENDBRANCH  14  15
ENDBRANCH  13  14
ENDBRANCH   1  13
TORSDOF 13
ENDMDL
MODEL 4
REMARK VINA RESULT:      -6.1      1.996      2.582
REMARK  Name = 444182
REMARK  13 active torsions:
REMARK  status: ('A' for Active; 'I' for Inactive)
REMARK    1  A    between atoms: P_1  and  O_3
REMARK    2  A    between atoms: P_1  and  O_5
REMARK    3  A    between atoms: P_1  and  O_13
REMARK    4  A    between atoms: O_5  and  C_6
REMARK    5  A    between atoms: C_6  and  C_7
REMARK    6  A    between atoms: C_7  and  O_8
REMARK    7  A    between atoms: C_7  and  C_10
REMARK    8  A    between atoms: C_10  and  O_11
REMARK    9  A    between atoms: O_13  and  C_14
REMARK   10  A    between atoms: C_14  and  C_15
REMARK   11  A    between atoms: C_15  and  N_16
REMARK   12  A    between atoms: C_15  and  C_21
REMARK   13  A    between atoms: C_21  and  O_22
REMARK                            x       y       z     vdW  Elec       q    Type
REMARK                         _______ _______ _______ _____ _____    ______ ____
ROOT
ATOM      1  P   UNK     1      35.947 -24.276 -11.025  0.00  0.00    +0.476 P 
ATOM      2  O   UNK     1      35.303 -24.556  -9.698  0.00  0.00    -0.227 OA
ENDROOT
BRANCH   1   3
ATOM      3  O   UNK     1      37.141 -23.186 -10.963  0.00  0.00    -0.302 OA
ATOM      4  H   UNK     1      37.632 -23.195 -11.799  0.00  0.00    +0.222 HD
ENDBRANCH   1   3
BRANCH   1   5
ATOM      5  O   UNK     1      34.949 -23.662 -12.143  0.00  0.00    -0.271 OA
BRANCH   5   6
ATOM      6  C   UNK     1      34.338 -24.551 -13.064  0.00  0.00    +0.185 C 
BRANCH   6   7
ATOM      7  C   UNK     1      33.952 -23.796 -14.331  0.00  0.00    +0.170 C 
BRANCH   7   8
ATOM      8  O   UNK     1      34.795 -22.649 -14.456  0.00  0.00    -0.379 OA
ATOM      9  H   UNK     1      34.650 -22.057 -13.702  0.00  0.00    +0.211 HD
ENDBRANCH   7   8
BRANCH   7  10
ATOM     10  C   UNK     1      32.508 -23.313 -14.273  0.00  0.00    +0.169 C 
BRANCH  10  11
ATOM     11  O   UNK     1      32.192 -22.965 -12.929  0.00  0.00    -0.379 OA
ATOM     12  H   UNK     1      31.570 -22.221 -12.926  0.00  0.00    +0.211 HD
ENDBRANCH  10  11
ENDBRANCH   7  10
ENDBRANCH   6   7
ENDBRANCH   5   6
ENDBRANCH   1   5
BRANCH   1  13
ATOM     13  O   UNK     1      36.620 -25.566 -11.729  0.00  0.00    -0.275 OA
BRANCH  13  14
ATOM     14  C   UNK     1      37.919 -25.463 -12.303  0.00  0.00    +0.143 C 
BRANCH  14  15
ATOM     15  C   UNK     1      37.809 -25.538 -13.824  0.00  0.00    +0.066 C 
BRANCH  15  16
ATOM     16  N   UNK     1      38.730 -26.548 -14.338  0.00  0.00    +0.390 N 
ATOM     17  H   UNK     1      39.571 -26.568 -13.761  0.00  0.00    -0.088 HD
ATOM     18  H   UNK     1      38.983 -26.319 -15.299  0.00  0.00    -0.088 HD
ATOM     19  H   UNK     1      38.279 -27.463 -14.314  0.00  0.00    -0.088 HD
ENDBRANCH  15  16
BRANCH  15  21
ATOM     20  O   UNK     1      38.989 -24.048 -15.366  0.00  0.00    -0.253 OA
ATOM     21  C   UNK     1      38.191 -24.212 -14.453  0.00  0.00    +0.295 C 
BRANCH  21  22
ATOM     22  O   UNK     1      37.523 -23.191 -13.856  0.00  0.00    -0.482 OA
ATOM     23  H   UNK     1      36.748 -22.843 -14.251  0.00  0.00    +0.295 HD
ENDBRANCH  21  22
ENDBRANCH  15  21
ENDBRANCH  14  15
ENDBRANCH  13  14
ENDBRANCH   1  13
TORSDOF 13
ENDMDL
MODEL 5
REMARK VINA RESULT:      -6.1      3.278      4.826
REMARK  Name = 444182
REMARK  13 active torsions:
REMARK  status: ('A' for Active; 'I' for Inactive)
REMARK    1  A    between atoms: P_1  and  O_3
REMARK    2  A    between atoms: P_1  and  O_5
REMARK    3  A    between atoms: P_1  and  O_13
REMARK    4  A    between atoms: O_5  and  C_6
REMARK    5  A    between atoms: C_6  and  C_7
REMARK    6  A    between atoms: C_7  and  O_8
REMARK    7  A    between atoms: C_7  and  C_10
REMARK    8  A    between atoms: C_10  and  O_11
REMARK    9  A    between atoms: O_13  and  C_14
REMARK   10  A    between atoms: C_14  and  C_15
REMARK   11  A    between atoms: C_15  and  N_16
REMARK   12  A    between atoms: C_15  and  C_21
REMARK   13  A    between atoms: C_21  and  O_22
REMARK                            x       y       z     vdW  Elec       q    Type
REMARK                         _______ _______ _______ _____ _____    ______ ____
ROOT
ATOM      1  P   UNK     1      34.947 -23.658 -15.348  0.00  0.00    +0.476 P 
ATOM      2  O   UNK     1      35.028 -23.568 -16.846  0.00  0.00    -0.227 OA
ENDROOT
BRANCH   1   3
ATOM      3  O   UNK     1      34.823 -25.169 -14.783  0.00  0.00    -0.302 OA
ATOM      4  H   UNK     1      35.617 -25.671 -15.024  0.00  0.00    +0.222 HD
ENDBRANCH   1   3
BRANCH   1   5
ATOM      5  O   UNK     1      33.662 -22.917 -14.698  0.00  0.00    -0.271 OA
BRANCH   5   6
ATOM      6  C   UNK     1      32.373 -23.248 -15.187  0.00  0.00    +0.185 C 
BRANCH   6   7
ATOM      7  C   UNK     1      31.410 -23.435 -14.019  0.00  0.00    +0.170 C 
BRANCH   7   8
ATOM      8  O   UNK     1      31.933 -22.750 -12.879  0.00  0.00    -0.379 OA
ATOM      9  H   UNK     1      31.572 -23.147 -12.071  0.00  0.00    +0.211 HD
ENDBRANCH   7   8
BRANCH   7  10
ATOM     10  C   UNK     1      31.257 -24.906 -13.655  0.00  0.00    +0.169 C 
BRANCH  10  11
ATOM     11  O   UNK     1      32.490 -25.380 -13.123  0.00  0.00    -0.379 OA
ATOM     12  H   UNK     1      32.945 -25.917 -13.790  0.00  0.00    +0.211 HD
ENDBRANCH  10  11
ENDBRANCH   7  10
ENDBRANCH   6   7
ENDBRANCH   5   6
ENDBRANCH   1   5
BRANCH   1  13
ATOM     13  O   UNK     1      36.222 -23.044 -14.570  0.00  0.00    -0.275 OA
BRANCH  13  14
ATOM     14  C   UNK     1      36.988 -23.871 -13.701  0.00  0.00    +0.143 C 
BRANCH  14  15
ATOM     15  C   UNK     1      36.794 -23.410 -12.259  0.00  0.00    +0.066 C 
BRANCH  15  16
ATOM     16  N   UNK     1      37.995 -23.702 -11.479  0.00  0.00    +0.390 N 
ATOM     17  H   UNK     1      37.970 -23.175 -10.606  0.00  0.00    -0.088 HD
ATOM     18  H   UNK     1      38.821 -23.435 -12.015  0.00  0.00    -0.088 HD
ATOM     19  H   UNK     1      38.031 -24.701 -11.273  0.00  0.00    -0.088 HD
ENDBRANCH  15  16
BRANCH  15  21
ATOM     20  O   UNK     1      35.728 -25.112 -10.859  0.00  0.00    -0.253 OA
ATOM     21  C   UNK     1      35.640 -24.151 -11.611  0.00  0.00    +0.295 C 
BRANCH  21  22
ATOM     22  O   UNK     1      34.454 -23.605 -11.986  0.00  0.00    -0.482 OA
ATOM     23  H   UNK     1      33.678 -23.782 -11.489  0.00  0.00    +0.295 HD
ENDBRANCH  21  22
ENDBRANCH  15  21
ENDBRANCH  14  15
ENDBRANCH  13  14
ENDBRANCH   1  13
TORSDOF 13
ENDMDL
MODEL 6
REMARK VINA RESULT:      -6.0      2.102      5.073
REMARK  Name = 444182
REMARK  13 active torsions:
REMARK  status: ('A' for Active; 'I' for Inactive)
REMARK    1  A    between atoms: P_1  and  O_3
REMARK    2  A    between atoms: P_1  and  O_5
REMARK    3  A    between atoms: P_1  and  O_13
REMARK    4  A    between atoms: O_5  and  C_6
REMARK    5  A    between atoms: C_6  and  C_7
REMARK    6  A    between atoms: C_7  and  O_8
REMARK    7  A    between atoms: C_7  and  C_10
REMARK    8  A    between atoms: C_10  and  O_11
REMARK    9  A    between atoms: O_13  and  C_14
REMARK   10  A    between atoms: C_14  and  C_15
REMARK   11  A    between atoms: C_15  and  N_16
REMARK   12  A    between atoms: C_15  and  C_21
REMARK   13  A    between atoms: C_21  and  O_22
REMARK                            x       y       z     vdW  Elec       q    Type
REMARK                         _______ _______ _______ _____ _____    ______ ____
ROOT
ATOM      1  P   UNK     1      36.333 -24.299 -11.708  0.00  0.00    +0.476 P 
ATOM      2  O   UNK     1      37.341 -23.352 -11.122  0.00  0.00    -0.227 OA
ENDROOT
BRANCH   1   3
ATOM      3  O   UNK     1      35.449 -25.087 -10.606  0.00  0.00    -0.302 OA
ATOM      4  H   UNK     1      35.196 -24.476  -9.896  0.00  0.00    +0.222 HD
ENDBRANCH   1   3
BRANCH   1   5
ATOM      5  O   UNK     1      36.969 -25.497 -12.592  0.00  0.00    -0.271 OA
BRANCH   5   6
ATOM      6  C   UNK     1      38.368 -25.496 -12.823  0.00  0.00    +0.185 C 
BRANCH   6   7
ATOM      7  C   UNK     1      38.646 -25.698 -14.309  0.00  0.00    +0.170 C 
BRANCH   7   8
ATOM      8  O   UNK     1      38.364 -27.058 -14.647  0.00  0.00    -0.379 OA
ATOM      9  H   UNK     1      38.817 -27.285 -15.475  0.00  0.00    +0.211 HD
ENDBRANCH   7   8
BRANCH   7  10
ATOM     10  C   UNK     1      40.107 -25.425 -14.643  0.00  0.00    +0.169 C 
BRANCH  10  11
ATOM     11  O   UNK     1      40.380 -25.908 -15.954  0.00  0.00    -0.379 OA
ATOM     12  H   UNK     1      41.312 -26.165 -16.017  0.00  0.00    +0.211 HD
ENDBRANCH  10  11
ENDBRANCH   7  10
ENDBRANCH   6   7
ENDBRANCH   5   6
ENDBRANCH   1   5
BRANCH   1  13
ATOM     13  O   UNK     1      35.240 -23.602 -12.673  0.00  0.00    -0.275 OA
BRANCH  13  14
ATOM     14  C   UNK     1      35.465 -23.552 -14.078  0.00  0.00    +0.143 C 
BRANCH  14  15
ATOM     15  C   UNK     1      34.293 -24.209 -14.802  0.00  0.00    +0.066 C 
BRANCH  15  16
ATOM     16  N   UNK     1      34.097 -23.575 -16.105  0.00  0.00    +0.390 N 
ATOM     17  H   UNK     1      34.782 -22.829 -16.226  0.00  0.00    -0.088 HD
ATOM     18  H   UNK     1      33.156 -23.185 -16.154  0.00  0.00    -0.088 HD
ATOM     19  H   UNK     1      34.216 -24.270 -16.842  0.00  0.00    -0.088 HD
ENDBRANCH  15  16
BRANCH  15  21
ATOM     20  O   UNK     1      32.210 -23.115 -14.129  0.00  0.00    -0.253 OA
ATOM     21  C   UNK     1      33.010 -24.033 -14.014  0.00  0.00    +0.295 C 
BRANCH  21  22
ATOM     22  O   UNK     1      32.853 -25.050 -13.127  0.00  0.00    -0.482 OA
ATOM     23  H   UNK     1      33.124 -24.941 -12.236  0.00  0.00    +0.295 HD
ENDBRANCH  21  22
ENDBRANCH  15  21
ENDBRANCH  14  15
ENDBRANCH  13  14
ENDBRANCH   1  13
TORSDOF 13
ENDMDL
MODEL 7
REMARK VINA RESULT:      -5.9      2.239      5.031
REMARK  Name = 444182
REMARK  13 active torsions:
REMARK  status: ('A' for Active; 'I' for Inactive)
REMARK    1  A    between atoms: P_1  and  O_3
REMARK    2  A    between atoms: P_1  and  O_5
REMARK    3  A    between atoms: P_1  and  O_13
REMARK    4  A    between atoms: O_5  and  C_6
REMARK    5  A    between atoms: C_6  and  C_7
REMARK    6  A    between atoms: C_7  and  O_8
REMARK    7  A    between atoms: C_7  and  C_10
REMARK    8  A    between atoms: C_10  and  O_11
REMARK    9  A    between atoms: O_13  and  C_14
REMARK   10  A    between atoms: C_14  and  C_15
REMARK   11  A    between atoms: C_15  and  N_16
REMARK   12  A    between atoms: C_15  and  C_21
REMARK   13  A    between atoms: C_21  and  O_22
REMARK                            x       y       z     vdW  Elec       q    Type
REMARK                         _______ _______ _______ _____ _____    ______ ____
ROOT
ATOM      1  P   UNK     1      37.776 -25.607 -14.460  0.00  0.00    +0.476 P 
ATOM      2  O   UNK     1      37.206 -26.725 -13.635  0.00  0.00    -0.227 OA
ENDROOT
BRANCH   1   3
ATOM      3  O   UNK     1      39.041 -26.038 -15.372  0.00  0.00    -0.302 OA
ATOM      4  H   UNK     1      39.643 -25.284 -15.469  0.00  0.00    +0.222 HD
ENDBRANCH   1   3
BRANCH   1   5
ATOM      5  O   UNK     1      38.352 -24.361 -13.602  0.00  0.00    -0.271 OA
BRANCH   5   6
ATOM      6  C   UNK     1      38.124 -24.342 -12.202  0.00  0.00    +0.185 C 
BRANCH   6   7
ATOM      7  C   UNK     1      36.934 -23.444 -11.884  0.00  0.00    +0.170 C 
BRANCH   7   8
ATOM      8  O   UNK     1      37.405 -22.284 -11.195  0.00  0.00    -0.379 OA
ATOM      9  H   UNK     1      38.368 -22.341 -11.089  0.00  0.00    +0.211 HD
ENDBRANCH   7   8
BRANCH   7  10
ATOM     10  C   UNK     1      35.930 -24.151 -10.982  0.00  0.00    +0.169 C 
BRANCH  10  11
ATOM     11  O   UNK     1      35.761 -25.489 -11.438  0.00  0.00    -0.379 OA
ATOM     12  H   UNK     1      35.557 -26.064 -10.684  0.00  0.00    +0.211 HD
ENDBRANCH  10  11
ENDBRANCH   7  10
ENDBRANCH   6   7
ENDBRANCH   5   6
ENDBRANCH   1   5
BRANCH   1  13
ATOM     13  O   UNK     1      36.736 -24.949 -15.507  0.00  0.00    -0.275 OA
BRANCH  13  14
ATOM     14  C   UNK     1      36.279 -23.615 -15.309  0.00  0.00    +0.143 C 
BRANCH  14  15
ATOM     15  C   UNK     1      34.815 -23.639 -14.876  0.00  0.00    +0.066 C 
BRANCH  15  16
ATOM     16  N   UNK     1      34.502 -24.925 -14.257  0.00  0.00    +0.390 N 
ATOM     17  H   UNK     1      35.265 -25.580 -14.429  0.00  0.00    -0.088 HD
ATOM     18  H   UNK     1      33.641 -25.295 -14.659  0.00  0.00    -0.088 HD
ATOM     19  H   UNK     1      34.382 -24.799 -13.252  0.00  0.00    -0.088 HD
ENDBRANCH  15  16
BRANCH  15  21
ATOM     20  O   UNK     1      32.679 -23.423 -16.051  0.00  0.00    -0.253 OA
ATOM     21  C   UNK     1      33.901 -23.478 -16.076  0.00  0.00    +0.295 C 
BRANCH  21  22
ATOM     22  O   UNK     1      34.627 -23.406 -17.221  0.00  0.00    -0.482 OA
ATOM     23  H   UNK     1      35.175 -22.662 -17.383  0.00  0.00    +0.295 HD
ENDBRANCH  21  22
ENDBRANCH  15  21
ENDBRANCH  14  15
ENDBRANCH  13  14
ENDBRANCH   1  13
TORSDOF 13
ENDMDL
MODEL 8
REMARK VINA RESULT:      -5.8      2.182      4.582
REMARK  Name = 444182
REMARK  13 active torsions:
REMARK  status: ('A' for Active; 'I' for Inactive)
REMARK    1  A    between atoms: P_1  and  O_3
REMARK    2  A    between atoms: P_1  and  O_5
REMARK    3  A    between atoms: P_1  and  O_13
REMARK    4  A    between atoms: O_5  and  C_6
REMARK    5  A    between atoms: C_6  and  C_7
REMARK    6  A    between atoms: C_7  and  O_8
REMARK    7  A    between atoms: C_7  and  C_10
REMARK    8  A    between atoms: C_10  and  O_11
REMARK    9  A    between atoms: O_13  and  C_14
REMARK   10  A    between atoms: C_14  and  C_15
REMARK   11  A    between atoms: C_15  and  N_16
REMARK   12  A    between atoms: C_15  and  C_21
REMARK   13  A    between atoms: C_21  and  O_22
REMARK                            x       y       z     vdW  Elec       q    Type
REMARK                         _______ _______ _______ _____ _____    ______ ____
ROOT
ATOM      1  P   UNK     1      37.043 -23.831 -12.013  0.00  0.00    +0.476 P 
ATOM      2  O   UNK     1      37.342 -22.798 -10.964  0.00  0.00    -0.227 OA
ENDROOT
BRANCH   1   3
ATOM      3  O   UNK     1      36.767 -25.312 -11.422  0.00  0.00    -0.302 OA
ATOM      4  H   UNK     1      35.885 -25.341 -11.021  0.00  0.00    +0.222 HD
ENDBRANCH   1   3
BRANCH   1   5
ATOM      5  O   UNK     1      38.240 -24.078 -13.075  0.00  0.00    -0.271 OA
BRANCH   5   6
ATOM      6  C   UNK     1      38.715 -25.401 -13.262  0.00  0.00    +0.185 C 
BRANCH   6   7
ATOM      7  C   UNK     1      38.359 -25.884 -14.663  0.00  0.00    +0.170 C 
BRANCH   7   8
ATOM      8  O   UNK     1      37.902 -24.769 -15.431  0.00  0.00    -0.379 OA
ATOM      9  H   UNK     1      37.477 -24.125 -14.843  0.00  0.00    +0.211 HD
ENDBRANCH   7   8
BRANCH   7  10
ATOM     10  C   UNK     1      37.241 -26.919 -14.627  0.00  0.00    +0.169 C 
BRANCH  10  11
ATOM     11  O   UNK     1      36.454 -26.790 -15.806  0.00  0.00    -0.379 OA
ATOM     12  H   UNK     1      36.706 -27.479 -16.441  0.00  0.00    +0.211 HD
ENDBRANCH  10  11
ENDBRANCH   7  10
ENDBRANCH   6   7
ENDBRANCH   5   6
ENDBRANCH   1   5
BRANCH   1  13
ATOM     13  O   UNK     1      35.742 -23.513 -12.916  0.00  0.00    -0.275 OA
BRANCH  13  14
ATOM     14  C   UNK     1      34.873 -24.571 -13.305  0.00  0.00    +0.143 C 
BRANCH  14  15
ATOM     15  C   UNK     1      33.639 -23.989 -13.989  0.00  0.00    +0.066 C 
BRANCH  15  16
ATOM     16  N   UNK     1      32.525 -24.929 -13.884  0.00  0.00    +0.390 N 
ATOM     17  H   UNK     1      32.375 -25.172 -12.905  0.00  0.00    -0.088 HD
ATOM     18  H   UNK     1      32.742 -25.773 -14.414  0.00  0.00    -0.088 HD
ATOM     19  H   UNK     1      31.680 -24.498 -14.261  0.00  0.00    -0.088 HD
ENDBRANCH  15  16
BRANCH  15  21
ATOM     20  O   UNK     1      33.127 -23.263 -16.270  0.00  0.00    -0.253 OA
ATOM     21  C   UNK     1      33.903 -23.760 -15.465  0.00  0.00    +0.295 C 
BRANCH  21  22
ATOM     22  O   UNK     1      35.145 -24.195 -15.799  0.00  0.00    -0.482 OA
ATOM     23  H   UNK     1      35.753 -23.609 -16.207  0.00  0.00    +0.295 HD
ENDBRANCH  21  22
ENDBRANCH  15  21
ENDBRANCH  14  15
ENDBRANCH  13  14
ENDBRANCH   1  13
TORSDOF 13
ENDMDL
MODEL 9
REMARK VINA RESULT:      -5.8      2.553      4.364
REMARK  Name = 444182
REMARK  13 active torsions:
REMARK  status: ('A' for Active; 'I' for Inactive)
REMARK    1  A    between atoms: P_1  and  O_3
REMARK    2  A    between atoms: P_1  and  O_5
REMARK    3  A    between atoms: P_1  and  O_13
REMARK    4  A    between atoms: O_5  and  C_6
REMARK    5  A    between atoms: C_6  and  C_7
REMARK    6  A    between atoms: C_7  and  O_8
REMARK    7  A    between atoms: C_7  and  C_10
REMARK    8  A    between atoms: C_10  and  O_11
REMARK    9  A    between atoms: O_13  and  C_14
REMARK   10  A    between atoms: C_14  and  C_15
REMARK   11  A    between atoms: C_15  and  N_16
REMARK   12  A    between atoms: C_15  and  C_21
REMARK   13  A    between atoms: C_21  and  O_22
REMARK                            x       y       z     vdW  Elec       q    Type
REMARK                         _______ _______ _______ _____ _____    ______ ____
ROOT
ATOM      1  P   UNK     1      37.396 -26.058 -15.061  0.00  0.00    +0.476 P 
ATOM      2  O   UNK     1      38.885 -25.863 -15.104  0.00  0.00    -0.227 OA
ENDROOT
BRANCH   1   3
ATOM      3  O   UNK     1      36.852 -27.212 -16.055  0.00  0.00    -0.302 OA
ATOM      4  H   UNK     1      36.115 -27.682 -15.633  0.00  0.00    +0.222 HD
ENDBRANCH   1   3
BRANCH   1   5
ATOM      5  O   UNK     1      36.534 -24.759 -15.501  0.00  0.00    -0.271 OA
BRANCH   5   6
ATOM      6  C   UNK     1      35.140 -24.755 -15.243  0.00  0.00    +0.185 C 
BRANCH   6   7
ATOM      7  C   UNK     1      34.558 -23.384 -15.570  0.00  0.00    +0.170 C 
BRANCH   7   8
ATOM      8  O   UNK     1      35.038 -22.441 -14.610  0.00  0.00    -0.379 OA
ATOM      9  H   UNK     1      35.967 -22.233 -14.799  0.00  0.00    +0.211 HD
ENDBRANCH   7   8
BRANCH   7  10
ATOM     10  C   UNK     1      33.036 -23.395 -15.498  0.00  0.00    +0.169 C 
BRANCH  10  11
ATOM     11  O   UNK     1      32.510 -23.321 -16.819  0.00  0.00    -0.379 OA
ATOM     12  H   UNK     1      33.215 -23.066 -17.434  0.00  0.00    +0.211 HD
ENDBRANCH  10  11
ENDBRANCH   7  10
ENDBRANCH   6   7
ENDBRANCH   5   6
ENDBRANCH   1   5
BRANCH   1  13
ATOM     13  O   UNK     1      36.816 -26.473 -13.611  0.00  0.00    -0.275 OA
BRANCH  13  14
ATOM     14  C   UNK     1      37.478 -26.033 -12.430  0.00  0.00    +0.143 C 
BRANCH  14  15
ATOM     15  C   UNK     1      37.078 -24.591 -12.131  0.00  0.00    +0.066 C 
BRANCH  15  16
ATOM     16  N   UNK     1      38.205 -23.878 -11.534  0.00  0.00    +0.390 N 
ATOM     17  H   UNK     1      38.792 -23.490 -12.272  0.00  0.00    -0.088 HD
ATOM     18  H   UNK     1      38.754 -24.524 -10.967  0.00  0.00    -0.088 HD
ATOM     19  H   UNK     1      37.855 -23.122 -10.944  0.00  0.00    -0.088 HD
ENDBRANCH  15  16
BRANCH  15  21
ATOM     20  O   UNK     1      36.009 -24.213  -9.962  0.00  0.00    -0.253 OA
ATOM     21  C   UNK     1      35.934 -24.548 -11.136  0.00  0.00    +0.295 C 
BRANCH  21  22
ATOM     22  O   UNK     1      34.777 -24.950 -11.723  0.00  0.00    -0.482 OA
ATOM     23  H   UNK     1      34.480 -25.833 -11.618  0.00  0.00    +0.295 HD
ENDBRANCH  21  22
ENDBRANCH  15  21
ENDBRANCH  14  15
ENDBRANCH  13  14
ENDBRANCH   1  13
TORSDOF 13
ENDMDL
