MODEL 1
REMARK VINA RESULT:      -6.5      0.000      0.000
REMARK  Name = 86
REMARK  4 active torsions:
REMARK  status: ('A' for Active; 'I' for Inactive)
REMARK    1  A    between atoms: C_1  and  N_7
REMARK    2  A    between atoms: C_2  and  C_13
REMARK    3  A    between atoms: C_3  and  O_10
REMARK    4  A    between atoms: C_13  and  O_14
REMARK                            x       y       z     vdW  Elec       q    Type
REMARK                         _______ _______ _______ _____ _____    ______ ____
ROOT
ATOM      1  C   UNL     1      35.458 -20.670 -20.158  0.00  0.00    +0.082 C 
ATOM      2  C   UNL     1      34.347 -21.355 -19.667  0.00  0.00    +0.091 C 
ATOM      3  C   UNL     1      35.285 -19.513 -20.919  0.00  0.00    +0.147 C 
ATOM      4  C   UNL     1      33.061 -20.882 -19.936  0.00  0.00    +0.008 C 
ATOM      5  C   UNL     1      33.999 -19.043 -21.189  0.00  0.00    +0.038 C 
ATOM      6  C   UNL     1      32.888 -19.727 -20.698  0.00  0.00    +0.003 C 
ENDROOT
BRANCH   1   7
ATOM      7  N   UNL     1      36.764 -21.142 -19.888  0.00  0.00    -0.354 N 
ATOM      8  H   UNL     1      37.367 -20.620 -19.311  0.00  0.00    +0.142 HD
ATOM      9  H   UNL     1      37.070 -21.992 -20.278  0.00  0.00    +0.142 HD
ENDBRANCH   1   7
BRANCH   3  10
ATOM     10  O   UNL     1      36.356 -18.829 -21.409  0.00  0.00    -0.504 OA
ATOM     11  H   UNL     1      36.269 -18.319 -22.191  0.00  0.00    +0.292 HD
ENDBRANCH   3  10
BRANCH   2  13
ATOM     12  O   UNL     1      35.078 -22.637 -17.784  0.00  0.00    -0.245 OA
ATOM     13  C   UNL     1      34.492 -22.564 -18.868  0.00  0.00    +0.339 C 
BRANCH  13  14
ATOM     14  O   UNL     1      33.899 -23.643 -19.449  0.00  0.00    -0.477 OA
ATOM     15  H   UNL     1      33.118 -23.532 -19.953  0.00  0.00    +0.295 HD
ENDBRANCH  13  14
ENDBRANCH   2  13
TORSDOF 4
ENDMDL
MODEL 2
REMARK VINA RESULT:      -6.5      1.792      2.404
REMARK  Name = 86
REMARK  4 active torsions:
REMARK  status: ('A' for Active; 'I' for Inactive)
REMARK    1  A    between atoms: C_1  and  N_7
REMARK    2  A    between atoms: C_2  and  C_13
REMARK    3  A    between atoms: C_3  and  O_10
REMARK    4  A    between atoms: C_13  and  O_14
REMARK                            x       y       z     vdW  Elec       q    Type
REMARK                         _______ _______ _______ _____ _____    ______ ____
ROOT
ATOM      1  C   UNL     1      33.899 -20.286 -20.445  0.00  0.00    +0.082 C 
ATOM      2  C   UNL     1      34.428 -21.353 -19.719  0.00  0.00    +0.091 C 
ATOM      3  C   UNL     1      34.747 -19.313 -20.974  0.00  0.00    +0.147 C 
ATOM      4  C   UNL     1      35.807 -21.448 -19.523  0.00  0.00    +0.008 C 
ATOM      5  C   UNL     1      36.126 -19.408 -20.777  0.00  0.00    +0.038 C 
ATOM      6  C   UNL     1      36.655 -20.475 -20.052  0.00  0.00    +0.003 C 
ENDROOT
BRANCH   1   7
ATOM      7  N   UNL     1      32.503 -20.184 -20.648  0.00  0.00    -0.354 N 
ATOM      8  H   UNL     1      32.131 -20.256 -21.557  0.00  0.00    +0.142 HD
ATOM      9  H   UNL     1      31.904 -20.041 -19.881  0.00  0.00    +0.142 HD
ENDBRANCH   1   7
BRANCH   3  10
ATOM     10  O   UNL     1      34.252 -18.262 -21.686  0.00  0.00    -0.504 OA
ATOM     11  H   UNL     1      34.020 -18.374 -22.587  0.00  0.00    +0.292 HD
ENDBRANCH   3  10
BRANCH   2  13
ATOM     12  O   UNL     1      32.551 -22.183 -18.491  0.00  0.00    -0.245 OA
ATOM     13  C   UNL     1      33.572 -22.387 -19.154  0.00  0.00    +0.339 C 
BRANCH  13  14
ATOM     14  O   UNL     1      34.018 -23.641 -19.434  0.00  0.00    -0.477 OA
ATOM     15  H   UNL     1      34.876 -23.903 -19.164  0.00  0.00    +0.295 HD
ENDBRANCH  13  14
ENDBRANCH   2  13
TORSDOF 4
ENDMDL
MODEL 3
REMARK VINA RESULT:      -6.4      1.871      4.357
REMARK  Name = 86
REMARK  4 active torsions:
REMARK  status: ('A' for Active; 'I' for Inactive)
REMARK    1  A    between atoms: C_1  and  N_7
REMARK    2  A    between atoms: C_2  and  C_13
REMARK    3  A    between atoms: C_3  and  O_10
REMARK    4  A    between atoms: C_13  and  O_14
REMARK                            x       y       z     vdW  Elec       q    Type
REMARK                         _______ _______ _______ _____ _____    ______ ____
ROOT
ATOM      1  C   UNL     1      33.750 -20.584 -20.151  0.00  0.00    +0.082 C 
ATOM      2  C   UNL     1      34.932 -19.977 -20.576  0.00  0.00    +0.091 C 
ATOM      3  C   UNL     1      33.798 -21.682 -19.292  0.00  0.00    +0.147 C 
ATOM      4  C   UNL     1      36.164 -20.470 -20.141  0.00  0.00    +0.008 C 
ATOM      5  C   UNL     1      35.030 -22.174 -18.859  0.00  0.00    +0.038 C 
ATOM      6  C   UNL     1      36.212 -21.569 -19.283  0.00  0.00    +0.003 C 
ENDROOT
BRANCH   1   7
ATOM      7  N   UNL     1      32.499 -20.089 -20.587  0.00  0.00    -0.354 N 
ATOM      8  H   UNL     1      32.287 -19.133 -20.491  0.00  0.00    +0.142 HD
ATOM      9  H   UNL     1      31.840 -20.702 -20.986  0.00  0.00    +0.142 HD
ENDBRANCH   1   7
BRANCH   3  10
ATOM     10  O   UNL     1      32.656 -22.289 -18.865  0.00  0.00    -0.504 OA
ATOM     11  H   UNL     1      32.645 -23.214 -18.714  0.00  0.00    +0.292 HD
ENDBRANCH   3  10
BRANCH   2  13
ATOM     12  O   UNL     1      34.536 -18.844 -22.645  0.00  0.00    -0.245 OA
ATOM     13  C   UNL     1      34.918 -18.828 -21.471  0.00  0.00    +0.339 C 
BRANCH  13  14
ATOM     14  O   UNL     1      35.382 -17.698 -20.872  0.00  0.00    -0.477 OA
ATOM     15  H   UNL     1      35.869 -17.071 -21.369  0.00  0.00    +0.295 HD
ENDBRANCH  13  14
ENDBRANCH   2  13
TORSDOF 4
ENDMDL
MODEL 4
REMARK VINA RESULT:      -6.3      6.793      8.010
REMARK  Name = 86
REMARK  4 active torsions:
REMARK  status: ('A' for Active; 'I' for Inactive)
REMARK    1  A    between atoms: C_1  and  N_7
REMARK    2  A    between atoms: C_2  and  C_13
REMARK    3  A    between atoms: C_3  and  O_10
REMARK    4  A    between atoms: C_13  and  O_14
REMARK                            x       y       z     vdW  Elec       q    Type
REMARK                         _______ _______ _______ _____ _____    ______ ____
ROOT
ATOM      1  C   UNL     1      29.898 -24.384 -14.905  0.00  0.00    +0.082 C 
ATOM      2  C   UNL     1      29.887 -23.570 -16.038  0.00  0.00    +0.091 C 
ATOM      3  C   UNL     1      31.075 -24.549 -14.176  0.00  0.00    +0.147 C 
ATOM      4  C   UNL     1      31.055 -22.922 -16.442  0.00  0.00    +0.008 C 
ATOM      5  C   UNL     1      32.243 -23.902 -14.581  0.00  0.00    +0.038 C 
ATOM      6  C   UNL     1      32.233 -23.089 -15.714  0.00  0.00    +0.003 C 
ENDROOT
BRANCH   1   7
ATOM      7  N   UNL     1      28.717 -25.043 -14.489  0.00  0.00    -0.354 N 
ATOM      8  H   UNL     1      28.776 -25.868 -13.956  0.00  0.00    +0.142 HD
ATOM      9  H   UNL     1      27.837 -24.677 -14.734  0.00  0.00    +0.142 HD
ENDBRANCH   1   7
BRANCH   3  10
ATOM     10  O   UNL     1      31.108 -25.340 -13.066  0.00  0.00    -0.504 OA
ATOM     11  H   UNL     1      31.161 -26.271 -13.155  0.00  0.00    +0.292 HD
ENDBRANCH   3  10
BRANCH   2  13
ATOM     12  O   UNL     1      27.950 -24.276 -17.253  0.00  0.00    -0.245 OA
ATOM     13  C   UNL     1      28.674 -23.374 -16.821  0.00  0.00    +0.339 C 
BRANCH  13  14
ATOM     14  O   UNL     1      28.406 -22.058 -17.041  0.00  0.00    -0.477 OA
ATOM     15  H   UNL     1      28.714 -21.411 -16.437  0.00  0.00    +0.295 HD
ENDBRANCH  13  14
ENDBRANCH   2  13
TORSDOF 4
ENDMDL
MODEL 5
REMARK VINA RESULT:      -6.1      4.694      6.310
REMARK  Name = 86
REMARK  4 active torsions:
REMARK  status: ('A' for Active; 'I' for Inactive)
REMARK    1  A    between atoms: C_1  and  N_7
REMARK    2  A    between atoms: C_2  and  C_13
REMARK    3  A    between atoms: C_3  and  O_10
REMARK    4  A    between atoms: C_13  and  O_14
REMARK                            x       y       z     vdW  Elec       q    Type
REMARK                         _______ _______ _______ _____ _____    ______ ____
ROOT
ATOM      1  C   UNL     1      34.670 -16.174 -22.448  0.00  0.00    +0.082 C 
ATOM      2  C   UNL     1      34.587 -16.934 -23.615  0.00  0.00    +0.091 C 
ATOM      3  C   UNL     1      34.972 -16.792 -21.234  0.00  0.00    +0.147 C 
ATOM      4  C   UNL     1      34.805 -18.311 -23.567  0.00  0.00    +0.008 C 
ATOM      5  C   UNL     1      35.188 -18.170 -21.187  0.00  0.00    +0.038 C 
ATOM      6  C   UNL     1      35.105 -18.929 -22.353  0.00  0.00    +0.003 C 
ENDROOT
BRANCH   1   7
ATOM      7  N   UNL     1      34.451 -14.778 -22.488  0.00  0.00    -0.354 N 
ATOM      8  H   UNL     1      33.737 -14.375 -21.943  0.00  0.00    +0.142 HD
ATOM      9  H   UNL     1      35.013 -14.208 -23.061  0.00  0.00    +0.142 HD
ENDBRANCH   1   7
BRANCH   3  10
ATOM     10  O   UNL     1      35.058 -16.070 -20.081  0.00  0.00    -0.504 OA
ATOM     11  H   UNL     1      35.897 -15.850 -19.727  0.00  0.00    +0.292 HD
ENDBRANCH   3  10
BRANCH   2  13
ATOM     12  O   UNL     1      33.501 -15.375 -25.069  0.00  0.00    -0.245 OA
ATOM     13  C   UNL     1      34.276 -16.321 -24.899  0.00  0.00    +0.339 C 
BRANCH  13  14
ATOM     14  O   UNL     1      34.943 -16.909 -25.929  0.00  0.00    -0.477 OA
ATOM     15  H   UNL     1      34.605 -16.846 -26.801  0.00  0.00    +0.295 HD
ENDBRANCH  13  14
ENDBRANCH   2  13
TORSDOF 4
ENDMDL
MODEL 6
REMARK VINA RESULT:      -6.1      8.153      9.174
REMARK  Name = 86
REMARK  4 active torsions:
REMARK  status: ('A' for Active; 'I' for Inactive)
REMARK    1  A    between atoms: C_1  and  N_7
REMARK    2  A    between atoms: C_2  and  C_13
REMARK    3  A    between atoms: C_3  and  O_10
REMARK    4  A    between atoms: C_13  and  O_14
REMARK                            x       y       z     vdW  Elec       q    Type
REMARK                         _______ _______ _______ _____ _____    ______ ____
ROOT
ATOM      1  C   UNL     1      36.385 -25.079 -13.202  0.00  0.00    +0.082 C 
ATOM      2  C   UNL     1      37.352 -24.474 -12.399  0.00  0.00    +0.091 C 
ATOM      3  C   UNL     1      36.772 -25.897 -14.263  0.00  0.00    +0.147 C 
ATOM      4  C   UNL     1      38.707 -24.687 -12.658  0.00  0.00    +0.008 C 
ATOM      5  C   UNL     1      38.127 -26.110 -14.522  0.00  0.00    +0.038 C 
ATOM      6  C   UNL     1      39.094 -25.505 -13.720  0.00  0.00    +0.003 C 
ENDROOT
BRANCH   1   7
ATOM      7  N   UNL     1      35.011 -24.867 -12.945  0.00  0.00    -0.354 N 
ATOM      8  H   UNL     1      34.672 -23.955 -12.796  0.00  0.00    +0.142 HD
ATOM      9  H   UNL     1      34.392 -25.633 -12.914  0.00  0.00    +0.142 HD
ENDBRANCH   1   7
BRANCH   3  10
ATOM     10  O   UNL     1      35.844 -26.498 -15.061  0.00  0.00    -0.504 OA
ATOM     11  H   UNL     1      35.030 -26.070 -15.238  0.00  0.00    +0.292 HD
ENDBRANCH   3  10
BRANCH   2  13
ATOM     12  O   UNL     1      36.389 -23.983 -10.265  0.00  0.00    -0.245 OA
ATOM     13  C   UNL     1      36.983 -23.614 -11.282  0.00  0.00    +0.339 C 
BRANCH  13  14
ATOM     14  O   UNL     1      37.369 -22.323 -11.472  0.00  0.00    -0.477 OA
ATOM     15  H   UNL     1      36.743 -21.686 -11.755  0.00  0.00    +0.295 HD
ENDBRANCH  13  14
ENDBRANCH   2  13
TORSDOF 4
ENDMDL
MODEL 7
REMARK VINA RESULT:      -6.1      1.306      3.818
REMARK  Name = 86
REMARK  4 active torsions:
REMARK  status: ('A' for Active; 'I' for Inactive)
REMARK    1  A    between atoms: C_1  and  N_7
REMARK    2  A    between atoms: C_2  and  C_13
REMARK    3  A    between atoms: C_3  and  O_10
REMARK    4  A    between atoms: C_13  and  O_14
REMARK                            x       y       z     vdW  Elec       q    Type
REMARK                         _______ _______ _______ _____ _____    ______ ____
ROOT
ATOM      1  C   UNL     1      35.462 -20.234 -20.179  0.00  0.00    +0.082 C 
ATOM      2  C   UNL     1      34.498 -19.463 -20.829  0.00  0.00    +0.091 C 
ATOM      3  C   UNL     1      35.084 -21.382 -19.483  0.00  0.00    +0.147 C 
ATOM      4  C   UNL     1      33.155 -19.842 -20.783  0.00  0.00    +0.008 C 
ATOM      5  C   UNL     1      33.741 -21.759 -19.436  0.00  0.00    +0.038 C 
ATOM      6  C   UNL     1      32.777 -20.989 -20.086  0.00  0.00    +0.003 C 
ENDROOT
BRANCH   1   7
ATOM      7  N   UNL     1      36.824 -19.856 -20.222  0.00  0.00    -0.354 N 
ATOM      8  H   UNL     1      37.526 -20.525 -20.050  0.00  0.00    +0.142 HD
ATOM      9  H   UNL     1      37.071 -18.925 -20.423  0.00  0.00    +0.142 HD
ENDBRANCH   1   7
BRANCH   3  10
ATOM     10  O   UNL     1      36.009 -22.149 -18.840  0.00  0.00    -0.504 OA
ATOM     11  H   UNL     1      35.736 -22.765 -18.188  0.00  0.00    +0.292 HD
ENDBRANCH   3  10
BRANCH   2  13
ATOM     12  O   UNL     1      34.788 -18.126 -22.791  0.00  0.00    -0.245 OA
ATOM     13  C   UNL     1      34.857 -18.259 -21.566  0.00  0.00    +0.339 C 
BRANCH  13  14
ATOM     14  O   UNL     1      35.292 -17.262 -20.749  0.00  0.00    -0.477 OA
ATOM     15  H   UNL     1      35.358 -17.409 -19.826  0.00  0.00    +0.295 HD
ENDBRANCH  13  14
ENDBRANCH   2  13
TORSDOF 4
ENDMDL
MODEL 8
REMARK VINA RESULT:      -6.1      4.735      5.971
REMARK  Name = 86
REMARK  4 active torsions:
REMARK  status: ('A' for Active; 'I' for Inactive)
REMARK    1  A    between atoms: C_1  and  N_7
REMARK    2  A    between atoms: C_2  and  C_13
REMARK    3  A    between atoms: C_3  and  O_10
REMARK    4  A    between atoms: C_13  and  O_14
REMARK                            x       y       z     vdW  Elec       q    Type
REMARK                         _______ _______ _______ _____ _____    ______ ____
ROOT
ATOM      1  C   UNL     1      34.885 -16.650 -23.472  0.00  0.00    +0.082 C 
ATOM      2  C   UNL     1      34.458 -16.005 -22.311  0.00  0.00    +0.091 C 
ATOM      3  C   UNL     1      34.433 -16.216 -24.718  0.00  0.00    +0.147 C 
ATOM      4  C   UNL     1      33.578 -14.925 -22.397  0.00  0.00    +0.008 C 
ATOM      5  C   UNL     1      33.552 -15.136 -24.803  0.00  0.00    +0.038 C 
ATOM      6  C   UNL     1      33.125 -14.492 -23.644  0.00  0.00    +0.003 C 
ENDROOT
BRANCH   1   7
ATOM      7  N   UNL     1      35.777 -17.744 -23.392  0.00  0.00    -0.354 N 
ATOM      8  H   UNL     1      36.265 -18.041 -24.194  0.00  0.00    +0.142 HD
ATOM      9  H   UNL     1      35.911 -18.209 -22.535  0.00  0.00    +0.142 HD
ENDBRANCH   1   7
BRANCH   3  10
ATOM     10  O   UNL     1      34.838 -16.831 -25.865  0.00  0.00    -0.504 OA
ATOM     11  H   UNL     1      35.552 -16.480 -26.359  0.00  0.00    +0.292 HD
ENDBRANCH   3  10
BRANCH   2  13
ATOM     12  O   UNL     1      35.246 -17.580 -20.693  0.00  0.00    -0.245 OA
ATOM     13  C   UNL     1      34.911 -16.431 -20.994  0.00  0.00    +0.339 C 
BRANCH  13  14
ATOM     14  O   UNL     1      34.930 -15.408 -20.096  0.00  0.00    -0.477 OA
ATOM     15  H   UNL     1      34.776 -14.531 -20.385  0.00  0.00    +0.295 HD
ENDBRANCH  13  14
ENDBRANCH   2  13
TORSDOF 4
ENDMDL
MODEL 9
REMARK VINA RESULT:      -6.1      6.708      8.148
REMARK  Name = 86
REMARK  4 active torsions:
REMARK  status: ('A' for Active; 'I' for Inactive)
REMARK    1  A    between atoms: C_1  and  N_7
REMARK    2  A    between atoms: C_2  and  C_13
REMARK    3  A    between atoms: C_3  and  O_10
REMARK    4  A    between atoms: C_13  and  O_14
REMARK                            x       y       z     vdW  Elec       q    Type
REMARK                         _______ _______ _______ _____ _____    ______ ____
ROOT
ATOM      1  C   UNL     1      37.826 -24.184 -14.952  0.00  0.00    +0.082 C 
ATOM      2  C   UNL     1      38.752 -25.087 -14.429  0.00  0.00    +0.091 C 
ATOM      3  C   UNL     1      36.539 -24.117 -14.419  0.00  0.00    +0.147 C 
ATOM      4  C   UNL     1      38.390 -25.923 -13.373  0.00  0.00    +0.008 C 
ATOM      5  C   UNL     1      36.177 -24.955 -13.363  0.00  0.00    +0.038 C 
ATOM      6  C   UNL     1      37.102 -25.858 -12.840  0.00  0.00    +0.003 C 
ENDROOT
BRANCH   1   7
ATOM      7  N   UNL     1      38.186 -23.332 -16.022  0.00  0.00    -0.354 N 
ATOM      8  H   UNL     1      37.550 -23.167 -16.755  0.00  0.00    +0.142 HD
ATOM      9  H   UNL     1      39.073 -22.906 -16.035  0.00  0.00    +0.142 HD
ENDBRANCH   1   7
BRANCH   3  10
ATOM     10  O   UNL     1      35.618 -23.243 -14.914  0.00  0.00    -0.504 OA
ATOM     11  H   UNL     1      35.323 -23.325 -15.800  0.00  0.00    +0.292 HD
ENDBRANCH   3  10
BRANCH   2  13
ATOM     12  O   UNL     1      41.117 -24.728 -14.420  0.00  0.00    -0.245 OA
ATOM     13  C   UNL     1      40.105 -25.181 -14.962  0.00  0.00    +0.339 C 
BRANCH  13  14
ATOM     14  O   UNL     1      40.149 -25.839 -16.152  0.00  0.00    -0.477 OA
ATOM     15  H   UNL     1      40.761 -25.574 -16.810  0.00  0.00    +0.295 HD
ENDBRANCH  13  14
ENDBRANCH   2  13
TORSDOF 4
ENDMDL
