MODEL 1
REMARK VINA RESULT:      -9.1      0.000      0.000
REMARK  Name = 17754151
REMARK  5 active torsions:
REMARK  status: ('A' for Active; 'I' for Inactive)
REMARK    1  A    between atoms: N_2  and  C1*_13
REMARK    2  A    between atoms: C2*_14  and  O2*_17
REMARK    3  A    between atoms: C3*_15  and  O3*_19
REMARK    4  A    between atoms: C4*_16  and  C5*_21
REMARK    5  A    between atoms: C5*_21  and  O5*_22
REMARK                            x       y       z     vdW  Elec       q    Type
REMARK                         _______ _______ _______ _____ _____    ______ ____
ROOT
ATOM      1  I   UNL     1      30.602 -24.996 -14.285  0.00  0.00    -0.055 I 
ATOM      2  N   UNL     1      34.305 -23.864 -14.861  0.00  0.00    -0.214 N 
ATOM      3  N   UNL     1      33.312 -24.019 -13.867  0.00  0.00    -0.217 NA
ATOM      4  N   UNL     1      34.387 -23.279 -17.262  0.00  0.00    -0.232 NA
ATOM      5  N   UNL     1      32.267 -22.528 -18.173  0.00  0.00    -0.234 NA
ATOM      6  C   UNL     1      33.763 -23.441 -16.083  0.00  0.00    +0.129 C 
ATOM      7  C   UNL     1      32.062 -23.477 -14.477  0.00  0.00    +0.137 C 
ATOM      8  C   UNL     1      32.415 -23.186 -15.896  0.00  0.00    +0.134 C 
ATOM      9  C   UNL     1      31.698 -22.716 -16.965  0.00  0.00    +0.108 C 
ATOM     10  C   UNL     1      33.586 -22.827 -18.251  0.00  0.00    +0.252 C 
ATOM     11  H   UNL     1      33.558 -23.493 -13.029  0.00  0.00    +0.146 HD
ATOM     12  N   UNL     1      30.335 -22.391 -16.795  0.00  0.00    -0.346 N 
ATOM     13  H   UNL     1      29.811 -22.052 -17.556  0.00  0.00    +0.143 HD
ATOM     14  H   UNL     1      29.909 -22.503 -15.915  0.00  0.00    +0.143 HD
ENDROOT
BRANCH   2  16
ATOM     15  O4* UNL     1      36.491 -24.550 -15.472  0.00  0.00    -0.332 OA
ATOM     16  C1* UNL     1      35.710 -23.754 -14.562  0.00  0.00    +0.237 C 
ATOM     17  C2* UNL     1      36.005 -24.286 -13.169  0.00  0.00    +0.188 C 
ATOM     18  C3* UNL     1      37.429 -24.780 -13.312  0.00  0.00    +0.171 C 
ATOM     19  C4* UNL     1      37.428 -25.351 -14.722  0.00  0.00    +0.175 C 
BRANCH  17  20
ATOM     20  O2* UNL     1      35.882 -23.293 -12.171  0.00  0.00    -0.378 OA
ATOM     21  H2* UNL     1      36.657 -23.323 -11.588  0.00  0.00    +0.211 HD
ENDBRANCH  17  20
BRANCH  18  22
ATOM     22  O3* UNL     1      38.340 -23.681 -13.283  0.00  0.00    -0.379 OA
ATOM     23  H3* UNL     1      38.491 -23.411 -12.363  0.00  0.00    +0.211 HD
ENDBRANCH  18  22
BRANCH  19  24
ATOM     24  C5* UNL     1      36.970 -26.802 -14.785  0.00  0.00    +0.169 C 
BRANCH  24  25
ATOM     25  O5* UNL     1      36.817 -27.171 -16.144  0.00  0.00    -0.379 OA
ATOM     26  H5* UNL     1      37.032 -26.415 -16.711  0.00  0.00    +0.211 HD
ENDBRANCH  24  25
ENDBRANCH  19  24
ENDBRANCH   2  16
TORSDOF 5
ENDMDL
MODEL 2
REMARK VINA RESULT:      -8.6      1.405      2.136
REMARK  Name = 17754151
REMARK  5 active torsions:
REMARK  status: ('A' for Active; 'I' for Inactive)
REMARK    1  A    between atoms: N_2  and  C1*_13
REMARK    2  A    between atoms: C2*_14  and  O2*_17
REMARK    3  A    between atoms: C3*_15  and  O3*_19
REMARK    4  A    between atoms: C4*_16  and  C5*_21
REMARK    5  A    between atoms: C5*_21  and  O5*_22
REMARK                            x       y       z     vdW  Elec       q    Type
REMARK                         _______ _______ _______ _____ _____    ______ ____
ROOT
ATOM      1  I   UNL     1      30.305 -25.141 -14.580  0.00  0.00    -0.055 I 
ATOM      2  N   UNL     1      34.135 -24.392 -14.892  0.00  0.00    -0.214 N 
ATOM      3  N   UNL     1      33.081 -24.523 -13.960  0.00  0.00    -0.217 NA
ATOM      4  N   UNL     1      34.404 -23.604 -17.220  0.00  0.00    -0.232 NA
ATOM      5  N   UNL     1      32.430 -22.535 -18.141  0.00  0.00    -0.234 NA
ATOM      6  C   UNL     1      33.706 -23.801 -16.089  0.00  0.00    +0.129 C 
ATOM      7  C   UNL     1      31.931 -23.787 -14.565  0.00  0.00    +0.137 C 
ATOM      8  C   UNL     1      32.387 -23.411 -15.934  0.00  0.00    +0.134 C 
ATOM      9  C   UNL     1      31.782 -22.766 -16.981  0.00  0.00    +0.108 C 
ATOM     10  C   UNL     1      33.710 -22.975 -18.193  0.00  0.00    +0.252 C 
ATOM     11  H   UNL     1      33.340 -24.107 -13.065  0.00  0.00    +0.146 HD
ATOM     12  N   UNL     1      30.456 -22.304 -16.836  0.00  0.00    -0.346 N 
ATOM     13  H   UNL     1      30.012 -21.840 -17.582  0.00  0.00    +0.143 HD
ATOM     14  H   UNL     1      29.975 -22.446 -15.989  0.00  0.00    +0.143 HD
ENDROOT
BRANCH   2  16
ATOM     15  O4* UNL     1      35.699 -25.255 -13.333  0.00  0.00    -0.332 OA
ATOM     16  C1* UNL     1      35.526 -24.471 -14.527  0.00  0.00    +0.237 C 
ATOM     17  C2* UNL     1      36.077 -23.088 -14.212  0.00  0.00    +0.188 C 
ATOM     18  C3* UNL     1      37.162 -23.400 -13.205  0.00  0.00    +0.171 C 
ATOM     19  C4* UNL     1      36.540 -24.536 -12.406  0.00  0.00    +0.175 C 
BRANCH  17  20
ATOM     20  O2* UNL     1      36.583 -22.431 -15.357  0.00  0.00    -0.378 OA
ATOM     21  H2* UNL     1      36.181 -21.551 -15.428  0.00  0.00    +0.211 HD
ENDBRANCH  17  20
BRANCH  18  22
ATOM     22  O3* UNL     1      38.320 -23.910 -13.865  0.00  0.00    -0.379 OA
ATOM     23  H3* UNL     1      38.321 -24.880 -13.815  0.00  0.00    +0.211 HD
ENDBRANCH  18  22
BRANCH  19  24
ATOM     24  C5* UNL     1      35.672 -24.057 -11.251  0.00  0.00    +0.169 C 
BRANCH  24  25
ATOM     25  O5* UNL     1      35.355 -25.167 -10.430  0.00  0.00    -0.379 OA
ATOM     26  H5* UNL     1      34.392 -25.246 -10.350  0.00  0.00    +0.211 HD
ENDBRANCH  24  25
ENDBRANCH  19  24
ENDBRANCH   2  16
TORSDOF 5
ENDMDL
MODEL 3
REMARK VINA RESULT:      -8.1      1.194      2.043
REMARK  Name = 17754151
REMARK  5 active torsions:
REMARK  status: ('A' for Active; 'I' for Inactive)
REMARK    1  A    between atoms: N_2  and  C1*_13
REMARK    2  A    between atoms: C2*_14  and  O2*_17
REMARK    3  A    between atoms: C3*_15  and  O3*_19
REMARK    4  A    between atoms: C4*_16  and  C5*_21
REMARK    5  A    between atoms: C5*_21  and  O5*_22
REMARK                            x       y       z     vdW  Elec       q    Type
REMARK                         _______ _______ _______ _____ _____    ______ ____
ROOT
ATOM      1  I   UNL     1      29.959 -25.188 -14.620  0.00  0.00    -0.055 I 
ATOM      2  N   UNL     1      33.813 -24.508 -14.514  0.00  0.00    -0.214 N 
ATOM      3  N   UNL     1      32.662 -24.618 -13.702  0.00  0.00    -0.217 NA
ATOM      4  N   UNL     1      34.348 -23.729 -16.799  0.00  0.00    -0.232 NA
ATOM      5  N   UNL     1      32.505 -22.628 -17.929  0.00  0.00    -0.234 NA
ATOM      6  C   UNL     1      33.528 -23.911 -15.750  0.00  0.00    +0.129 C 
ATOM      7  C   UNL     1      31.598 -23.863 -14.429  0.00  0.00    +0.137 C 
ATOM      8  C   UNL     1      32.207 -23.498 -15.740  0.00  0.00    +0.134 C 
ATOM      9  C   UNL     1      31.731 -22.845 -16.846  0.00  0.00    +0.108 C 
ATOM     10  C   UNL     1      33.776 -23.090 -17.841  0.00  0.00    +0.252 C 
ATOM     11  H   UNL     1      32.829 -24.205 -12.785  0.00  0.00    +0.146 HD
ATOM     12  N   UNL     1      30.406 -22.358 -16.847  0.00  0.00    -0.346 N 
ATOM     13  H   UNL     1      30.054 -21.888 -17.637  0.00  0.00    +0.143 HD
ATOM     14  H   UNL     1      29.833 -22.490 -16.057  0.00  0.00    +0.143 HD
ENDROOT
BRANCH   2  16
ATOM     15  O4* UNL     1      35.725 -23.306 -13.792  0.00  0.00    -0.332 OA
ATOM     16  C1* UNL     1      35.155 -24.611 -14.000  0.00  0.00    +0.237 C 
ATOM     17  C2* UNL     1      36.059 -25.318 -14.998  0.00  0.00    +0.188 C 
ATOM     18  C3* UNL     1      37.408 -24.702 -14.696  0.00  0.00    +0.171 C 
ATOM     19  C4* UNL     1      37.039 -23.259 -14.388  0.00  0.00    +0.175 C 
BRANCH  17  20
ATOM     20  O2* UNL     1      36.062 -26.721 -14.829  0.00  0.00    -0.378 OA
ATOM     21  H2* UNL     1      36.811 -26.978 -14.269  0.00  0.00    +0.211 HD
ENDBRANCH  17  20
BRANCH  18  22
ATOM     22  O3* UNL     1      37.962 -25.277 -13.512  0.00  0.00    -0.379 OA
ATOM     23  H3* UNL     1      37.680 -24.760 -12.740  0.00  0.00    +0.211 HD
ENDBRANCH  18  22
BRANCH  19  24
ATOM     24  C5* UNL     1      36.968 -22.377 -15.627  0.00  0.00    +0.169 C 
BRANCH  24  25
ATOM     25  O5* UNL     1      37.944 -22.817 -16.554  0.00  0.00    -0.379 OA
ATOM     26  H5* UNL     1      38.532 -22.080 -16.781  0.00  0.00    +0.211 HD
ENDBRANCH  24  25
ENDBRANCH  19  24
ENDBRANCH   2  16
TORSDOF 5
ENDMDL
MODEL 4
REMARK VINA RESULT:      -7.9      3.301      5.558
REMARK  Name = 17754151
REMARK  5 active torsions:
REMARK  status: ('A' for Active; 'I' for Inactive)
REMARK    1  A    between atoms: N_2  and  C1*_13
REMARK    2  A    between atoms: C2*_14  and  O2*_17
REMARK    3  A    between atoms: C3*_15  and  O3*_19
REMARK    4  A    between atoms: C4*_16  and  C5*_21
REMARK    5  A    between atoms: C5*_21  and  O5*_22
REMARK                            x       y       z     vdW  Elec       q    Type
REMARK                         _______ _______ _______ _____ _____    ______ ____
ROOT
ATOM      1  I   UNL     1      36.065 -24.267 -11.171  0.00  0.00    -0.055 I 
ATOM      2  N   UNL     1      33.997 -23.164 -14.307  0.00  0.00    -0.214 N 
ATOM      3  N   UNL     1      33.974 -24.017 -13.181  0.00  0.00    -0.217 NA
ATOM      4  N   UNL     1      35.697 -22.263 -15.860  0.00  0.00    -0.232 NA
ATOM      5  N   UNL     1      37.902 -23.238 -15.593  0.00  0.00    -0.234 NA
ATOM      6  C   UNL     1      35.284 -23.050 -14.852  0.00  0.00    +0.129 C 
ATOM      7  C   UNL     1      35.336 -24.626 -13.125  0.00  0.00    +0.137 C 
ATOM      8  C   UNL     1      36.122 -23.921 -14.178  0.00  0.00    +0.134 C 
ATOM      9  C   UNL     1      37.427 -23.999 -14.586  0.00  0.00    +0.108 C 
ATOM     10  C   UNL     1      37.003 -22.406 -16.172  0.00  0.00    +0.252 C 
ATOM     11  H   UNL     1      33.264 -24.740 -13.293  0.00  0.00    +0.146 HD
ATOM     12  N   UNL     1      38.295 -24.918 -13.958  0.00  0.00    -0.346 N 
ATOM     13  H   UNL     1      39.235 -24.983 -14.243  0.00  0.00    +0.143 HD
ATOM     14  H   UNL     1      37.960 -25.495 -13.234  0.00  0.00    +0.143 HD
ENDROOT
BRANCH   2  16
ATOM     15  O4* UNL     1      31.645 -22.884 -14.206  0.00  0.00    -0.332 OA
ATOM     16  C1* UNL     1      32.814 -22.793 -15.041  0.00  0.00    +0.237 C 
ATOM     17  C2* UNL     1      32.583 -23.745 -16.204  0.00  0.00    +0.188 C 
ATOM     18  C3* UNL     1      31.077 -23.709 -16.350  0.00  0.00    +0.171 C 
ATOM     19  C4* UNL     1      30.618 -23.621 -14.903  0.00  0.00    +0.175 C 
BRANCH  17  20
ATOM     20  O2* UNL     1      33.245 -23.333 -17.382  0.00  0.00    -0.378 OA
ATOM     21  H2* UNL     1      34.204 -23.419 -17.262  0.00  0.00    +0.211 HD
ENDBRANCH  17  20
BRANCH  18  22
ATOM     22  O3* UNL     1      30.672 -22.512 -17.014  0.00  0.00    -0.379 OA
ATOM     23  H3* UNL     1      31.303 -21.802 -16.812  0.00  0.00    +0.211 HD
ENDBRANCH  18  22
BRANCH  19  24
ATOM     24  C5* UNL     1      30.471 -24.981 -14.232  0.00  0.00    +0.169 C 
BRANCH  24  25
ATOM     25  O5* UNL     1      30.932 -24.880 -12.896  0.00  0.00    -0.379 OA
ATOM     26  H5* UNL     1      30.461 -24.162 -12.445  0.00  0.00    +0.211 HD
ENDBRANCH  24  25
ENDBRANCH  19  24
ENDBRANCH   2  16
TORSDOF 5
ENDMDL
MODEL 5
REMARK VINA RESULT:      -7.8      1.949      3.414
REMARK  Name = 17754151
REMARK  5 active torsions:
REMARK  status: ('A' for Active; 'I' for Inactive)
REMARK    1  A    between atoms: N_2  and  C1*_13
REMARK    2  A    between atoms: C2*_14  and  O2*_17
REMARK    3  A    between atoms: C3*_15  and  O3*_19
REMARK    4  A    between atoms: C4*_16  and  C5*_21
REMARK    5  A    between atoms: C5*_21  and  O5*_22
REMARK                            x       y       z     vdW  Elec       q    Type
REMARK                         _______ _______ _______ _____ _____    ______ ____
ROOT
ATOM      1  I   UNL     1      34.123 -22.342 -18.134  0.00  0.00    -0.055 I 
ATOM      2  N   UNL     1      34.402 -24.184 -14.690  0.00  0.00    -0.214 N 
ATOM      3  N   UNL     1      34.791 -24.258 -16.047  0.00  0.00    -0.217 NA
ATOM      4  N   UNL     1      32.455 -23.359 -13.409  0.00  0.00    -0.232 NA
ATOM      5  N   UNL     1      30.567 -22.702 -14.785  0.00  0.00    -0.234 NA
ATOM      6  C   UNL     1      33.111 -23.656 -14.543  0.00  0.00    +0.129 C 
ATOM      7  C   UNL     1      33.566 -23.908 -16.824  0.00  0.00    +0.137 C 
ATOM      8  C   UNL     1      32.565 -23.484 -15.803  0.00  0.00    +0.134 C 
ATOM      9  C   UNL     1      31.280 -23.015 -15.886  0.00  0.00    +0.108 C 
ATOM     10  C   UNL     1      31.203 -22.890 -13.604  0.00  0.00    +0.252 C 
ATOM     11  H   UNL     1      35.105 -25.200 -16.279  0.00  0.00    +0.146 HD
ATOM     12  N   UNL     1      30.672 -22.882 -17.153  0.00  0.00    -0.346 N 
ATOM     13  H   UNL     1      29.749 -22.547 -17.224  0.00  0.00    +0.143 HD
ATOM     14  H   UNL     1      31.171 -23.125 -17.966  0.00  0.00    +0.143 HD
ENDROOT
BRANCH   2  16
ATOM     15  O4* UNL     1      35.266 -24.085 -12.484  0.00  0.00    -0.332 OA
ATOM     16  C1* UNL     1      35.058 -24.918 -13.639  0.00  0.00    +0.237 C 
ATOM     17  C2* UNL     1      36.437 -25.379 -14.087  0.00  0.00    +0.188 C 
ATOM     18  C3* UNL     1      37.199 -25.418 -12.779  0.00  0.00    +0.171 C 
ATOM     19  C4* UNL     1      36.635 -24.210 -12.045  0.00  0.00    +0.175 C 
BRANCH  17  20
ATOM     20  O2* UNL     1      36.407 -26.639 -14.726  0.00  0.00    -0.378 OA
ATOM     21  H2* UNL     1      36.728 -26.547 -15.637  0.00  0.00    +0.211 HD
ENDBRANCH  17  20
BRANCH  18  22
ATOM     22  O3* UNL     1      36.850 -26.586 -12.037  0.00  0.00    -0.379 OA
ATOM     23  H3* UNL     1      36.063 -26.404 -11.498  0.00  0.00    +0.211 HD
ENDBRANCH  18  22
BRANCH  19  24
ATOM     24  C5* UNL     1      37.361 -22.912 -12.374  0.00  0.00    +0.169 C 
BRANCH  24  25
ATOM     25  O5* UNL     1      38.566 -22.865 -11.630  0.00  0.00    -0.379 OA
ATOM     26  H5* UNL     1      39.310 -23.101 -12.204  0.00  0.00    +0.211 HD
ENDBRANCH  24  25
ENDBRANCH  19  24
ENDBRANCH   2  16
TORSDOF 5
ENDMDL
MODEL 6
REMARK VINA RESULT:      -7.7      2.511      3.265
REMARK  Name = 17754151
REMARK  5 active torsions:
REMARK  status: ('A' for Active; 'I' for Inactive)
REMARK    1  A    between atoms: N_2  and  C1*_13
REMARK    2  A    between atoms: C2*_14  and  O2*_17
REMARK    3  A    between atoms: C3*_15  and  O3*_19
REMARK    4  A    between atoms: C4*_16  and  C5*_21
REMARK    5  A    between atoms: C5*_21  and  O5*_22
REMARK                            x       y       z     vdW  Elec       q    Type
REMARK                         _______ _______ _______ _____ _____    ______ ____
ROOT
ATOM      1  I   UNL     1      36.438 -21.552 -18.142  0.00  0.00    -0.055 I 
ATOM      2  N   UNL     1      35.795 -22.947 -14.540  0.00  0.00    -0.214 N 
ATOM      3  N   UNL     1      36.753 -22.895 -15.578  0.00  0.00    -0.217 NA
ATOM      4  N   UNL     1      33.331 -23.014 -14.354  0.00  0.00    -0.232 NA
ATOM      5  N   UNL     1      32.183 -23.309 -16.471  0.00  0.00    -0.234 NA
ATOM      6  C   UNL     1      34.488 -23.036 -15.038  0.00  0.00    +0.129 C 
ATOM      7  C   UNL     1      35.984 -23.151 -16.832  0.00  0.00    +0.137 C 
ATOM      8  C   UNL     1      34.553 -23.171 -16.414  0.00  0.00    +0.134 C 
ATOM      9  C   UNL     1      33.376 -23.319 -17.100  0.00  0.00    +0.108 C 
ATOM     10  C   UNL     1      32.232 -23.151 -15.126  0.00  0.00    +0.252 C 
ATOM     11  H   UNL     1      37.466 -23.612 -15.444  0.00  0.00    +0.146 HD
ATOM     12  N   UNL     1      33.409 -23.517 -18.497  0.00  0.00    -0.346 N 
ATOM     13  H   UNL     1      32.569 -23.625 -18.999  0.00  0.00    +0.143 HD
ATOM     14  H   UNL     1      34.272 -23.547 -18.969  0.00  0.00    +0.143 HD
ENDROOT
BRANCH   2  16
ATOM     15  O4* UNL     1      37.541 -23.150 -12.949  0.00  0.00    -0.332 OA
ATOM     16  C1* UNL     1      36.125 -23.277 -13.177  0.00  0.00    +0.237 C 
ATOM     17  C2* UNL     1      35.772 -24.725 -12.876  0.00  0.00    +0.188 C 
ATOM     18  C3* UNL     1      36.788 -25.085 -11.813  0.00  0.00    +0.171 C 
ATOM     19  C4* UNL     1      38.026 -24.338 -12.288  0.00  0.00    +0.175 C 
BRANCH  17  20
ATOM     20  O2* UNL     1      34.444 -24.876 -12.418  0.00  0.00    -0.378 OA
ATOM     21  H2* UNL     1      34.395 -25.628 -11.807  0.00  0.00    +0.211 HD
ENDBRANCH  17  20
BRANCH  18  22
ATOM     22  O3* UNL     1      36.401 -24.537 -10.552  0.00  0.00    -0.379 OA
ATOM     23  H3* UNL     1      36.985 -23.795 -10.329  0.00  0.00    +0.211 HD
ENDBRANCH  18  22
BRANCH  19  24
ATOM     24  C5* UNL     1      38.861 -25.129 -13.285  0.00  0.00    +0.169 C 
BRANCH  24  25
ATOM     25  O5* UNL     1      39.122 -24.308 -14.410  0.00  0.00    -0.379 OA
ATOM     26  H5* UNL     1      39.880 -23.734 -14.223  0.00  0.00    +0.211 HD
ENDBRANCH  24  25
ENDBRANCH  19  24
ENDBRANCH   2  16
TORSDOF 5
ENDMDL
MODEL 7
REMARK VINA RESULT:      -7.6      3.453      5.931
REMARK  Name = 17754151
REMARK  5 active torsions:
REMARK  status: ('A' for Active; 'I' for Inactive)
REMARK    1  A    between atoms: N_2  and  C1*_13
REMARK    2  A    between atoms: C2*_14  and  O2*_17
REMARK    3  A    between atoms: C3*_15  and  O3*_19
REMARK    4  A    between atoms: C4*_16  and  C5*_21
REMARK    5  A    between atoms: C5*_21  and  O5*_22
REMARK                            x       y       z     vdW  Elec       q    Type
REMARK                         _______ _______ _______ _____ _____    ______ ____
ROOT
ATOM      1  I   UNL     1      39.383 -25.443 -14.667  0.00  0.00    -0.055 I 
ATOM      2  N   UNL     1      35.553 -24.632 -14.708  0.00  0.00    -0.214 N 
ATOM      3  N   UNL     1      36.745 -24.500 -15.457  0.00  0.00    -0.217 NA
ATOM      4  N   UNL     1      34.910 -24.657 -12.321  0.00  0.00    -0.232 NA
ATOM      5  N   UNL     1      36.708 -24.069 -10.802  0.00  0.00    -0.234 NA
ATOM      6  C   UNL     1      35.782 -24.501 -13.331  0.00  0.00    +0.129 C 
ATOM      7  C   UNL     1      37.781 -24.075 -14.470  0.00  0.00    +0.137 C 
ATOM      8  C   UNL     1      37.109 -24.155 -13.141  0.00  0.00    +0.134 C 
ATOM      9  C   UNL     1      37.536 -23.933 -11.858  0.00  0.00    +0.108 C 
ATOM     10  C   UNL     1      35.436 -24.430 -11.099  0.00  0.00    +0.252 C 
ATOM     11  H   UNL     1      36.635 -23.795 -16.185  0.00  0.00    +0.146 HD
ATOM     12  N   UNL     1      38.867 -23.523 -11.633  0.00  0.00    -0.346 N 
ATOM     13  H   UNL     1      39.184 -23.361 -10.715  0.00  0.00    +0.143 HD
ATOM     14  H   UNL     1      39.479 -23.399 -12.394  0.00  0.00    +0.143 HD
ENDROOT
BRANCH   2  16
ATOM     15  O4* UNL     1      34.302 -24.598 -16.721  0.00  0.00    -0.332 OA
ATOM     16  C1* UNL     1      34.240 -24.507 -15.286  0.00  0.00    +0.237 C 
ATOM     17  C2* UNL     1      33.642 -23.145 -14.970  0.00  0.00    +0.188 C 
ATOM     18  C3* UNL     1      32.742 -22.908 -16.163  0.00  0.00    +0.171 C 
ATOM     19  C4* UNL     1      33.555 -23.507 -17.301  0.00  0.00    +0.175 C 
BRANCH  17  20
ATOM     20  O2* UNL     1      32.928 -23.135 -13.751  0.00  0.00    -0.378 OA
ATOM     21  H2* UNL     1      32.592 -24.026 -13.566  0.00  0.00    +0.211 HD
ENDBRANCH  17  20
BRANCH  18  22
ATOM     22  O3* UNL     1      31.539 -23.667 -16.035  0.00  0.00    -0.379 OA
ATOM     23  H3* UNL     1      31.533 -24.119 -15.176  0.00  0.00    +0.211 HD
ENDBRANCH  18  22
BRANCH  19  24
ATOM     24  C5* UNL     1      34.545 -22.527 -17.915  0.00  0.00    +0.169 C 
BRANCH  24  25
ATOM     25  O5* UNL     1      34.706 -22.843 -19.287  0.00  0.00    -0.379 OA
ATOM     26  H5* UNL     1      35.591 -23.212 -19.433  0.00  0.00    +0.211 HD
ENDBRANCH  24  25
ENDBRANCH  19  24
ENDBRANCH   2  16
TORSDOF 5
ENDMDL
MODEL 8
REMARK VINA RESULT:      -7.5      3.339      5.486
REMARK  Name = 17754151
REMARK  5 active torsions:
REMARK  status: ('A' for Active; 'I' for Inactive)
REMARK    1  A    between atoms: N_2  and  C1*_13
REMARK    2  A    between atoms: C2*_14  and  O2*_17
REMARK    3  A    between atoms: C3*_15  and  O3*_19
REMARK    4  A    between atoms: C4*_16  and  C5*_21
REMARK    5  A    between atoms: C5*_21  and  O5*_22
REMARK                            x       y       z     vdW  Elec       q    Type
REMARK                         _______ _______ _______ _____ _____    ______ ____
ROOT
ATOM      1  I   UNL     1      34.346 -22.476 -19.482  0.00  0.00    -0.055 I 
ATOM      2  N   UNL     1      33.142 -23.819 -16.007  0.00  0.00    -0.214 N 
ATOM      3  N   UNL     1      32.784 -22.965 -17.075  0.00  0.00    -0.217 NA
ATOM      4  N   UNL     1      35.225 -24.541 -14.888  0.00  0.00    -0.232 NA
ATOM      5  N   UNL     1      37.204 -23.330 -15.597  0.00  0.00    -0.234 NA
ATOM      6  C   UNL     1      34.521 -23.797 -15.758  0.00  0.00    +0.129 C 
ATOM      7  C   UNL     1      34.029 -22.211 -17.406  0.00  0.00    +0.137 C 
ATOM      8  C   UNL     1      35.096 -22.835 -16.571  0.00  0.00    +0.134 C 
ATOM      9  C   UNL     1      36.443 -22.618 -16.454  0.00  0.00    +0.108 C 
ATOM     10  C   UNL     1      36.545 -24.259 -14.863  0.00  0.00    +0.252 C 
ATOM     11  H   UNL     1      32.044 -22.324 -16.789  0.00  0.00    +0.146 HD
ATOM     12  N   UNL     1      37.052 -21.606 -17.226  0.00  0.00    -0.346 N 
ATOM     13  H   UNL     1      38.020 -21.442 -17.150  0.00  0.00    +0.143 HD
ATOM     14  H   UNL     1      36.508 -21.063 -17.842  0.00  0.00    +0.143 HD
ENDROOT
BRANCH   2  16
ATOM     15  O4* UNL     1      30.903 -24.514 -15.653  0.00  0.00    -0.332 OA
ATOM     16  C1* UNL     1      32.193 -24.321 -15.046  0.00  0.00    +0.237 C 
ATOM     17  C2* UNL     1      31.989 -23.319 -13.920  0.00  0.00    +0.188 C 
ATOM     18  C3* UNL     1      30.565 -23.605 -13.495  0.00  0.00    +0.171 C 
ATOM     19  C4* UNL     1      29.889 -23.906 -14.824  0.00  0.00    +0.175 C 
BRANCH  17  20
ATOM     20  O2* UNL     1      32.909 -23.497 -12.861  0.00  0.00    -0.378 OA
ATOM     21  H2* UNL     1      33.471 -24.266 -13.048  0.00  0.00    +0.211 HD
ENDBRANCH  17  20
BRANCH  18  22
ATOM     22  O3* UNL     1      30.513 -24.788 -12.697  0.00  0.00    -0.379 OA
ATOM     23  H3* UNL     1      29.672 -25.246 -12.853  0.00  0.00    +0.211 HD
ENDBRANCH  18  22
BRANCH  19  24
ATOM     24  C5* UNL     1      29.376 -22.662 -15.536  0.00  0.00    +0.169 C 
BRANCH  24  25
ATOM     25  O5* UNL     1      29.747 -22.735 -16.902  0.00  0.00    -0.379 OA
ATOM     26  H5* UNL     1      29.788 -23.664 -17.176  0.00  0.00    +0.211 HD
ENDBRANCH  24  25
ENDBRANCH  19  24
ENDBRANCH   2  16
TORSDOF 5
ENDMDL
MODEL 9
REMARK VINA RESULT:      -7.4      2.010      2.791
REMARK  Name = 17754151
REMARK  5 active torsions:
REMARK  status: ('A' for Active; 'I' for Inactive)
REMARK    1  A    between atoms: N_2  and  C1*_13
REMARK    2  A    between atoms: C2*_14  and  O2*_17
REMARK    3  A    between atoms: C3*_15  and  O3*_19
REMARK    4  A    between atoms: C4*_16  and  C5*_21
REMARK    5  A    between atoms: C5*_21  and  O5*_22
REMARK                            x       y       z     vdW  Elec       q    Type
REMARK                         _______ _______ _______ _____ _____    ______ ____
ROOT
ATOM      1  I   UNL     1      33.631 -22.708 -18.135  0.00  0.00    -0.055 I 
ATOM      2  N   UNL     1      34.966 -23.501 -14.541  0.00  0.00    -0.214 N 
ATOM      3  N   UNL     1      35.207 -23.735 -15.914  0.00  0.00    -0.217 NA
ATOM      4  N   UNL     1      32.999 -23.160 -13.082  0.00  0.00    -0.232 NA
ATOM      5  N   UNL     1      30.870 -23.550 -14.179  0.00  0.00    -0.234 NA
ATOM      6  C   UNL     1      33.595 -23.451 -14.251  0.00  0.00    +0.129 C 
ATOM      7  C   UNL     1      33.867 -24.031 -16.501  0.00  0.00    +0.137 C 
ATOM      8  C   UNL     1      32.894 -23.774 -15.400  0.00  0.00    +0.134 C 
ATOM      9  C   UNL     1      31.527 -23.827 -15.323  0.00  0.00    +0.108 C 
ATOM     10  C   UNL     1      31.651 -23.227 -13.120  0.00  0.00    +0.252 C 
ATOM     11  H   UNL     1      35.834 -24.529 -16.037  0.00  0.00    +0.146 HD
ATOM     12  N   UNL     1      30.784 -24.210 -16.461  0.00  0.00    -0.346 N 
ATOM     13  H   UNL     1      29.802 -24.251 -16.417  0.00  0.00    +0.143 HD
ATOM     14  H   UNL     1      31.249 -24.435 -17.299  0.00  0.00    +0.143 HD
ENDROOT
BRANCH   2  16
ATOM     15  O4* UNL     1      37.286 -23.672 -14.085  0.00  0.00    -0.332 OA
ATOM     16  C1* UNL     1      35.963 -23.696 -13.520  0.00  0.00    +0.237 C 
ATOM     17  C2* UNL     1      35.802 -25.061 -12.867  0.00  0.00    +0.188 C 
ATOM     18  C3* UNL     1      37.222 -25.383 -12.452  0.00  0.00    +0.171 C 
ATOM     19  C4* UNL     1      38.030 -24.813 -13.607  0.00  0.00    +0.175 C 
BRANCH  17  20
ATOM     20  O2* UNL     1      34.916 -25.036 -11.767  0.00  0.00    -0.378 OA
ATOM     21  H2* UNL     1      34.037 -24.752 -12.067  0.00  0.00    +0.211 HD
ENDBRANCH  17  20
BRANCH  18  22
ATOM     22  O3* UNL     1      37.569 -24.658 -11.272  0.00  0.00    -0.379 OA
ATOM     23  H3* UNL     1      36.813 -24.117 -10.990  0.00  0.00    +0.211 HD
ENDBRANCH  18  22
BRANCH  19  24
ATOM     24  C5* UNL     1      38.199 -25.788 -14.764  0.00  0.00    +0.169 C 
BRANCH  24  25
ATOM     25  O5* UNL     1      39.385 -26.536 -14.559  0.00  0.00    -0.379 OA
ATOM     26  H5* UNL     1      40.027 -25.996 -14.071  0.00  0.00    +0.211 HD
ENDBRANCH  24  25
ENDBRANCH  19  24
ENDBRANCH   2  16
TORSDOF 5
ENDMDL
