MODEL 1
REMARK VINA RESULT:      -5.6      0.000      0.000
REMARK  Name = 6971051
REMARK  5 active torsions:
REMARK  status: ('A' for Active; 'I' for Inactive)
REMARK    1  A    between atoms: C_1  and  N_2
REMARK    2  A    between atoms: C_1  and  C_8
REMARK    3  A    between atoms: C_1  and  C_9
REMARK    4  A    between atoms: C_9  and  O_10
REMARK    5  A    between atoms: O_10  and  C_12
REMARK                            x       y       z     vdW  Elec       q    Type
REMARK                         _______ _______ _______ _____ _____    ______ ____
ROOT
ATOM      1  C   UNK     1      38.722 -24.967 -14.112  0.00  0.00    +0.085 C 
ENDROOT
BRANCH   1   2
ATOM      2  N   UNK     1      37.841 -24.800 -15.312  0.00  0.00    +0.391 N 
ATOM      3  H   UNK     1      37.127 -24.098 -15.114  0.00  0.00    -0.088 HD
ATOM      4  H   UNK     1      37.393 -25.690 -15.530  0.00  0.00    -0.088 HD
ATOM      5  H   UNK     1      38.403 -24.498 -16.107  0.00  0.00    -0.088 HD
ENDBRANCH   1   2
BRANCH   1   8
ATOM      6  O   UNK     1      41.064 -24.817 -14.535  0.00  0.00    -0.248 OA
ATOM      7  O   UNK     1      40.046 -26.858 -14.618  0.00  0.00    -0.248 OA
ATOM      8  C   UNK     1      40.080 -25.605 -14.448  0.00  0.00    +0.348 C 
ENDBRANCH   1   8
BRANCH   1   9
ATOM      9  C   UNK     1      37.909 -25.675 -13.032  0.00  0.00    +0.198 C 
BRANCH   9  10
ATOM     10  O   UNK     1      38.037 -24.993 -11.791  0.00  0.00    -0.450 OA
BRANCH  10  12
ATOM     11  O   UNK     1      38.314 -22.706 -11.616  0.00  0.00    -0.250 OA
ATOM     12  C   UNK     1      37.610 -23.694 -11.780  0.00  0.00    +0.317 C 
ATOM     13  C   UNK     1      36.128 -23.641 -12.001  0.00  0.00    +0.121 C 
ENDBRANCH  10  12
ENDBRANCH   9  10
ENDBRANCH   1   9
TORSDOF 5
ENDMDL
MODEL 2
REMARK VINA RESULT:      -5.6      2.423      2.745
REMARK  Name = 6971051
REMARK  5 active torsions:
REMARK  status: ('A' for Active; 'I' for Inactive)
REMARK    1  A    between atoms: C_1  and  N_2
REMARK    2  A    between atoms: C_1  and  C_8
REMARK    3  A    between atoms: C_1  and  C_9
REMARK    4  A    between atoms: C_9  and  O_10
REMARK    5  A    between atoms: O_10  and  C_12
REMARK                            x       y       z     vdW  Elec       q    Type
REMARK                         _______ _______ _______ _____ _____    ______ ____
ROOT
ATOM      1  C   UNK     1      36.613 -25.462 -14.454  0.00  0.00    +0.085 C 
ENDROOT
BRANCH   1   2
ATOM      2  N   UNK     1      35.116 -25.458 -14.450  0.00  0.00    +0.391 N 
ATOM      3  H   UNK     1      34.779 -24.665 -13.902  0.00  0.00    -0.088 HD
ATOM      4  H   UNK     1      34.775 -26.326 -14.036  0.00  0.00    -0.088 HD
ATOM      5  H   UNK     1      34.773 -25.380 -15.407  0.00  0.00    -0.088 HD
ENDBRANCH   1   2
BRANCH   1   8
ATOM      6  O   UNK     1      38.258 -27.186 -14.551  0.00  0.00    -0.248 OA
ATOM      7  O   UNK     1      36.578 -27.164 -16.094  0.00  0.00    -0.248 OA
ATOM      8  C   UNK     1      37.209 -26.732 -15.087  0.00  0.00    +0.348 C 
ENDBRANCH   1   8
BRANCH   1   9
ATOM      9  C   UNK     1      37.084 -25.148 -13.037  0.00  0.00    +0.198 C 
BRANCH   9  10
ATOM     10  O   UNK     1      36.011 -25.295 -12.116  0.00  0.00    -0.450 OA
BRANCH  10  12
ATOM     11  O   UNK     1      35.393 -24.534 -10.024  0.00  0.00    -0.250 OA
ATOM     12  C   UNK     1      35.979 -24.393 -11.090  0.00  0.00    +0.317 C 
ATOM     13  C   UNK     1      36.777 -23.178 -11.453  0.00  0.00    +0.121 C 
ENDBRANCH  10  12
ENDBRANCH   9  10
ENDBRANCH   1   9
TORSDOF 5
ENDMDL
MODEL 3
REMARK VINA RESULT:      -5.5      2.208      2.612
REMARK  Name = 6971051
REMARK  5 active torsions:
REMARK  status: ('A' for Active; 'I' for Inactive)
REMARK    1  A    between atoms: C_1  and  N_2
REMARK    2  A    between atoms: C_1  and  C_8
REMARK    3  A    between atoms: C_1  and  C_9
REMARK    4  A    between atoms: C_9  and  O_10
REMARK    5  A    between atoms: O_10  and  C_12
REMARK                            x       y       z     vdW  Elec       q    Type
REMARK                         _______ _______ _______ _____ _____    ______ ____
ROOT
ATOM      1  C   UNK     1      37.495 -26.613 -13.948  0.00  0.00    +0.085 C 
ENDROOT
BRANCH   1   2
ATOM      2  N   UNK     1      38.955 -26.288 -14.010  0.00  0.00    +0.391 N 
ATOM      3  H   UNK     1      39.207 -25.699 -13.216  0.00  0.00    -0.088 HD
ATOM      4  H   UNK     1      39.156 -25.791 -14.879  0.00  0.00    -0.088 HD
ATOM      5  H   UNK     1      39.498 -27.151 -13.979  0.00  0.00    -0.088 HD
ENDBRANCH   1   2
BRANCH   1   8
ATOM      6  O   UNK     1      36.717 -27.314 -16.091  0.00  0.00    -0.248 OA
ATOM      7  O   UNK     1      36.307 -25.178 -15.403  0.00  0.00    -0.248 OA
ATOM      8  C   UNK     1      36.764 -26.350 -15.276  0.00  0.00    +0.348 C 
ENDBRANCH   1   8
BRANCH   1   9
ATOM      9  C   UNK     1      36.913 -25.912 -12.725  0.00  0.00    +0.198 C 
BRANCH   9  10
ATOM     10  O   UNK     1      37.937 -25.225 -12.016  0.00  0.00    -0.450 OA
BRANCH  10  12
ATOM     11  O   UNK     1      38.653 -23.060 -11.647  0.00  0.00    -0.250 OA
ATOM     12  C   UNK     1      37.771 -23.874 -11.891  0.00  0.00    +0.317 C 
ATOM     13  C   UNK     1      36.332 -23.514 -12.102  0.00  0.00    +0.121 C 
ENDBRANCH  10  12
ENDBRANCH   9  10
ENDBRANCH   1   9
TORSDOF 5
ENDMDL
MODEL 4
REMARK VINA RESULT:      -5.4      1.963      2.424
REMARK  Name = 6971051
REMARK  5 active torsions:
REMARK  status: ('A' for Active; 'I' for Inactive)
REMARK    1  A    between atoms: C_1  and  N_2
REMARK    2  A    between atoms: C_1  and  C_8
REMARK    3  A    between atoms: C_1  and  C_9
REMARK    4  A    between atoms: C_9  and  O_10
REMARK    5  A    between atoms: O_10  and  C_12
REMARK                            x       y       z     vdW  Elec       q    Type
REMARK                         _______ _______ _______ _____ _____    ______ ____
ROOT
ATOM      1  C   UNK     1      36.861 -25.572 -14.834  0.00  0.00    +0.085 C 
ENDROOT
BRANCH   1   2
ATOM      2  N   UNK     1      36.209 -26.900 -15.066  0.00  0.00    +0.391 N 
ATOM      3  H   UNK     1      35.317 -26.762 -15.543  0.00  0.00    -0.088 HD
ATOM      4  H   UNK     1      36.046 -27.359 -14.170  0.00  0.00    -0.088 HD
ATOM      5  H   UNK     1      36.817 -27.481 -15.642  0.00  0.00    -0.088 HD
ENDBRANCH   1   2
BRANCH   1   8
ATOM      6  O   UNK     1      38.876 -26.835 -14.660  0.00  0.00    -0.248 OA
ATOM      7  O   UNK     1      38.922 -24.600 -14.205  0.00  0.00    -0.248 OA
ATOM      8  C   UNK     1      38.368 -25.684 -14.546  0.00  0.00    +0.348 C 
ENDBRANCH   1   8
BRANCH   1   9
ATOM      9  C   UNK     1      36.042 -24.828 -13.783  0.00  0.00    +0.198 C 
BRANCH   9  10
ATOM     10  O   UNK     1      36.157 -25.473 -12.520  0.00  0.00    -0.450 OA
BRANCH  10  12
ATOM     11  O   UNK     1      35.315 -24.974 -10.428  0.00  0.00    -0.250 OA
ATOM     12  C   UNK     1      35.959 -24.678 -11.426  0.00  0.00    +0.317 C 
ATOM     13  C   UNK     1      36.656 -23.365 -11.615  0.00  0.00    +0.121 C 
ENDBRANCH  10  12
ENDBRANCH   9  10
ENDBRANCH   1   9
TORSDOF 5
ENDMDL
MODEL 5
REMARK VINA RESULT:      -5.3      2.720      4.645
REMARK  Name = 6971051
REMARK  5 active torsions:
REMARK  status: ('A' for Active; 'I' for Inactive)
REMARK    1  A    between atoms: C_1  and  N_2
REMARK    2  A    between atoms: C_1  and  C_8
REMARK    3  A    between atoms: C_1  and  C_9
REMARK    4  A    between atoms: C_9  and  O_10
REMARK    5  A    between atoms: O_10  and  C_12
REMARK                            x       y       z     vdW  Elec       q    Type
REMARK                         _______ _______ _______ _____ _____    ______ ____
ROOT
ATOM      1  C   UNK     1      36.785 -23.374 -11.874  0.00  0.00    +0.085 C 
ENDROOT
BRANCH   1   2
ATOM      2  N   UNK     1      38.233 -23.683 -11.652  0.00  0.00    +0.391 N 
ATOM      3  H   UNK     1      38.327 -24.634 -11.293  0.00  0.00    -0.088 HD
ATOM      4  H   UNK     1      38.621 -23.025 -10.975  0.00  0.00    -0.088 HD
ATOM      5  H   UNK     1      38.738 -23.601 -12.534  0.00  0.00    -0.088 HD
ENDBRANCH   1   2
BRANCH   1   8
ATOM      6  O   UNK     1      34.940 -24.866 -11.639  0.00  0.00    -0.248 OA
ATOM      7  O   UNK     1      36.088 -24.214  -9.778  0.00  0.00    -0.248 OA
ATOM      8  C   UNK     1      35.847 -24.243 -11.019  0.00  0.00    +0.348 C 
ENDBRANCH   1   8
BRANCH   1   9
ATOM      9  C   UNK     1      36.527 -23.406 -13.377  0.00  0.00    +0.198 C 
BRANCH   9  10
ATOM     10  O   UNK     1      37.418 -24.315 -14.012  0.00  0.00    -0.450 OA
BRANCH  10  12
ATOM     11  O   UNK     1      36.078 -25.387 -15.559  0.00  0.00    -0.250 OA
ATOM     12  C   UNK     1      36.838 -25.404 -14.599  0.00  0.00    +0.317 C 
ATOM     13  C   UNK     1      37.270 -26.655 -13.894  0.00  0.00    +0.121 C 
ENDBRANCH  10  12
ENDBRANCH   9  10
ENDBRANCH   1   9
TORSDOF 5
ENDMDL
MODEL 6
REMARK VINA RESULT:      -5.3      2.459      3.019
REMARK  Name = 6971051
REMARK  5 active torsions:
REMARK  status: ('A' for Active; 'I' for Inactive)
REMARK    1  A    between atoms: C_1  and  N_2
REMARK    2  A    between atoms: C_1  and  C_8
REMARK    3  A    between atoms: C_1  and  C_9
REMARK    4  A    between atoms: C_9  and  O_10
REMARK    5  A    between atoms: O_10  and  C_12
REMARK                            x       y       z     vdW  Elec       q    Type
REMARK                         _______ _______ _______ _____ _____    ______ ____
ROOT
ATOM      1  C   UNK     1      38.765 -25.612 -14.674  0.00  0.00    +0.085 C 
ENDROOT
BRANCH   1   2
ATOM      2  N   UNK     1      38.095 -26.924 -14.406  0.00  0.00    +0.391 N 
ATOM      3  H   UNK     1      38.076 -27.477 -15.263  0.00  0.00    -0.088 HD
ATOM      4  H   UNK     1      37.139 -26.758 -14.088  0.00  0.00    -0.088 HD
ATOM      5  H   UNK     1      38.610 -27.429 -13.686  0.00  0.00    -0.088 HD
ENDBRANCH   1   2
BRANCH   1   8
ATOM      6  O   UNK     1      40.836 -26.794 -14.709  0.00  0.00    -0.248 OA
ATOM      7  O   UNK     1      40.828 -24.581 -14.155  0.00  0.00    -0.248 OA
ATOM      8  C   UNK     1      40.293 -25.673 -14.504  0.00  0.00    +0.348 C 
ENDBRANCH   1   8
BRANCH   1   9
ATOM      9  C   UNK     1      38.052 -24.546 -13.847  0.00  0.00    +0.198 C 
BRANCH   9  10
ATOM     10  O   UNK     1      37.937 -23.340 -14.592  0.00  0.00    -0.450 OA
BRANCH  10  12
ATOM     11  O   UNK     1      36.064 -24.130 -15.690  0.00  0.00    -0.250 OA
ATOM     12  C   UNK     1      36.990 -23.337 -15.578  0.00  0.00    +0.317 C 
ATOM     13  C   UNK     1      37.242 -22.203 -16.525  0.00  0.00    +0.121 C 
ENDBRANCH  10  12
ENDBRANCH   9  10
ENDBRANCH   1   9
TORSDOF 5
ENDMDL
MODEL 7
REMARK VINA RESULT:      -5.3      2.560      4.628
REMARK  Name = 6971051
REMARK  5 active torsions:
REMARK  status: ('A' for Active; 'I' for Inactive)
REMARK    1  A    between atoms: C_1  and  N_2
REMARK    2  A    between atoms: C_1  and  C_8
REMARK    3  A    between atoms: C_1  and  C_9
REMARK    4  A    between atoms: C_9  and  O_10
REMARK    5  A    between atoms: O_10  and  C_12
REMARK                            x       y       z     vdW  Elec       q    Type
REMARK                         _______ _______ _______ _____ _____    ______ ____
ROOT
ATOM      1  C   UNK     1      36.808 -24.238 -12.166  0.00  0.00    +0.085 C 
ENDROOT
BRANCH   1   2
ATOM      2  N   UNK     1      37.482 -23.180 -11.347  0.00  0.00    +0.391 N 
ATOM      3  H   UNK     1      37.239 -22.260 -11.714  0.00  0.00    -0.088 HD
ATOM      4  H   UNK     1      38.493 -23.309 -11.394  0.00  0.00    -0.088 HD
ATOM      5  H   UNK     1      37.174 -23.253 -10.378  0.00  0.00    -0.088 HD
ENDBRANCH   1   2
BRANCH   1   8
ATOM      6  O   UNK     1      35.360 -25.070 -10.464  0.00  0.00    -0.248 OA
ATOM      7  O   UNK     1      34.469 -24.418 -12.461  0.00  0.00    -0.248 OA
ATOM      8  C   UNK     1      35.411 -24.607 -11.638  0.00  0.00    +0.348 C 
ENDBRANCH   1   8
BRANCH   1   9
ATOM      9  C   UNK     1      37.783 -25.401 -12.321  0.00  0.00    +0.198 C 
BRANCH   9  10
ATOM     10  O   UNK     1      37.160 -26.479 -13.008  0.00  0.00    -0.450 OA
BRANCH  10  12
ATOM     11  O   UNK     1      38.652 -27.008 -14.691  0.00  0.00    -0.250 OA
ATOM     12  C   UNK     1      37.543 -26.657 -14.308  0.00  0.00    +0.317 C 
ATOM     13  C   UNK     1      36.395 -26.361 -15.224  0.00  0.00    +0.121 C 
ENDBRANCH  10  12
ENDBRANCH   9  10
ENDBRANCH   1   9
TORSDOF 5
ENDMDL
MODEL 8
REMARK VINA RESULT:      -5.3      1.645      4.313
REMARK  Name = 6971051
REMARK  5 active torsions:
REMARK  status: ('A' for Active; 'I' for Inactive)
REMARK    1  A    between atoms: C_1  and  N_2
REMARK    2  A    between atoms: C_1  and  C_8
REMARK    3  A    between atoms: C_1  and  C_9
REMARK    4  A    between atoms: C_9  and  O_10
REMARK    5  A    between atoms: O_10  and  C_12
REMARK                            x       y       z     vdW  Elec       q    Type
REMARK                         _______ _______ _______ _____ _____    ______ ____
ROOT
ATOM      1  C   UNK     1      36.948 -25.429 -12.356  0.00  0.00    +0.085 C 
ENDROOT
BRANCH   1   2
ATOM      2  N   UNK     1      36.126 -25.423 -13.608  0.00  0.00    +0.391 N 
ATOM      3  H   UNK     1      35.403 -24.706 -13.536  0.00  0.00    -0.088 HD
ATOM      4  H   UNK     1      35.687 -26.336 -13.731  0.00  0.00    -0.088 HD
ATOM      5  H   UNK     1      36.725 -25.223 -14.408  0.00  0.00    -0.088 HD
ENDBRANCH   1   2
BRANCH   1   8
ATOM      6  O   UNK     1      36.933 -23.451 -11.026  0.00  0.00    -0.248 OA
ATOM      7  O   UNK     1      35.351 -25.051 -10.655  0.00  0.00    -0.248 OA
ATOM      8  C   UNK     1      36.353 -24.551 -11.242  0.00  0.00    +0.348 C 
ENDBRANCH   1   8
BRANCH   1   9
ATOM      9  C   UNK     1      38.390 -25.116 -12.744  0.00  0.00    +0.198 C 
BRANCH   9  10
ATOM     10  O   UNK     1      38.987 -26.242 -13.375  0.00  0.00    -0.450 OA
BRANCH  10  12
ATOM     11  O   UNK     1      41.151 -26.517 -14.134  0.00  0.00    -0.250 OA
ATOM     12  C   UNK     1      40.055 -25.974 -14.185  0.00  0.00    +0.317 C 
ATOM     13  C   UNK     1      39.695 -24.901 -15.167  0.00  0.00    +0.121 C 
ENDBRANCH  10  12
ENDBRANCH   9  10
ENDBRANCH   1   9
TORSDOF 5
ENDMDL
MODEL 9
REMARK VINA RESULT:      -5.2      2.575      3.833
REMARK  Name = 6971051
REMARK  5 active torsions:
REMARK  status: ('A' for Active; 'I' for Inactive)
REMARK    1  A    between atoms: C_1  and  N_2
REMARK    2  A    between atoms: C_1  and  C_8
REMARK    3  A    between atoms: C_1  and  C_9
REMARK    4  A    between atoms: C_9  and  O_10
REMARK    5  A    between atoms: O_10  and  C_12
REMARK                            x       y       z     vdW  Elec       q    Type
REMARK                         _______ _______ _______ _____ _____    ______ ____
ROOT
ATOM      1  C   UNK     1      37.839 -25.129 -12.861  0.00  0.00    +0.085 C 
ENDROOT
BRANCH   1   2
ATOM      2  N   UNK     1      36.477 -25.719 -13.055  0.00  0.00    +0.391 N 
ATOM      3  H   UNK     1      35.768 -25.027 -12.811  0.00  0.00    -0.088 HD
ATOM      4  H   UNK     1      36.373 -26.537 -12.454  0.00  0.00    -0.088 HD
ATOM      5  H   UNK     1      36.361 -25.996 -14.030  0.00  0.00    -0.088 HD
ENDBRANCH   1   2
BRANCH   1   8
ATOM      6  O   UNK     1      38.907 -23.351 -11.685  0.00  0.00    -0.248 OA
ATOM      7  O   UNK     1      36.910 -24.149 -10.922  0.00  0.00    -0.248 OA
ATOM      8  C   UNK     1      37.893 -24.103 -11.716  0.00  0.00    +0.348 C 
ENDBRANCH   1   8
BRANCH   1   9
ATOM      9  C   UNK     1      38.328 -24.629 -14.218  0.00  0.00    +0.198 C 
BRANCH   9  10
ATOM     10  O   UNK     1      37.750 -23.365 -14.515  0.00  0.00    -0.450 OA
BRANCH  10  12
ATOM     11  O   UNK     1      36.021 -24.137 -15.839  0.00  0.00    -0.250 OA
ATOM     12  C   UNK     1      36.911 -23.333 -15.594  0.00  0.00    +0.317 C 
ATOM     13  C   UNK     1      37.234 -22.151 -16.458  0.00  0.00    +0.121 C 
ENDBRANCH  10  12
ENDBRANCH   9  10
ENDBRANCH   1   9
TORSDOF 5
ENDMDL
