MODEL 1
REMARK VINA RESULT:      -8.6      0.000      0.000
REMARK  Name = 3055171
REMARK  4 active torsions:
REMARK  status: ('A' for Active; 'I' for Inactive)
REMARK    1  A    between atoms: C_3  and  N_17
REMARK    2  A    between atoms: C_8  and  C_14
REMARK    3  A    between atoms: N_17  and  C_19
REMARK    4  A    between atoms: N_17  and  C_23
REMARK                            x       y       z     vdW  Elec       q    Type
REMARK                         _______ _______ _______ _____ _____    ______ ____
ROOT
ATOM      1  F   UNL     1      31.916 -14.175 -21.206  0.00  0.00    -0.201 F 
ATOM      2  O   UNL     1      31.564 -11.529 -21.447  0.00  0.00    -0.476 OA
ATOM      3  C   UNL     1      32.288  -9.371 -22.355  0.00  0.00    -0.009 C 
ATOM      4  C   UNL     1      32.769 -10.013 -23.656  0.00  0.00    +0.013 C 
ATOM      5  C   UNL     1      31.140 -10.205 -21.792  0.00  0.00    +0.185 C 
ATOM      6  C   UNL     1      32.929 -11.497 -23.473  0.00  0.00    +0.016 C 
ATOM      7  C   UNL     1      32.317 -12.163 -22.402  0.00  0.00    +0.162 C 
ATOM      8  C   UNL     1      33.677 -12.237 -24.399  0.00  0.00    +0.052 C 
ATOM      9  C   UNL     1      32.485 -13.540 -22.241  0.00  0.00    +0.173 C 
ATOM     10  C   UNL     1      33.832 -13.614 -24.243  0.00  0.00    +0.007 C 
ATOM     11  C   UNL     1      33.240 -14.265 -23.163  0.00  0.00    +0.033 C 
ENDROOT
BRANCH   8  14
ATOM     12  O   UNL     1      33.982 -11.910 -26.712  0.00  0.00    -0.270 OA
ATOM     13  N   UNL     1      35.284 -10.646 -25.308  0.00  0.00    -0.325 N 
ATOM     14  C   UNL     1      34.312 -11.609 -25.553  0.00  0.00    +0.243 C 
ATOM     15  H   UNL     1      35.735 -10.200 -26.061  0.00  0.00    +0.145 HD
ATOM     16  H   UNL     1      35.523 -10.412 -24.383  0.00  0.00    +0.145 HD
ENDBRANCH   8  14
BRANCH   3  17
ATOM     17  N   UNL     1      31.862  -7.996 -22.596  0.00  0.00    +0.394 N 
ATOM     18  H   UNL     1      30.863  -7.931 -22.402  0.00  0.00    -0.079 HD
BRANCH  17  19
ATOM     19  C   UNL     1      32.080  -7.635 -23.968  0.00  0.00    -0.058 C 
ATOM     20  C   UNL     1      33.249  -6.635 -24.095  0.00  0.00    -0.021 C 
ATOM     21  C   UNL     1      31.148  -6.480 -24.390  0.00  0.00    -0.021 C 
ATOM     22  C   UNL     1      32.369  -5.852 -25.092  0.00  0.00    -0.004 C 
ENDBRANCH  17  19
BRANCH  17  23
ATOM     23  C   UNL     1      32.556  -7.088 -21.714  0.00  0.00    -0.058 C 
ATOM     24  C   UNL     1      32.926  -7.782 -20.387  0.00  0.00    -0.021 C 
ATOM     25  C   UNL     1      31.559  -6.236 -20.901  0.00  0.00    -0.021 C 
ATOM     26  C   UNL     1      32.454  -6.499 -19.673  0.00  0.00    -0.004 C 
ENDBRANCH  17  23
ENDBRANCH   3  17
TORSDOF 4
ENDMDL
MODEL 2
REMARK VINA RESULT:      -8.6      2.628      4.421
REMARK  Name = 3055171
REMARK  4 active torsions:
REMARK  status: ('A' for Active; 'I' for Inactive)
REMARK    1  A    between atoms: C_3  and  N_17
REMARK    2  A    between atoms: C_8  and  C_14
REMARK    3  A    between atoms: N_17  and  C_19
REMARK    4  A    between atoms: N_17  and  C_23
REMARK                            x       y       z     vdW  Elec       q    Type
REMARK                         _______ _______ _______ _____ _____    ______ ____
ROOT
ATOM      1  F   UNL     1      33.809 -15.192 -26.485  0.00  0.00    -0.201 F 
ATOM      2  O   UNL     1      33.405 -12.844 -25.259  0.00  0.00    -0.476 OA
ATOM      3  C   UNL     1      32.776 -11.582 -23.254  0.00  0.00    -0.009 C 
ATOM      4  C   UNL     1      33.419 -12.616 -22.331  0.00  0.00    +0.013 C 
ATOM      5  C   UNL     1      33.522 -11.584 -24.586  0.00  0.00    +0.185 C 
ATOM      6  C   UNL     1      33.643 -13.906 -23.072  0.00  0.00    +0.016 C 
ATOM      7  C   UNL     1      33.636 -13.943 -24.473  0.00  0.00    +0.162 C 
ATOM      8  C   UNL     1      33.891 -15.086 -22.358  0.00  0.00    +0.052 C 
ATOM      9  C   UNL     1      33.835 -15.151 -25.145  0.00  0.00    +0.173 C 
ATOM     10  C   UNL     1      34.102 -16.288 -23.032  0.00  0.00    +0.007 C 
ATOM     11  C   UNL     1      34.070 -16.322 -24.425  0.00  0.00    +0.033 C 
ENDROOT
BRANCH   8  14
ATOM     12  O   UNL     1      35.025 -15.028 -20.295  0.00  0.00    -0.270 OA
ATOM     13  N   UNL     1      32.740 -15.199 -20.213  0.00  0.00    -0.325 N 
ATOM     14  C   UNL     1      33.944 -15.107 -20.900  0.00  0.00    +0.243 C 
ATOM     15  H   UNL     1      32.735 -15.216 -19.229  0.00  0.00    +0.145 HD
ATOM     16  H   UNL     1      31.892 -15.248 -20.710  0.00  0.00    +0.145 HD
ENDBRANCH   8  14
BRANCH   3  17
ATOM     17  N   UNL     1      32.815 -10.260 -22.639  0.00  0.00    +0.394 N 
ATOM     18  H   UNL     1      33.617 -10.221 -22.011  0.00  0.00    -0.079 HD
BRANCH  17  19
ATOM     19  C   UNL     1      31.626 -10.028 -21.868  0.00  0.00    -0.058 C 
ATOM     20  C   UNL     1      31.969  -9.805 -20.380  0.00  0.00    -0.021 C 
ATOM     21  C   UNL     1      30.977 -11.361 -21.439  0.00  0.00    -0.021 C 
ATOM     22  C   UNL     1      30.778 -10.727 -20.047  0.00  0.00    -0.004 C 
ENDBRANCH  17  19
BRANCH  17  23
ATOM     23  C   UNL     1      32.976  -9.237 -23.645  0.00  0.00    -0.058 C 
ATOM     24  C   UNL     1      33.868  -8.091 -23.128  0.00  0.00    -0.021 C 
ATOM     25  C   UNL     1      31.802  -8.237 -23.610  0.00  0.00    -0.021 C 
ATOM     26  C   UNL     1      32.852  -7.117 -23.760  0.00  0.00    -0.004 C 
ENDBRANCH  17  23
ENDBRANCH   3  17
TORSDOF 4
ENDMDL
MODEL 3
REMARK VINA RESULT:      -8.1     13.183     16.411
REMARK  Name = 3055171
REMARK  4 active torsions:
REMARK  status: ('A' for Active; 'I' for Inactive)
REMARK    1  A    between atoms: C_3  and  N_17
REMARK    2  A    between atoms: C_8  and  C_14
REMARK    3  A    between atoms: N_17  and  C_19
REMARK    4  A    between atoms: N_17  and  C_23
REMARK                            x       y       z     vdW  Elec       q    Type
REMARK                         _______ _______ _______ _____ _____    ______ ____
ROOT
ATOM      1  F   UNL     1      31.571 -23.471 -17.286  0.00  0.00    -0.201 F 
ATOM      2  O   UNL     1      33.499 -23.832 -15.461  0.00  0.00    -0.476 OA
ATOM      3  C   UNL     1      35.880 -23.940 -14.888  0.00  0.00    -0.009 C 
ATOM      4  C   UNL     1      36.231 -22.845 -15.895  0.00  0.00    +0.013 C 
ATOM      5  C   UNL     1      34.452 -23.713 -14.397  0.00  0.00    +0.185 C 
ATOM      6  C   UNL     1      35.110 -22.668 -16.882  0.00  0.00    +0.016 C 
ATOM      7  C   UNL     1      33.824 -23.154 -16.607  0.00  0.00    +0.162 C 
ATOM      8  C   UNL     1      35.340 -21.985 -18.084  0.00  0.00    +0.052 C 
ATOM      9  C   UNL     1      32.797 -22.991 -17.539  0.00  0.00    +0.173 C 
ATOM     10  C   UNL     1      34.309 -21.812 -19.006  0.00  0.00    +0.007 C 
ATOM     11  C   UNL     1      33.039 -22.318 -18.737  0.00  0.00    +0.033 C 
ENDROOT
BRANCH   8  14
ATOM     12  O   UNL     1      37.177 -21.639 -19.517  0.00  0.00    -0.270 OA
ATOM     13  N   UNL     1      37.268 -20.633 -17.457  0.00  0.00    -0.325 N 
ATOM     14  C   UNL     1      36.647 -21.427 -18.414  0.00  0.00    +0.243 C 
ATOM     15  H   UNL     1      38.151 -20.239 -17.643  0.00  0.00    +0.145 HD
ATOM     16  H   UNL     1      36.827 -20.467 -16.593  0.00  0.00    +0.145 HD
ENDBRANCH   8  14
BRANCH   3  17
ATOM     17  N   UNL     1      36.821 -23.924 -13.774  0.00  0.00    +0.394 N 
ATOM     18  H   UNL     1      37.562 -23.258 -13.988  0.00  0.00    -0.079 HD
BRANCH  17  19
ATOM     19  C   UNL     1      37.414 -25.220 -13.597  0.00  0.00    -0.058 C 
ATOM     20  C   UNL     1      38.938 -25.165 -13.830  0.00  0.00    -0.021 C 
ATOM     21  C   UNL     1      37.323 -26.051 -14.895  0.00  0.00    -0.021 C 
ATOM     22  C   UNL     1      38.785 -26.471 -14.637  0.00  0.00    -0.004 C 
ENDBRANCH  17  19
BRANCH  17  23
ATOM     23  C   UNL     1      36.164 -23.497 -12.561  0.00  0.00    -0.058 C 
ATOM     24  C   UNL     1      37.178 -22.894 -11.568  0.00  0.00    -0.021 C 
ATOM     25  C   UNL     1      36.009 -24.670 -11.572  0.00  0.00    -0.021 C 
ATOM     26  C   UNL     1      36.458 -23.696 -10.464  0.00  0.00    -0.004 C 
ENDBRANCH  17  23
ENDBRANCH   3  17
TORSDOF 4
ENDMDL
MODEL 4
REMARK VINA RESULT:      -8.1      2.632      7.212
REMARK  Name = 3055171
REMARK  4 active torsions:
REMARK  status: ('A' for Active; 'I' for Inactive)
REMARK    1  A    between atoms: C_3  and  N_17
REMARK    2  A    between atoms: C_8  and  C_14
REMARK    3  A    between atoms: N_17  and  C_19
REMARK    4  A    between atoms: N_17  and  C_23
REMARK                            x       y       z     vdW  Elec       q    Type
REMARK                         _______ _______ _______ _____ _____    ______ ____
ROOT
ATOM      1  F   UNL     1      34.403  -8.494 -24.569  0.00  0.00    -0.201 F 
ATOM      2  O   UNL     1      34.205 -11.167 -24.549  0.00  0.00    -0.476 OA
ATOM      3  C   UNL     1      33.648 -13.240 -23.366  0.00  0.00    -0.009 C 
ATOM      4  C   UNL     1      32.507 -12.567 -22.604  0.00  0.00    +0.013 C 
ATOM      5  C   UNL     1      33.820 -12.537 -24.711  0.00  0.00    +0.185 C 
ATOM      6  C   UNL     1      32.653 -11.072 -22.664  0.00  0.00    +0.016 C 
ATOM      7  C   UNL     1      33.472 -10.465 -23.627  0.00  0.00    +0.162 C 
ATOM      8  C   UNL     1      31.942 -10.265 -21.766  0.00  0.00    +0.052 C 
ATOM      9  C   UNL     1      33.606  -9.075 -23.662  0.00  0.00    +0.173 C 
ATOM     10  C   UNL     1      32.067  -8.877 -21.812  0.00  0.00    +0.007 C 
ATOM     11  C   UNL     1      32.901  -8.282 -22.756  0.00  0.00    +0.033 C 
ENDROOT
BRANCH   8  14
ATOM     12  O   UNL     1      30.003 -11.417 -21.089  0.00  0.00    -0.270 OA
ATOM     13  N   UNL     1      31.421 -10.715 -19.428  0.00  0.00    -0.325 N 
ATOM     14  C   UNL     1      31.049 -10.833 -20.763  0.00  0.00    +0.243 C 
ATOM     15  H   UNL     1      30.844 -11.086 -18.722  0.00  0.00    +0.145 HD
ATOM     16  H   UNL     1      32.260 -10.260 -19.190  0.00  0.00    +0.145 HD
ENDBRANCH   8  14
BRANCH   3  17
ATOM     17  N   UNL     1      33.366 -14.658 -23.554  0.00  0.00    +0.394 N 
ATOM     18  H   UNL     1      32.375 -14.762 -23.774  0.00  0.00    -0.079 HD
BRANCH  17  19
ATOM     19  C   UNL     1      33.641 -15.391 -22.350  0.00  0.00    -0.058 C 
ATOM     20  C   UNL     1      32.458 -15.294 -21.364  0.00  0.00    -0.021 C 
ATOM     21  C   UNL     1      34.444 -14.531 -21.351  0.00  0.00    -0.021 C 
ATOM     22  C   UNL     1      33.503 -15.066 -20.252  0.00  0.00    -0.004 C 
ENDBRANCH  17  19
BRANCH  17  23
ATOM     23  C   UNL     1      34.133 -15.187 -24.657  0.00  0.00    -0.058 C 
ATOM     24  C   UNL     1      33.249 -16.053 -25.578  0.00  0.00    -0.021 C 
ATOM     25  C   UNL     1      34.856 -16.489 -24.254  0.00  0.00    -0.021 C 
ATOM     26  C   UNL     1      34.413 -17.066 -25.615  0.00  0.00    -0.004 C 
ENDBRANCH  17  23
ENDBRANCH   3  17
TORSDOF 4
ENDMDL
MODEL 5
REMARK VINA RESULT:      -8.1     14.753     17.613
REMARK  Name = 3055171
REMARK  4 active torsions:
REMARK  status: ('A' for Active; 'I' for Inactive)
REMARK    1  A    between atoms: C_3  and  N_17
REMARK    2  A    between atoms: C_8  and  C_14
REMARK    3  A    between atoms: N_17  and  C_19
REMARK    4  A    between atoms: N_17  and  C_23
REMARK                            x       y       z     vdW  Elec       q    Type
REMARK                         _______ _______ _______ _____ _____    ______ ____
ROOT
ATOM      1  F   UNL     1      32.837 -22.032 -18.435  0.00  0.00    -0.201 F 
ATOM      2  O   UNL     1      34.542 -23.336 -16.831  0.00  0.00    -0.476 OA
ATOM      3  C   UNL     1      35.108 -24.227 -14.619  0.00  0.00    -0.009 C 
ATOM      4  C   UNL     1      33.650 -24.576 -14.322  0.00  0.00    +0.013 C 
ATOM      5  C   UNL     1      35.332 -24.303 -16.127  0.00  0.00    +0.185 C 
ATOM      6  C   UNL     1      32.737 -23.835 -15.261  0.00  0.00    +0.016 C 
ATOM      7  C   UNL     1      33.226 -23.277 -16.450  0.00  0.00    +0.162 C 
ATOM      8  C   UNL     1      31.373 -23.722 -14.963  0.00  0.00    +0.052 C 
ATOM      9  C   UNL     1      32.367 -22.583 -17.306  0.00  0.00    +0.173 C 
ATOM     10  C   UNL     1      30.515 -23.040 -15.826  0.00  0.00    +0.007 C 
ATOM     11  C   UNL     1      31.013 -22.467 -16.995  0.00  0.00    +0.033 C 
ENDROOT
BRANCH   8  14
ATOM     12  O   UNL     1      30.909 -23.753 -12.654  0.00  0.00    -0.270 OA
ATOM     13  N   UNL     1      30.099 -25.504 -13.895  0.00  0.00    -0.325 N 
ATOM     14  C   UNL     1      30.796 -24.309 -13.759  0.00  0.00    +0.243 C 
ATOM     15  H   UNL     1      29.696 -25.932 -13.106  0.00  0.00    +0.145 HD
ATOM     16  H   UNL     1      30.010 -25.924 -14.781  0.00  0.00    +0.145 HD
ENDBRANCH   8  14
BRANCH   3  17
ATOM     17  N   UNL     1      36.000 -25.142 -13.915  0.00  0.00    +0.394 N 
ATOM     18  H   UNL     1      35.458 -25.949 -13.610  0.00  0.00    -0.079 HD
BRANCH  17  19
ATOM     19  C   UNL     1      36.558 -24.507 -12.754  0.00  0.00    -0.058 C 
ATOM     20  C   UNL     1      35.954 -25.095 -11.461  0.00  0.00    -0.021 C 
ATOM     21  C   UNL     1      35.804 -23.202 -12.422  0.00  0.00    -0.021 C 
ATOM     22  C   UNL     1      35.845 -23.645 -10.944  0.00  0.00    -0.004 C 
ENDBRANCH  17  19
BRANCH  17  23
ATOM     23  C   UNL     1      37.048 -25.604 -14.794  0.00  0.00    -0.058 C 
ATOM     24  C   UNL     1      37.725 -26.869 -14.226  0.00  0.00    -0.021 C 
ATOM     25  C   UNL     1      38.372 -24.863 -14.515  0.00  0.00    -0.021 C 
ATOM     26  C   UNL     1      39.073 -26.232 -14.625  0.00  0.00    -0.004 C 
ENDBRANCH  17  23
ENDBRANCH   3  17
TORSDOF 4
ENDMDL
MODEL 6
REMARK VINA RESULT:      -8.0      3.438      7.698
REMARK  Name = 3055171
REMARK  4 active torsions:
REMARK  status: ('A' for Active; 'I' for Inactive)
REMARK    1  A    between atoms: C_3  and  N_17
REMARK    2  A    between atoms: C_8  and  C_14
REMARK    3  A    between atoms: N_17  and  C_19
REMARK    4  A    between atoms: N_17  and  C_23
REMARK                            x       y       z     vdW  Elec       q    Type
REMARK                         _______ _______ _______ _____ _____    ______ ____
ROOT
ATOM      1  F   UNL     1      31.355 -12.205 -19.583  0.00  0.00    -0.201 F 
ATOM      2  O   UNL     1      32.742 -14.386 -20.289  0.00  0.00    -0.476 OA
ATOM      3  C   UNL     1      33.708 -15.808 -22.037  0.00  0.00    -0.009 C 
ATOM      4  C   UNL     1      34.033 -14.603 -22.919  0.00  0.00    +0.013 C 
ATOM      5  C   UNL     1      33.745 -15.369 -20.575  0.00  0.00    +0.185 C 
ATOM      6  C   UNL     1      33.246 -13.402 -22.468  0.00  0.00    +0.016 C 
ATOM      7  C   UNL     1      32.665 -13.358 -21.194  0.00  0.00    +0.162 C 
ATOM      8  C   UNL     1      33.112 -12.297 -23.319  0.00  0.00    +0.052 C 
ATOM      9  C   UNL     1      31.928 -12.241 -20.795  0.00  0.00    +0.173 C 
ATOM     10  C   UNL     1      32.387 -11.177 -22.913  0.00  0.00    +0.007 C 
ATOM     11  C   UNL     1      31.792 -11.150 -21.653  0.00  0.00    +0.033 C 
ENDROOT
BRANCH   8  14
ATOM     12  O   UNL     1      33.415 -13.101 -25.512  0.00  0.00    -0.270 OA
ATOM     13  N   UNL     1      34.640 -11.259 -24.908  0.00  0.00    -0.325 N 
ATOM     14  C   UNL     1      33.720 -12.267 -24.644  0.00  0.00    +0.243 C 
ATOM     15  H   UNL     1      35.072 -11.205 -25.790  0.00  0.00    +0.145 HD
ATOM     16  H   UNL     1      34.860 -10.599 -24.211  0.00  0.00    +0.145 HD
ENDBRANCH   8  14
BRANCH   3  17
ATOM     17  N   UNL     1      34.661 -16.885 -22.280  0.00  0.00    +0.394 N 
ATOM     18  H   UNL     1      35.565 -16.470 -22.508  0.00  0.00    -0.079 HD
BRANCH  17  19
ATOM     19  C   UNL     1      34.240 -17.688 -23.393  0.00  0.00    -0.058 C 
ATOM     20  C   UNL     1      35.452 -18.338 -24.094  0.00  0.00    -0.021 C 
ATOM     21  C   UNL     1      34.065 -16.827 -24.662  0.00  0.00    -0.021 C 
ATOM     22  C   UNL     1      34.787 -17.952 -25.432  0.00  0.00    -0.004 C 
ENDBRANCH  17  19
BRANCH  17  23
ATOM     23  C   UNL     1      34.821 -17.698 -21.097  0.00  0.00    -0.058 C 
ATOM     24  C   UNL     1      36.071 -18.594 -21.209  0.00  0.00    -0.021 C 
ATOM     25  C   UNL     1      33.980 -18.988 -21.196  0.00  0.00    -0.021 C 
ATOM     26  C   UNL     1      35.207 -19.738 -20.637  0.00  0.00    -0.004 C 
ENDBRANCH  17  23
ENDBRANCH   3  17
TORSDOF 4
ENDMDL
MODEL 7
REMARK VINA RESULT:      -7.9     14.310     17.060
REMARK  Name = 3055171
REMARK  4 active torsions:
REMARK  status: ('A' for Active; 'I' for Inactive)
REMARK    1  A    between atoms: C_3  and  N_17
REMARK    2  A    between atoms: C_8  and  C_14
REMARK    3  A    between atoms: N_17  and  C_19
REMARK    4  A    between atoms: N_17  and  C_23
REMARK                            x       y       z     vdW  Elec       q    Type
REMARK                         _______ _______ _______ _____ _____    ______ ____
ROOT
ATOM      1  F   UNL     1      29.907 -23.930 -13.492  0.00  0.00    -0.201 F 
ATOM      2  O   UNL     1      32.562 -24.184 -13.239  0.00  0.00    -0.476 OA
ATOM      3  C   UNL     1      34.767 -24.493 -14.263  0.00  0.00    -0.009 C 
ATOM      4  C   UNL     1      34.378 -23.668 -15.489  0.00  0.00    +0.013 C 
ATOM      5  C   UNL     1      33.971 -23.990 -13.061  0.00  0.00    +0.185 C 
ATOM      6  C   UNL     1      32.882 -23.537 -15.573  0.00  0.00    +0.016 C 
ATOM      7  C   UNL     1      32.072 -23.787 -14.456  0.00  0.00    +0.162 C 
ATOM      8  C   UNL     1      32.283 -23.134 -16.774  0.00  0.00    +0.052 C 
ATOM      9  C   UNL     1      30.683 -23.672 -14.554  0.00  0.00    +0.173 C 
ATOM     10  C   UNL     1      30.897 -23.006 -16.865  0.00  0.00    +0.007 C 
ATOM     11  C   UNL     1      30.098 -23.279 -15.757  0.00  0.00    +0.033 C 
ENDROOT
BRANCH   8  14
ATOM     12  O   UNL     1      34.084 -23.486 -18.251  0.00  0.00    -0.270 OA
ATOM     13  N   UNL     1      32.639 -21.782 -18.770  0.00  0.00    -0.325 N 
ATOM     14  C   UNL     1      33.072 -22.826 -17.962  0.00  0.00    +0.243 C 
ATOM     15  H   UNL     1      33.144 -21.544 -19.581  0.00  0.00    +0.145 HD
ATOM     16  H   UNL     1      31.827 -21.279 -18.531  0.00  0.00    +0.145 HD
ENDBRANCH   8  14
BRANCH   3  17
ATOM     17  N   UNL     1      36.201 -24.387 -14.016  0.00  0.00    +0.394 N 
ATOM     18  H   UNL     1      36.616 -23.831 -14.763  0.00  0.00    -0.079 HD
BRANCH  17  19
ATOM     19  C   UNL     1      36.811 -25.687 -14.029  0.00  0.00    -0.058 C 
ATOM     20  C   UNL     1      38.076 -25.694 -14.913  0.00  0.00    -0.021 C 
ATOM     21  C   UNL     1      36.156 -26.595 -15.092  0.00  0.00    -0.021 C 
ATOM     22  C   UNL     1      37.581 -27.043 -15.477  0.00  0.00    -0.004 C 
ENDBRANCH  17  19
BRANCH  17  23
ATOM     23  C   UNL     1      36.452 -23.721 -12.761  0.00  0.00    -0.058 C 
ATOM     24  C   UNL     1      37.601 -22.700 -12.898  0.00  0.00    -0.021 C 
ATOM     25  C   UNL     1      37.400 -24.553 -11.872  0.00  0.00    -0.021 C 
ATOM     26  C   UNL     1      38.133 -23.234 -11.551  0.00  0.00    -0.004 C 
ENDBRANCH  17  23
ENDBRANCH   3  17
TORSDOF 4
ENDMDL
MODEL 8
REMARK VINA RESULT:      -7.8     14.844     17.184
REMARK  Name = 3055171
REMARK  4 active torsions:
REMARK  status: ('A' for Active; 'I' for Inactive)
REMARK    1  A    between atoms: C_3  and  N_17
REMARK    2  A    between atoms: C_8  and  C_14
REMARK    3  A    between atoms: N_17  and  C_19
REMARK    4  A    between atoms: N_17  and  C_23
REMARK                            x       y       z     vdW  Elec       q    Type
REMARK                         _______ _______ _______ _____ _____    ______ ____
ROOT
ATOM      1  F   UNL     1      35.687 -24.042 -10.237  0.00  0.00    -0.201 F 
ATOM      2  O   UNL     1      34.125 -23.777 -12.398  0.00  0.00    -0.476 OA
ATOM      3  C   UNL     1      33.868 -23.756 -14.836  0.00  0.00    -0.009 C 
ATOM      4  C   UNL     1      34.928 -24.842 -15.015  0.00  0.00    +0.013 C 
ATOM      5  C   UNL     1      33.197 -23.946 -13.477  0.00  0.00    +0.185 C 
ATOM      6  C   UNL     1      35.762 -24.965 -13.769  0.00  0.00    +0.016 C 
ATOM      7  C   UNL     1      35.314 -24.444 -12.547  0.00  0.00    +0.162 C 
ATOM      8  C   UNL     1      36.993 -25.633 -13.816  0.00  0.00    +0.052 C 
ATOM      9  C   UNL     1      36.105 -24.556 -11.402  0.00  0.00    +0.173 C 
ATOM     10  C   UNL     1      37.775 -25.755 -12.668  0.00  0.00    +0.007 C 
ATOM     11  C   UNL     1      37.334 -25.214 -11.463  0.00  0.00    +0.033 C 
ENDROOT
BRANCH   8  14
ATOM     12  O   UNL     1      36.821 -27.037 -15.699  0.00  0.00    -0.270 OA
ATOM     13  N   UNL     1      38.762 -25.834 -15.480  0.00  0.00    -0.325 N 
ATOM     14  C   UNL     1      37.500 -26.226 -15.049  0.00  0.00    +0.243 C 
ATOM     15  H   UNL     1      39.138 -26.212 -16.308  0.00  0.00    +0.145 HD
ATOM     16  H   UNL     1      39.280 -25.180 -14.958  0.00  0.00    +0.145 HD
ENDBRANCH   8  14
BRANCH   3  17
ATOM     17  N   UNL     1      32.887 -23.823 -15.913  0.00  0.00    +0.394 N 
ATOM     18  H   UNL     1      32.927 -24.754 -16.327  0.00  0.00    -0.079 HD
BRANCH  17  19
ATOM     19  C   UNL     1      33.193 -22.861 -16.933  0.00  0.00    -0.058 C 
ATOM     20  C   UNL     1      33.443 -23.555 -18.289  0.00  0.00    -0.021 C 
ATOM     21  C   UNL     1      34.696 -22.506 -16.926  0.00  0.00    -0.021 C 
ATOM     22  C   UNL     1      34.649 -22.609 -18.464  0.00  0.00    -0.004 C 
ENDBRANCH  17  19
BRANCH  17  23
ATOM     23  C   UNL     1      31.554 -23.612 -15.399  0.00  0.00    -0.058 C 
ATOM     24  C   UNL     1      30.633 -24.797 -15.755  0.00  0.00    -0.021 C 
ATOM     25  C   UNL     1      30.713 -22.763 -16.375  0.00  0.00    -0.021 C 
ATOM     26  C   UNL     1      29.557 -23.751 -16.117  0.00  0.00    -0.004 C 
ENDBRANCH  17  23
ENDBRANCH   3  17
TORSDOF 4
ENDMDL
MODEL 9
REMARK VINA RESULT:      -7.4     14.642     17.361
REMARK  Name = 3055171
REMARK  4 active torsions:
REMARK  status: ('A' for Active; 'I' for Inactive)
REMARK    1  A    between atoms: C_3  and  N_17
REMARK    2  A    between atoms: C_8  and  C_14
REMARK    3  A    between atoms: N_17  and  C_19
REMARK    4  A    between atoms: N_17  and  C_23
REMARK                            x       y       z     vdW  Elec       q    Type
REMARK                         _______ _______ _______ _____ _____    ______ ____
ROOT
ATOM      1  F   UNL     1      32.976 -22.231 -18.702  0.00  0.00    -0.201 F 
ATOM      2  O   UNL     1      34.925 -22.936 -17.004  0.00  0.00    -0.476 OA
ATOM      3  C   UNL     1      35.694 -23.341 -14.712  0.00  0.00    -0.009 C 
ATOM      4  C   UNL     1      34.331 -23.886 -14.289  0.00  0.00    +0.013 C 
ATOM      5  C   UNL     1      35.894 -23.622 -16.200  0.00  0.00    +0.185 C 
ATOM      6  C   UNL     1      33.278 -23.481 -15.284  0.00  0.00    +0.016 C 
ATOM      7  C   UNL     1      33.630 -23.047 -16.570  0.00  0.00    +0.162 C 
ATOM      8  C   UNL     1      31.923 -23.561 -14.937  0.00  0.00    +0.052 C 
ATOM      9  C   UNL     1      32.640 -22.664 -17.478  0.00  0.00    +0.173 C 
ATOM     10  C   UNL     1      30.936 -23.190 -15.850  0.00  0.00    +0.007 C 
ATOM     11  C   UNL     1      31.295 -22.738 -17.118  0.00  0.00    +0.033 C 
ENDROOT
BRANCH   8  14
ATOM     12  O   UNL     1      31.478 -23.281 -12.641  0.00  0.00    -0.270 OA
ATOM     13  N   UNL     1      31.074 -25.358 -13.526  0.00  0.00    -0.325 N 
ATOM     14  C   UNL     1      31.491 -24.036 -13.627  0.00  0.00    +0.243 C 
ATOM     15  H   UNL     1      30.775 -25.715 -12.659  0.00  0.00    +0.145 HD
ATOM     16  H   UNL     1      31.079 -25.937 -14.322  0.00  0.00    +0.145 HD
ENDBRANCH   8  14
BRANCH   3  17
ATOM     17  N   UNL     1      36.754 -23.957 -13.922  0.00  0.00    +0.394 N 
ATOM     18  H   UNL     1      37.385 -23.223 -13.602  0.00  0.00    -0.079 HD
BRANCH  17  19
ATOM     19  C   UNL     1      37.507 -24.882 -14.723  0.00  0.00    -0.058 C 
ATOM     20  C   UNL     1      37.531 -26.281 -14.073  0.00  0.00    -0.021 C 
ATOM     21  C   UNL     1      39.014 -24.791 -14.403  0.00  0.00    -0.021 C 
ATOM     22  C   UNL     1      39.033 -26.334 -14.424  0.00  0.00    -0.004 C 
ENDBRANCH  17  19
BRANCH  17  23
ATOM     23  C   UNL     1      36.204 -24.619 -12.763  0.00  0.00    -0.058 C 
ATOM     24  C   UNL     1      35.229 -23.692 -12.010  0.00  0.00    -0.021 C 
ATOM     25  C   UNL     1      37.147 -24.486 -11.550  0.00  0.00    -0.021 C 
ATOM     26  C   UNL     1      35.894 -24.179 -10.705  0.00  0.00    -0.004 C 
ENDBRANCH  17  23
ENDBRANCH   3  17
TORSDOF 4
ENDMDL
