MODEL 1
REMARK VINA RESULT:      -6.3      0.000      0.000
REMARK  Name = 7248
REMARK  1 active torsions:
REMARK  status: ('A' for Active; 'I' for Inactive)
REMARK    1  A    between atoms: C_5  and  N_9
REMARK                            x       y       z     vdW  Elec       q    Type
REMARK                         _______ _______ _______ _____ _____    ______ ____
ROOT
ATOM      1  C   UNL     1      35.602 -20.519 -20.223  0.00  0.00    -0.025 C 
ATOM      2  C   UNL     1      34.989 -19.547 -21.014  0.00  0.00    -0.026 C 
ATOM      3  C   UNL     1      34.822 -21.400 -19.473  0.00  0.00    +0.010 C 
ATOM      4  C   UNL     1      33.598 -19.456 -21.056  0.00  0.00    -0.003 C 
ATOM      5  C   UNL     1      33.432 -21.310 -19.515  0.00  0.00    +0.041 C 
ATOM      6  C   UNL     1      32.819 -20.338 -20.306  0.00  0.00    +0.014 C 
ATOM      7  C   UNL     1      37.090 -20.635 -20.163  0.00  0.00    +0.031 C 
ATOM      8  C   UNL     1      35.803 -18.592 -21.825  0.00  0.00    +0.031 C 
ENDROOT
BRANCH   5   9
ATOM      9  N   UNL     1      32.644 -22.200 -18.758  0.00  0.00    -0.357 N 
ATOM     10  H   UNL     1      32.915 -23.143 -18.667  0.00  0.00    +0.142 HD
ATOM     11  H   UNL     1      31.822 -21.882 -18.320  0.00  0.00    +0.142 HD
ENDBRANCH   5   9
TORSDOF 1
ENDMDL
MODEL 2
REMARK VINA RESULT:      -6.3      0.929      2.246
REMARK  Name = 7248
REMARK  1 active torsions:
REMARK  status: ('A' for Active; 'I' for Inactive)
REMARK    1  A    between atoms: C_5  and  N_9
REMARK                            x       y       z     vdW  Elec       q    Type
REMARK                         _______ _______ _______ _____ _____    ______ ____
ROOT
ATOM      1  C   UNL     1      34.525 -19.883 -20.683  0.00  0.00    -0.025 C 
ATOM      2  C   UNL     1      35.860 -20.156 -20.386  0.00  0.00    -0.026 C 
ATOM      3  C   UNL     1      33.512 -20.662 -20.121  0.00  0.00    +0.010 C 
ATOM      4  C   UNL     1      36.184 -21.207 -19.528  0.00  0.00    -0.003 C 
ATOM      5  C   UNL     1      33.835 -21.712 -19.262  0.00  0.00    +0.041 C 
ATOM      6  C   UNL     1      35.171 -21.985 -18.966  0.00  0.00    +0.014 C 
ATOM      7  C   UNL     1      34.155 -18.764 -21.600  0.00  0.00    +0.031 C 
ATOM      8  C   UNL     1      36.962 -19.337 -20.976  0.00  0.00    +0.031 C 
ENDROOT
BRANCH   5   9
ATOM      9  N   UNL     1      32.813 -22.498 -18.694  0.00  0.00    -0.357 N 
ATOM     10  H   UNL     1      32.853 -22.745 -17.742  0.00  0.00    +0.142 HD
ATOM     11  H   UNL     1      32.058 -22.802 -19.248  0.00  0.00    +0.142 HD
ENDBRANCH   5   9
TORSDOF 1
ENDMDL
MODEL 3
REMARK VINA RESULT:      -6.2      2.263      3.246
REMARK  Name = 7248
REMARK  1 active torsions:
REMARK  status: ('A' for Active; 'I' for Inactive)
REMARK    1  A    between atoms: C_5  and  N_9
REMARK                            x       y       z     vdW  Elec       q    Type
REMARK                         _______ _______ _______ _____ _____    ______ ____
ROOT
ATOM      1  C   UNL     1      35.505 -20.838 -19.799  0.00  0.00    -0.025 C 
ATOM      2  C   UNL     1      34.125 -21.037 -19.818  0.00  0.00    -0.026 C 
ATOM      3  C   UNL     1      36.081 -19.867 -20.620  0.00  0.00    +0.010 C 
ATOM      4  C   UNL     1      33.319 -20.266 -20.656  0.00  0.00    -0.003 C 
ATOM      5  C   UNL     1      35.276 -19.096 -21.458  0.00  0.00    +0.041 C 
ATOM      6  C   UNL     1      33.896 -19.295 -21.476  0.00  0.00    +0.014 C 
ATOM      7  C   UNL     1      36.387 -21.652 -18.910  0.00  0.00    +0.031 C 
ATOM      8  C   UNL     1      33.485 -22.070 -18.949  0.00  0.00    +0.031 C 
ENDROOT
BRANCH   5   9
ATOM      9  N   UNL     1      35.857 -18.115 -22.287  0.00  0.00    -0.357 N 
ATOM     10  H   UNL     1      35.984 -18.293 -23.247  0.00  0.00    +0.142 HD
ATOM     11  H   UNL     1      36.137 -17.251 -21.907  0.00  0.00    +0.142 HD
ENDBRANCH   5   9
TORSDOF 1
ENDMDL
MODEL 4
REMARK VINA RESULT:      -6.2      2.427      4.023
REMARK  Name = 7248
REMARK  1 active torsions:
REMARK  status: ('A' for Active; 'I' for Inactive)
REMARK    1  A    between atoms: C_5  and  N_9
REMARK                            x       y       z     vdW  Elec       q    Type
REMARK                         _______ _______ _______ _____ _____    ______ ____
ROOT
ATOM      1  C   UNL     1      34.255 -20.063 -20.619  0.00  0.00    -0.025 C 
ATOM      2  C   UNL     1      35.371 -20.660 -20.033  0.00  0.00    -0.026 C 
ATOM      3  C   UNL     1      34.418 -18.984 -21.489  0.00  0.00    +0.010 C 
ATOM      4  C   UNL     1      36.650 -20.178 -20.316  0.00  0.00    -0.003 C 
ATOM      5  C   UNL     1      35.695 -18.502 -21.772  0.00  0.00    +0.041 C 
ATOM      6  C   UNL     1      36.812 -19.099 -21.185  0.00  0.00    +0.014 C 
ATOM      7  C   UNL     1      32.877 -20.562 -20.331  0.00  0.00    +0.031 C 
ATOM      8  C   UNL     1      35.223 -21.816 -19.099  0.00  0.00    +0.031 C 
ENDROOT
BRANCH   5   9
ATOM      9  N   UNL     1      35.860 -17.412 -22.650  0.00  0.00    -0.357 N 
ATOM     10  H   UNL     1      35.246 -17.297 -23.412  0.00  0.00    +0.142 HD
ATOM     11  H   UNL     1      36.587 -16.766 -22.503  0.00  0.00    +0.142 HD
ENDBRANCH   5   9
TORSDOF 1
ENDMDL
MODEL 5
REMARK VINA RESULT:      -5.8      4.330      5.800
REMARK  Name = 7248
REMARK  1 active torsions:
REMARK  status: ('A' for Active; 'I' for Inactive)
REMARK    1  A    between atoms: C_5  and  N_9
REMARK                            x       y       z     vdW  Elec       q    Type
REMARK                         _______ _______ _______ _____ _____    ______ ____
ROOT
ATOM      1  C   UNL     1      34.916 -17.022 -23.053  0.00  0.00    -0.025 C 
ATOM      2  C   UNL     1      34.933 -17.203 -21.670  0.00  0.00    -0.026 C 
ATOM      3  C   UNL     1      34.667 -15.757 -23.587  0.00  0.00    +0.010 C 
ATOM      4  C   UNL     1      34.703 -16.121 -20.821  0.00  0.00    -0.003 C 
ATOM      5  C   UNL     1      34.437 -14.675 -22.738  0.00  0.00    +0.041 C 
ATOM      6  C   UNL     1      34.455 -14.856 -21.355  0.00  0.00    +0.014 C 
ATOM      7  C   UNL     1      35.159 -18.167 -23.981  0.00  0.00    +0.031 C 
ATOM      8  C   UNL     1      35.197 -18.548 -21.074  0.00  0.00    +0.031 C 
ENDROOT
BRANCH   5   9
ATOM      9  N   UNL     1      34.187 -13.397 -23.277  0.00  0.00    -0.357 N 
ATOM     10  H   UNL     1      34.284 -13.242 -24.245  0.00  0.00    +0.142 HD
ATOM     11  H   UNL     1      33.914 -12.658 -22.688  0.00  0.00    +0.142 HD
ENDBRANCH   5   9
TORSDOF 1
ENDMDL
MODEL 6
REMARK VINA RESULT:      -5.8      3.421      4.749
REMARK  Name = 7248
REMARK  1 active torsions:
REMARK  status: ('A' for Active; 'I' for Inactive)
REMARK    1  A    between atoms: C_5  and  N_9
REMARK                            x       y       z     vdW  Elec       q    Type
REMARK                         _______ _______ _______ _____ _____    ______ ____
ROOT
ATOM      1  C   UNL     1      34.769 -17.271 -23.687  0.00  0.00    -0.025 C 
ATOM      2  C   UNL     1      34.319 -16.046 -23.195  0.00  0.00    -0.026 C 
ATOM      3  C   UNL     1      35.329 -18.208 -22.818  0.00  0.00    +0.010 C 
ATOM      4  C   UNL     1      34.429 -15.757 -21.835  0.00  0.00    -0.003 C 
ATOM      5  C   UNL     1      35.440 -17.919 -21.459  0.00  0.00    +0.041 C 
ATOM      6  C   UNL     1      34.990 -16.694 -20.967  0.00  0.00    +0.014 C 
ATOM      7  C   UNL     1      34.660 -17.603 -25.140  0.00  0.00    +0.031 C 
ATOM      8  C   UNL     1      33.715 -15.027 -24.106  0.00  0.00    +0.031 C 
ENDROOT
BRANCH   5   9
ATOM      9  N   UNL     1      36.007 -18.865 -20.581  0.00  0.00    -0.357 N 
ATOM     10  H   UNL     1      35.454 -19.598 -20.223  0.00  0.00    +0.142 HD
ATOM     11  H   UNL     1      36.954 -18.794 -20.324  0.00  0.00    +0.142 HD
ENDBRANCH   5   9
TORSDOF 1
ENDMDL
MODEL 7
REMARK VINA RESULT:      -5.7      1.612      2.858
REMARK  Name = 7248
REMARK  1 active torsions:
REMARK  status: ('A' for Active; 'I' for Inactive)
REMARK    1  A    between atoms: C_5  and  N_9
REMARK                            x       y       z     vdW  Elec       q    Type
REMARK                         _______ _______ _______ _____ _____    ______ ____
ROOT
ATOM      1  C   UNL     1      34.237 -20.126 -20.574  0.00  0.00    -0.025 C 
ATOM      2  C   UNL     1      35.065 -19.225 -21.244  0.00  0.00    -0.026 C 
ATOM      3  C   UNL     1      34.781 -21.017 -19.648  0.00  0.00    +0.010 C 
ATOM      4  C   UNL     1      36.437 -19.214 -20.988  0.00  0.00    -0.003 C 
ATOM      5  C   UNL     1      36.152 -21.006 -19.392  0.00  0.00    +0.041 C 
ATOM      6  C   UNL     1      36.980 -20.105 -20.062  0.00  0.00    +0.014 C 
ATOM      7  C   UNL     1      32.766 -20.156 -20.833  0.00  0.00    +0.031 C 
ATOM      8  C   UNL     1      34.506 -18.262 -22.240  0.00  0.00    +0.031 C 
ENDROOT
BRANCH   5   9
ATOM      9  N   UNL     1      36.702 -21.905 -18.456  0.00  0.00    -0.357 N 
ATOM     10  H   UNL     1      37.672 -22.074 -18.447  0.00  0.00    +0.142 HD
ATOM     11  H   UNL     1      36.117 -22.366 -17.813  0.00  0.00    +0.142 HD
ENDBRANCH   5   9
TORSDOF 1
ENDMDL
MODEL 8
REMARK VINA RESULT:      -5.7      3.422      4.673
REMARK  Name = 7248
REMARK  1 active torsions:
REMARK  status: ('A' for Active; 'I' for Inactive)
REMARK    1  A    between atoms: C_5  and  N_9
REMARK                            x       y       z     vdW  Elec       q    Type
REMARK                         _______ _______ _______ _____ _____    ______ ____
ROOT
ATOM      1  C   UNL     1      34.784 -18.289 -21.899  0.00  0.00    -0.025 C 
ATOM      2  C   UNL     1      34.841 -18.102 -23.280  0.00  0.00    -0.026 C 
ATOM      3  C   UNL     1      34.706 -17.185 -21.049  0.00  0.00    +0.010 C 
ATOM      4  C   UNL     1      34.821 -16.812 -23.812  0.00  0.00    -0.003 C 
ATOM      5  C   UNL     1      34.686 -15.896 -21.580  0.00  0.00    +0.041 C 
ATOM      6  C   UNL     1      34.743 -15.709 -22.961  0.00  0.00    +0.014 C 
ATOM      7  C   UNL     1      34.804 -19.660 -21.308  0.00  0.00    +0.031 C 
ATOM      8  C   UNL     1      34.924 -19.268 -24.211  0.00  0.00    +0.031 C 
ENDROOT
BRANCH   5   9
ATOM      9  N   UNL     1      34.608 -14.780 -20.722  0.00  0.00    -0.357 N 
ATOM     10  H   UNL     1      34.382 -14.905 -19.772  0.00  0.00    +0.142 HD
ATOM     11  H   UNL     1      34.780 -13.876 -21.071  0.00  0.00    +0.142 HD
ENDBRANCH   5   9
TORSDOF 1
ENDMDL
MODEL 9
REMARK VINA RESULT:      -5.7      3.010      4.534
REMARK  Name = 7248
REMARK  1 active torsions:
REMARK  status: ('A' for Active; 'I' for Inactive)
REMARK    1  A    between atoms: C_5  and  N_9
REMARK                            x       y       z     vdW  Elec       q    Type
REMARK                         _______ _______ _______ _____ _____    ______ ____
ROOT
ATOM      1  C   UNL     1      34.776 -16.526 -22.872  0.00  0.00    -0.025 C 
ATOM      2  C   UNL     1      34.630 -17.214 -24.077  0.00  0.00    -0.026 C 
ATOM      3  C   UNL     1      35.085 -17.224 -21.704  0.00  0.00    +0.010 C 
ATOM      4  C   UNL     1      34.794 -18.599 -24.114  0.00  0.00    -0.003 C 
ATOM      5  C   UNL     1      35.249 -18.608 -21.741  0.00  0.00    +0.041 C 
ATOM      6  C   UNL     1      35.103 -19.296 -22.946  0.00  0.00    +0.014 C 
ATOM      7  C   UNL     1      34.605 -15.044 -22.809  0.00  0.00    +0.031 C 
ATOM      8  C   UNL     1      34.299 -16.490 -25.341  0.00  0.00    +0.031 C 
ENDROOT
BRANCH   5   9
ATOM      9  N   UNL     1      35.561 -19.313 -20.561  0.00  0.00    -0.357 N 
ATOM     10  H   UNL     1      35.908 -20.233 -20.614  0.00  0.00    +0.142 HD
ATOM     11  H   UNL     1      35.434 -18.886 -19.684  0.00  0.00    +0.142 HD
ENDBRANCH   5   9
TORSDOF 1
ENDMDL
