MODEL 1
REMARK VINA RESULT:      -9.0      0.000      0.000
REMARK  Name = 4940
REMARK  5 active torsions:
REMARK  status: ('A' for Active; 'I' for Inactive)
REMARK    1  A    between atoms: N_2  and  C_19
REMARK    2  A    between atoms: C_9  and  C_16
REMARK    3  A    between atoms: C_16  and  C_17
REMARK    4  A    between atoms: C_19  and  C_20
REMARK    5  A    between atoms: C_20  and  N_22
REMARK                            x       y       z     vdW  Elec       q    Type
REMARK                         _______ _______ _______ _____ _____    ______ ____
ROOT
ATOM      1  S   UNL     1      37.764 -23.046 -15.157  0.00  0.00    -0.084 S 
ATOM      2  N   UNL     1      34.751 -23.810 -15.193  0.00  0.00    -0.288 N 
ATOM      3  C   UNL     1      35.212 -23.074 -16.313  0.00  0.00    +0.058 C 
ATOM      4  C   UNL     1      35.377 -23.833 -13.920  0.00  0.00    +0.058 C 
ATOM      5  C   UNL     1      36.553 -22.649 -16.402  0.00  0.00    +0.043 C 
ATOM      6  C   UNL     1      36.734 -23.484 -13.772  0.00  0.00    +0.043 C 
ATOM      7  C   UNL     1      34.352 -22.703 -17.370  0.00  0.00    +0.018 C 
ATOM      8  C   UNL     1      34.669 -24.169 -12.745  0.00  0.00    +0.015 C 
ATOM      9  C   UNL     1      34.803 -21.966 -18.469  0.00  0.00    +0.036 C 
ATOM     10  C   UNL     1      37.003 -21.913 -17.512  0.00  0.00    +0.008 C 
ATOM     11  C   UNL     1      37.347 -23.502 -12.506  0.00  0.00    +0.008 C 
ATOM     12  C   UNL     1      36.131 -21.574 -18.542  0.00  0.00    +0.003 C 
ATOM     13  C   UNL     1      35.282 -24.180 -11.490  0.00  0.00    +0.001 C 
ATOM     14  C   UNL     1      36.623 -23.850 -11.370  0.00  0.00    +0.001 C 
ENDROOT
BRANCH   9  16
ATOM     15  O   UNL     1      32.884 -22.327 -19.780  0.00  0.00    -0.291 OA
ATOM     16  C   UNL     1      33.883 -21.618 -19.540  0.00  0.00    +0.173 C 
BRANCH  16  17
ATOM     17  C   UNL     1      34.137 -20.362 -20.393  0.00  0.00    +0.069 C 
ATOM     18  C   UNL     1      32.863 -19.686 -20.872  0.00  0.00    +0.009 C 
ENDBRANCH  16  17
ENDBRANCH   9  16
BRANCH   2  19
ATOM     19  C   UNL     1      33.490 -24.548 -15.340  0.00  0.00    +0.075 C 
BRANCH  19  20
ATOM     20  C   UNL     1      32.310 -23.699 -14.861  0.00  0.00    -0.038 C 
ATOM     21  C   UNL     1      31.458 -23.184 -16.022  0.00  0.00    -0.021 C 
BRANCH  20  22
ATOM     22  N   UNL     1      31.465 -24.510 -13.983  0.00  0.00    +0.387 N 
ATOM     23  C   UNL     1      30.503 -25.280 -14.770  0.00  0.00    -0.101 C 
ATOM     24  C   UNL     1      30.770 -23.660 -13.016  0.00  0.00    -0.101 C 
ATOM     25  H   UNL     1      32.058 -25.162 -13.470  0.00  0.00    -0.080 HD
ENDBRANCH  20  22
ENDBRANCH  19  20
ENDBRANCH   2  19
TORSDOF 5
ENDMDL
MODEL 2
REMARK VINA RESULT:      -8.5      9.582     13.167
REMARK  Name = 4940
REMARK  5 active torsions:
REMARK  status: ('A' for Active; 'I' for Inactive)
REMARK    1  A    between atoms: N_2  and  C_19
REMARK    2  A    between atoms: C_9  and  C_16
REMARK    3  A    between atoms: C_16  and  C_17
REMARK    4  A    between atoms: C_19  and  C_20
REMARK    5  A    between atoms: C_20  and  N_22
REMARK                            x       y       z     vdW  Elec       q    Type
REMARK                         _______ _______ _______ _____ _____    ______ ____
ROOT
ATOM      1  S   UNL     1      31.559 -12.412 -21.068  0.00  0.00    -0.084 S 
ATOM      2  N   UNL     1      33.540 -12.940 -23.404  0.00  0.00    -0.288 N 
ATOM      3  C   UNL     1      33.504 -13.932 -22.392  0.00  0.00    +0.058 C 
ATOM      4  C   UNL     1      33.128 -11.594 -23.240  0.00  0.00    +0.058 C 
ATOM      5  C   UNL     1      32.664 -13.795 -21.269  0.00  0.00    +0.043 C 
ATOM      6  C   UNL     1      32.249 -11.225 -22.202  0.00  0.00    +0.043 C 
ATOM      7  C   UNL     1      34.327 -15.079 -22.440  0.00  0.00    +0.018 C 
ATOM      8  C   UNL     1      33.600 -10.560 -24.078  0.00  0.00    +0.015 C 
ATOM      9  C   UNL     1      34.303 -16.051 -21.435  0.00  0.00    +0.036 C 
ATOM     10  C   UNL     1      32.638 -14.778 -20.265  0.00  0.00    +0.008 C 
ATOM     11  C   UNL     1      31.850  -9.886 -22.039  0.00  0.00    +0.008 C 
ATOM     12  C   UNL     1      33.454 -15.902 -20.348  0.00  0.00    +0.003 C 
ATOM     13  C   UNL     1      33.204  -9.231 -23.908  0.00  0.00    +0.001 C 
ATOM     14  C   UNL     1      32.326  -8.893 -22.890  0.00  0.00    +0.001 C 
ENDROOT
BRANCH   9  16
ATOM     15  O   UNL     1      35.593 -17.784 -20.506  0.00  0.00    -0.291 OA
ATOM     16  C   UNL     1      35.159 -17.222 -21.533  0.00  0.00    +0.173 C 
BRANCH  16  17
ATOM     17  C   UNL     1      35.539 -17.783 -22.915  0.00  0.00    +0.069 C 
ATOM     18  C   UNL     1      34.764 -19.034 -23.297  0.00  0.00    +0.009 C 
ENDBRANCH  16  17
ENDBRANCH   9  16
BRANCH   2  19
ATOM     19  C   UNL     1      34.113 -13.319 -24.703  0.00  0.00    +0.075 C 
BRANCH  19  20
ATOM     20  C   UNL     1      33.015 -13.790 -25.659  0.00  0.00    -0.038 C 
ATOM     21  C   UNL     1      33.225 -13.270 -27.082  0.00  0.00    -0.021 C 
BRANCH  20  22
ATOM     22  N   UNL     1      33.005 -15.254 -25.691  0.00  0.00    +0.387 N 
ATOM     23  C   UNL     1      34.367 -15.774 -25.593  0.00  0.00    -0.101 C 
ATOM     24  C   UNL     1      32.361 -15.732 -26.914  0.00  0.00    -0.101 C 
ATOM     25  H   UNL     1      32.471 -15.593 -24.892  0.00  0.00    -0.080 HD
ENDBRANCH  20  22
ENDBRANCH  19  20
ENDBRANCH   2  19
TORSDOF 5
ENDMDL
MODEL 3
REMARK VINA RESULT:      -8.5     13.615     17.107
REMARK  Name = 4940
REMARK  5 active torsions:
REMARK  status: ('A' for Active; 'I' for Inactive)
REMARK    1  A    between atoms: N_2  and  C_19
REMARK    2  A    between atoms: C_9  and  C_16
REMARK    3  A    between atoms: C_16  and  C_17
REMARK    4  A    between atoms: C_19  and  C_20
REMARK    5  A    between atoms: C_20  and  N_22
REMARK                            x       y       z     vdW  Elec       q    Type
REMARK                         _______ _______ _______ _____ _____    ______ ____
ROOT
ATOM      1  S   UNL     1      32.240  -7.808 -19.873  0.00  0.00    -0.084 S 
ATOM      2  N   UNL     1      32.267  -9.030 -22.731  0.00  0.00    -0.288 N 
ATOM      3  C   UNL     1      32.045  -7.632 -22.663  0.00  0.00    +0.058 C 
ATOM      4  C   UNL     1      32.034  -9.945 -21.673  0.00  0.00    +0.058 C 
ATOM      5  C   UNL     1      31.987  -6.965 -21.422  0.00  0.00    +0.043 C 
ATOM      6  C   UNL     1      31.976  -9.508 -20.335  0.00  0.00    +0.043 C 
ATOM      7  C   UNL     1      31.837  -6.850 -23.820  0.00  0.00    +0.018 C 
ATOM      8  C   UNL     1      31.815 -11.320 -21.909  0.00  0.00    +0.015 C 
ATOM      9  C   UNL     1      31.604  -5.473 -23.752  0.00  0.00    +0.036 C 
ATOM     10  C   UNL     1      31.759  -5.579 -21.359  0.00  0.00    +0.008 C 
ATOM     11  C   UNL     1      31.737 -10.419 -19.290  0.00  0.00    +0.008 C 
ATOM     12  C   UNL     1      31.568  -4.837 -22.520  0.00  0.00    +0.003 C 
ATOM     13  C   UNL     1      31.573 -12.219 -20.867  0.00  0.00    +0.001 C 
ATOM     14  C   UNL     1      31.537 -11.770 -19.556  0.00  0.00    +0.001 C 
ENDROOT
BRANCH   9  16
ATOM     15  O   UNL     1      30.384  -4.010 -25.131  0.00  0.00    -0.291 OA
ATOM     16  C   UNL     1      31.408  -4.706 -24.972  0.00  0.00    +0.173 C 
BRANCH  16  17
ATOM     17  C   UNL     1      32.471  -4.747 -26.084  0.00  0.00    +0.069 C 
ATOM     18  C   UNL     1      32.351  -3.606 -27.082  0.00  0.00    +0.009 C 
ENDBRANCH  16  17
ENDBRANCH   9  16
BRANCH   2  19
ATOM     19  C   UNL     1      32.707  -9.583 -24.019  0.00  0.00    +0.075 C 
BRANCH  19  20
ATOM     20  C   UNL     1      33.915 -10.503 -23.826  0.00  0.00    -0.038 C 
ATOM     21  C   UNL     1      33.760 -11.826 -24.576  0.00  0.00    -0.021 C 
BRANCH  20  22
ATOM     22  N   UNL     1      35.116  -9.823 -24.317  0.00  0.00    +0.387 N 
ATOM     23  C   UNL     1      34.935  -8.373 -24.268  0.00  0.00    -0.101 C 
ATOM     24  C   UNL     1      35.425 -10.255 -25.679  0.00  0.00    -0.101 C 
ATOM     25  H   UNL     1      35.899 -10.071 -23.714  0.00  0.00    -0.080 HD
ENDBRANCH  20  22
ENDBRANCH  19  20
ENDBRANCH   2  19
TORSDOF 5
ENDMDL
MODEL 4
REMARK VINA RESULT:      -8.5     10.168     12.851
REMARK  Name = 4940
REMARK  5 active torsions:
REMARK  status: ('A' for Active; 'I' for Inactive)
REMARK    1  A    between atoms: N_2  and  C_19
REMARK    2  A    between atoms: C_9  and  C_16
REMARK    3  A    between atoms: C_16  and  C_17
REMARK    4  A    between atoms: C_19  and  C_20
REMARK    5  A    between atoms: C_20  and  N_22
REMARK                            x       y       z     vdW  Elec       q    Type
REMARK                         _______ _______ _______ _____ _____    ______ ____
ROOT
ATOM      1  S   UNL     1      33.223 -15.634 -26.154  0.00  0.00    -0.084 S 
ATOM      2  N   UNL     1      34.106 -14.719 -23.318  0.00  0.00    -0.288 N 
ATOM      3  C   UNL     1      33.953 -13.686 -24.276  0.00  0.00    +0.058 C 
ATOM      4  C   UNL     1      34.332 -16.085 -23.621  0.00  0.00    +0.058 C 
ATOM      5  C   UNL     1      33.579 -13.977 -25.604  0.00  0.00    +0.043 C 
ATOM      6  C   UNL     1      33.994 -16.614 -24.883  0.00  0.00    +0.043 C 
ATOM      7  C   UNL     1      34.198 -12.332 -23.962  0.00  0.00    +0.018 C 
ATOM      8  C   UNL     1      34.932 -16.968 -22.696  0.00  0.00    +0.015 C 
ATOM      9  C   UNL     1      34.061 -11.314 -24.911  0.00  0.00    +0.036 C 
ATOM     10  C   UNL     1      33.435 -12.949 -26.553  0.00  0.00    +0.008 C 
ATOM     11  C   UNL     1      34.227 -17.969 -25.181  0.00  0.00    +0.008 C 
ATOM     12  C   UNL     1      33.675 -11.623 -26.207  0.00  0.00    +0.003 C 
ATOM     13  C   UNL     1      35.166 -18.311 -23.000  0.00  0.00    +0.001 C 
ATOM     14  C   UNL     1      34.810 -18.814 -24.242  0.00  0.00    +0.001 C 
ENDROOT
BRANCH   9  16
ATOM     15  O   UNL     1      35.295  -9.314 -24.998  0.00  0.00    -0.291 OA
ATOM     16  C   UNL     1      34.312  -9.931 -24.539  0.00  0.00    +0.173 C 
BRANCH  16  17
ATOM     17  C   UNL     1      33.359  -9.212 -23.568  0.00  0.00    +0.069 C 
ATOM     18  C   UNL     1      33.893  -7.879 -23.067  0.00  0.00    +0.009 C 
ENDBRANCH  16  17
ENDBRANCH   9  16
BRANCH   2  19
ATOM     19  C   UNL     1      34.102 -14.333 -21.900  0.00  0.00    +0.075 C 
BRANCH  19  20
ATOM     20  C   UNL     1      32.667 -14.155 -21.396  0.00  0.00    -0.038 C 
ATOM     21  C   UNL     1      32.399 -14.958 -20.122  0.00  0.00    -0.021 C 
BRANCH  20  22
ATOM     22  N   UNL     1      32.432 -12.737 -21.115  0.00  0.00    +0.387 N 
ATOM     23  C   UNL     1      31.989 -12.559 -19.734  0.00  0.00    -0.101 C 
ATOM     24  C   UNL     1      31.443 -12.191 -22.044  0.00  0.00    -0.101 C 
ATOM     25  H   UNL     1      33.307 -12.231 -21.242  0.00  0.00    -0.080 HD
ENDBRANCH  20  22
ENDBRANCH  19  20
ENDBRANCH   2  19
TORSDOF 5
ENDMDL
MODEL 5
REMARK VINA RESULT:      -8.4      2.164      4.974
REMARK  Name = 4940
REMARK  5 active torsions:
REMARK  status: ('A' for Active; 'I' for Inactive)
REMARK    1  A    between atoms: N_2  and  C_19
REMARK    2  A    between atoms: C_9  and  C_16
REMARK    3  A    between atoms: C_16  and  C_17
REMARK    4  A    between atoms: C_19  and  C_20
REMARK    5  A    between atoms: C_20  and  N_22
REMARK                            x       y       z     vdW  Elec       q    Type
REMARK                         _______ _______ _______ _____ _____    ______ ____
ROOT
ATOM      1  S   UNL     1      34.506 -23.947 -12.262  0.00  0.00    -0.084 S 
ATOM      2  N   UNL     1      34.802 -24.074 -15.353  0.00  0.00    -0.288 N 
ATOM      3  C   UNL     1      33.507 -23.756 -14.872  0.00  0.00    +0.058 C 
ATOM      4  C   UNL     1      35.804 -24.750 -14.611  0.00  0.00    +0.058 C 
ATOM      5  C   UNL     1      33.241 -23.692 -13.490  0.00  0.00    +0.043 C 
ATOM      6  C   UNL     1      35.765 -24.783 -13.203  0.00  0.00    +0.043 C 
ATOM      7  C   UNL     1      32.421 -23.526 -15.745  0.00  0.00    +0.018 C 
ATOM      8  C   UNL     1      36.859 -25.446 -15.240  0.00  0.00    +0.015 C 
ATOM      9  C   UNL     1      31.141 -23.226 -15.271  0.00  0.00    +0.036 C 
ATOM     10  C   UNL     1      31.953 -23.384 -13.018  0.00  0.00    +0.008 C 
ATOM     11  C   UNL     1      36.758 -25.462 -12.472  0.00  0.00    +0.008 C 
ATOM     12  C   UNL     1      30.907 -23.152 -13.907  0.00  0.00    +0.003 C 
ATOM     13  C   UNL     1      37.839 -26.123 -14.509  0.00  0.00    +0.001 C 
ATOM     14  C   UNL     1      37.790 -26.128 -13.123  0.00  0.00    +0.001 C 
ENDROOT
BRANCH   9  16
ATOM     15  O   UNL     1      30.239 -22.297 -17.234  0.00  0.00    -0.291 OA
ATOM     16  C   UNL     1      30.055 -22.983 -16.209  0.00  0.00    +0.173 C 
BRANCH  16  17
ATOM     17  C   UNL     1      28.661 -23.576 -15.939  0.00  0.00    +0.069 C 
ATOM     18  C   UNL     1      27.556 -22.532 -15.889  0.00  0.00    +0.009 C 
ENDBRANCH  16  17
ENDBRANCH   9  16
BRANCH   2  19
ATOM     19  C   UNL     1      35.106 -23.740 -16.751  0.00  0.00    +0.075 C 
BRANCH  19  20
ATOM     20  C   UNL     1      35.590 -22.292 -16.865  0.00  0.00    -0.038 C 
ATOM     21  C   UNL     1      37.107 -22.175 -16.715  0.00  0.00    -0.021 C 
BRANCH  20  22
ATOM     22  N   UNL     1      35.206 -21.762 -18.175  0.00  0.00    +0.387 N 
ATOM     23  C   UNL     1      34.250 -22.656 -18.825  0.00  0.00    -0.101 C 
ATOM     24  C   UNL     1      36.388 -21.577 -19.016  0.00  0.00    -0.101 C 
ATOM     25  H   UNL     1      34.760 -20.855 -18.041  0.00  0.00    -0.080 HD
ENDBRANCH  20  22
ENDBRANCH  19  20
ENDBRANCH   2  19
TORSDOF 5
ENDMDL
MODEL 6
REMARK VINA RESULT:      -8.1     12.211     16.196
REMARK  Name = 4940
REMARK  5 active torsions:
REMARK  status: ('A' for Active; 'I' for Inactive)
REMARK    1  A    between atoms: N_2  and  C_19
REMARK    2  A    between atoms: C_9  and  C_16
REMARK    3  A    between atoms: C_16  and  C_17
REMARK    4  A    between atoms: C_19  and  C_20
REMARK    5  A    between atoms: C_20  and  N_22
REMARK                            x       y       z     vdW  Elec       q    Type
REMARK                         _______ _______ _______ _____ _____    ______ ____
ROOT
ATOM      1  S   UNL     1      34.492  -7.132 -24.439  0.00  0.00    -0.084 S 
ATOM      2  N   UNL     1      32.211  -8.659 -22.980  0.00  0.00    -0.288 N 
ATOM      3  C   UNL     1      33.130  -9.466 -23.697  0.00  0.00    +0.058 C 
ATOM      4  C   UNL     1      31.972  -7.283 -23.224  0.00  0.00    +0.058 C 
ATOM      5  C   UNL     1      34.194  -8.889 -24.419  0.00  0.00    +0.043 C 
ATOM      6  C   UNL     1      32.922  -6.490 -23.898  0.00  0.00    +0.043 C 
ATOM      7  C   UNL     1      33.007 -10.871 -23.753  0.00  0.00    +0.018 C 
ATOM      8  C   UNL     1      30.767  -6.654 -22.840  0.00  0.00    +0.015 C 
ATOM      9  C   UNL     1      33.905 -11.666 -24.471  0.00  0.00    +0.036 C 
ATOM     10  C   UNL     1      35.099  -9.693 -25.135  0.00  0.00    +0.008 C 
ATOM     11  C   UNL     1      32.675  -5.127 -24.144  0.00  0.00    +0.008 C 
ATOM     12  C   UNL     1      34.954 -11.077 -25.160  0.00  0.00    +0.003 C 
ATOM     13  C   UNL     1      30.527  -5.301 -23.091  0.00  0.00    +0.001 C 
ATOM     14  C   UNL     1      31.482  -4.535 -23.741  0.00  0.00    +0.001 C 
ENDROOT
BRANCH   9  16
ATOM     15  O   UNL     1      33.354 -13.699 -25.519  0.00  0.00    -0.291 OA
ATOM     16  C   UNL     1      33.745 -13.112 -24.489  0.00  0.00    +0.173 C 
BRANCH  16  17
ATOM     17  C   UNL     1      34.061 -13.935 -23.228  0.00  0.00    +0.069 C 
ATOM     18  C   UNL     1      32.822 -14.407 -22.484  0.00  0.00    +0.009 C 
ENDBRANCH  16  17
ENDBRANCH   9  16
BRANCH   2  19
ATOM     19  C   UNL     1      31.393  -9.316 -21.952  0.00  0.00    +0.075 C 
BRANCH  19  20
ATOM     20  C   UNL     1      32.200  -9.512 -20.666  0.00  0.00    -0.038 C 
ATOM     21  C   UNL     1      31.971  -8.381 -19.662  0.00  0.00    -0.021 C 
BRANCH  20  22
ATOM     22  N   UNL     1      31.807 -10.778 -20.044  0.00  0.00    +0.387 N 
ATOM     23  C   UNL     1      30.778 -11.440 -20.844  0.00  0.00    -0.101 C 
ATOM     24  C   UNL     1      31.327 -10.548 -18.681  0.00  0.00    -0.101 C 
ATOM     25  H   UNL     1      32.624 -11.386 -20.000  0.00  0.00    -0.080 HD
ENDBRANCH  20  22
ENDBRANCH  19  20
ENDBRANCH   2  19
TORSDOF 5
ENDMDL
MODEL 7
REMARK VINA RESULT:      -7.9      2.343      5.751
REMARK  Name = 4940
REMARK  5 active torsions:
REMARK  status: ('A' for Active; 'I' for Inactive)
REMARK    1  A    between atoms: N_2  and  C_19
REMARK    2  A    between atoms: C_9  and  C_16
REMARK    3  A    between atoms: C_16  and  C_17
REMARK    4  A    between atoms: C_19  and  C_20
REMARK    5  A    between atoms: C_20  and  N_22
REMARK                            x       y       z     vdW  Elec       q    Type
REMARK                         _______ _______ _______ _____ _____    ______ ____
ROOT
ATOM      1  S   UNL     1      37.061 -21.448 -17.210  0.00  0.00    -0.084 S 
ATOM      2  N   UNL     1      34.663 -23.347 -16.656  0.00  0.00    -0.288 N 
ATOM      3  C   UNL     1      35.870 -23.668 -15.983  0.00  0.00    +0.058 C 
ATOM      4  C   UNL     1      34.571 -22.570 -17.837  0.00  0.00    +0.058 C 
ATOM      5  C   UNL     1      37.033 -22.896 -16.171  0.00  0.00    +0.043 C 
ATOM      6  C   UNL     1      35.606 -21.688 -18.208  0.00  0.00    +0.043 C 
ATOM      7  C   UNL     1      35.975 -24.786 -15.128  0.00  0.00    +0.018 C 
ATOM      8  C   UNL     1      33.466 -22.665 -18.711  0.00  0.00    +0.015 C 
ATOM      9  C   UNL     1      37.168 -25.110 -14.475  0.00  0.00    +0.036 C 
ATOM     10  C   UNL     1      38.229 -23.222 -15.508  0.00  0.00    +0.008 C 
ATOM     11  C   UNL     1      35.512 -20.924 -19.386  0.00  0.00    +0.008 C 
ATOM     12  C   UNL     1      38.295 -24.325 -14.663  0.00  0.00    +0.003 C 
ATOM     13  C   UNL     1      33.381 -21.907 -19.882  0.00  0.00    +0.001 C 
ATOM     14  C   UNL     1      34.403 -21.034 -20.219  0.00  0.00    +0.001 C 
ENDROOT
BRANCH   9  16
ATOM     15  O   UNL     1      37.275 -27.422 -14.056  0.00  0.00    -0.291 OA
ATOM     16  C   UNL     1      37.225 -26.265 -13.592  0.00  0.00    +0.173 C 
BRANCH  16  17
ATOM     17  C   UNL     1      37.226 -26.065 -12.066  0.00  0.00    +0.069 C 
ATOM     18  C   UNL     1      36.310 -24.946 -11.600  0.00  0.00    +0.009 C 
ENDBRANCH  16  17
ENDBRANCH   9  16
BRANCH   2  19
ATOM     19  C   UNL     1      33.420 -23.924 -16.127  0.00  0.00    +0.075 C 
BRANCH  19  20
ATOM     20  C   UNL     1      32.630 -22.874 -15.342  0.00  0.00    -0.038 C 
ATOM     21  C   UNL     1      31.189 -22.746 -15.836  0.00  0.00    -0.021 C 
BRANCH  20  22
ATOM     22  N   UNL     1      32.610 -23.250 -13.928  0.00  0.00    +0.387 N 
ATOM     23  C   UNL     1      32.870 -24.681 -13.778  0.00  0.00    -0.101 C 
ATOM     24  C   UNL     1      31.324 -22.898 -13.325  0.00  0.00    -0.101 C 
ATOM     25  H   UNL     1      33.344 -22.736 -13.443  0.00  0.00    -0.080 HD
ENDBRANCH  20  22
ENDBRANCH  19  20
ENDBRANCH   2  19
TORSDOF 5
ENDMDL
MODEL 8
REMARK VINA RESULT:      -7.8     10.732     14.515
REMARK  Name = 4940
REMARK  5 active torsions:
REMARK  status: ('A' for Active; 'I' for Inactive)
REMARK    1  A    between atoms: N_2  and  C_19
REMARK    2  A    between atoms: C_9  and  C_16
REMARK    3  A    between atoms: C_16  and  C_17
REMARK    4  A    between atoms: C_19  and  C_20
REMARK    5  A    between atoms: C_20  and  N_22
REMARK                            x       y       z     vdW  Elec       q    Type
REMARK                         _______ _______ _______ _____ _____    ______ ____
ROOT
ATOM      1  S   UNL     1      31.246 -11.498 -20.176  0.00  0.00    -0.084 S 
ATOM      2  N   UNL     1      32.667 -10.789 -22.848  0.00  0.00    -0.288 N 
ATOM      3  C   UNL     1      32.677 -12.161 -22.492  0.00  0.00    +0.058 C 
ATOM      4  C   UNL     1      32.490  -9.713 -21.941  0.00  0.00    +0.058 C 
ATOM      5  C   UNL     1      32.086 -12.605 -21.292  0.00  0.00    +0.043 C 
ATOM      6  C   UNL     1      31.879  -9.914 -20.687  0.00  0.00    +0.043 C 
ATOM      7  C   UNL     1      33.304 -13.138 -23.296  0.00  0.00    +0.018 C 
ATOM      8  C   UNL     1      32.943  -8.408 -22.232  0.00  0.00    +0.015 C 
ATOM      9  C   UNL     1      33.326 -14.489 -22.939  0.00  0.00    +0.036 C 
ATOM     10  C   UNL     1      32.104 -13.966 -20.940  0.00  0.00    +0.008 C 
ATOM     11  C   UNL     1      31.712  -8.845 -19.788  0.00  0.00    +0.008 C 
ATOM     12  C   UNL     1      32.722 -14.904 -21.761  0.00  0.00    +0.003 C 
ATOM     13  C   UNL     1      32.779  -7.351 -21.333  0.00  0.00    +0.001 C 
ATOM     14  C   UNL     1      32.161  -7.568 -20.111  0.00  0.00    +0.001 C 
ENDROOT
BRANCH   9  16
ATOM     15  O   UNL     1      33.611 -15.601 -24.991  0.00  0.00    -0.291 OA
ATOM     16  C   UNL     1      33.973 -15.462 -23.805  0.00  0.00    +0.173 C 
BRANCH  16  17
ATOM     17  C   UNL     1      35.118 -16.334 -23.260  0.00  0.00    +0.069 C 
ATOM     18  C   UNL     1      34.899 -17.824 -23.470  0.00  0.00    +0.009 C 
ENDBRANCH  16  17
ENDBRANCH   9  16
BRANCH   2  19
ATOM     19  C   UNL     1      32.931 -10.452 -24.253  0.00  0.00    +0.075 C 
BRANCH  19  20
ATOM     20  C   UNL     1      34.098 -11.282 -24.795  0.00  0.00    -0.038 C 
ATOM     21  C   UNL     1      33.775 -11.921 -26.146  0.00  0.00    -0.021 C 
BRANCH  20  22
ATOM     22  N   UNL     1      35.267 -10.415 -24.954  0.00  0.00    +0.387 N 
ATOM     23  C   UNL     1      34.957  -9.057 -24.511  0.00  0.00    -0.101 C 
ATOM     24  C   UNL     1      35.712 -10.410 -26.347  0.00  0.00    -0.101 C 
ATOM     25  H   UNL     1      36.023 -10.779 -24.375  0.00  0.00    -0.080 HD
ENDBRANCH  20  22
ENDBRANCH  19  20
ENDBRANCH   2  19
TORSDOF 5
ENDMDL
MODEL 9
REMARK VINA RESULT:      -7.7      9.390     12.317
REMARK  Name = 4940
REMARK  5 active torsions:
REMARK  status: ('A' for Active; 'I' for Inactive)
REMARK    1  A    between atoms: N_2  and  C_19
REMARK    2  A    between atoms: C_9  and  C_16
REMARK    3  A    between atoms: C_16  and  C_17
REMARK    4  A    between atoms: C_19  and  C_20
REMARK    5  A    between atoms: C_20  and  N_22
REMARK                            x       y       z     vdW  Elec       q    Type
REMARK                         _______ _______ _______ _____ _____    ______ ____
ROOT
ATOM      1  S   UNL     1      34.366 -17.050 -20.975  0.00  0.00    -0.084 S 
ATOM      2  N   UNL     1      34.150 -15.423 -23.615  0.00  0.00    -0.288 N 
ATOM      3  C   UNL     1      33.555 -14.826 -22.475  0.00  0.00    +0.058 C 
ATOM      4  C   UNL     1      34.414 -16.808 -23.766  0.00  0.00    +0.058 C 
ATOM      5  C   UNL     1      33.566 -15.477 -21.225  0.00  0.00    +0.043 C 
ATOM      6  C   UNL     1      34.511 -17.655 -22.643  0.00  0.00    +0.043 C 
ATOM      7  C   UNL     1      32.897 -13.579 -22.541  0.00  0.00    +0.018 C 
ATOM      8  C   UNL     1      34.555 -17.408 -25.036  0.00  0.00    +0.015 C 
ATOM      9  C   UNL     1      32.298 -12.997 -21.420  0.00  0.00    +0.036 C 
ATOM     10  C   UNL     1      32.968 -14.885 -20.099  0.00  0.00    +0.008 C 
ATOM     11  C   UNL     1      34.765 -19.030 -22.800  0.00  0.00    +0.008 C 
ATOM     12  C   UNL     1      32.337 -13.649 -20.197  0.00  0.00    +0.003 C 
ATOM     13  C   UNL     1      34.802 -18.775 -25.185  0.00  0.00    +0.001 C 
ATOM     14  C   UNL     1      34.910 -19.587 -24.066  0.00  0.00    +0.001 C 
ENDROOT
BRANCH   9  16
ATOM     15  O   UNL     1      31.710 -11.043 -22.590  0.00  0.00    -0.291 OA
ATOM     16  C   UNL     1      31.642 -11.704 -21.533  0.00  0.00    +0.173 C 
BRANCH  16  17
ATOM     17  C   UNL     1      30.852 -11.136 -20.341  0.00  0.00    +0.069 C 
ATOM     18  C   UNL     1      31.629 -10.112 -19.530  0.00  0.00    +0.009 C 
ENDBRANCH  16  17
ENDBRANCH   9  16
BRANCH   2  19
ATOM     19  C   UNL     1      34.453 -14.549 -24.755  0.00  0.00    +0.075 C 
BRANCH  19  20
ATOM     20  C   UNL     1      33.317 -13.549 -24.984  0.00  0.00    -0.038 C 
ATOM     21  C   UNL     1      33.812 -12.102 -24.990  0.00  0.00    -0.021 C 
BRANCH  20  22
ATOM     22  N   UNL     1      32.683 -13.833 -26.273  0.00  0.00    +0.387 N 
ATOM     23  C   UNL     1      32.660 -15.273 -26.521  0.00  0.00    -0.101 C 
ATOM     24  C   UNL     1      33.386 -13.139 -27.351  0.00  0.00    -0.101 C 
ATOM     25  H   UNL     1      31.722 -13.495 -26.244  0.00  0.00    -0.080 HD
ENDBRANCH  20  22
ENDBRANCH  19  20
ENDBRANCH   2  19
TORSDOF 5
ENDMDL
