MODEL 1
REMARK VINA RESULT:      -9.4      0.000      0.000
REMARK  Name = 5870
REMARK  1 active torsions:
REMARK  status: ('A' for Active; 'I' for Inactive)
REMARK    1  A    between atoms: C_19  and  O_20
REMARK                            x       y       z     vdW  Elec       q    Type
REMARK                         _______ _______ _______ _____ _____    ______ ____
ROOT
ATOM      1  O   UNL     1      34.194 -17.881 -23.773  0.00  0.00    -0.296 OA
ATOM      2  C   UNL     1      35.687 -19.770 -21.269  0.00  0.00    +0.007 C 
ATOM      3  C   UNL     1      34.461 -18.884 -21.572  0.00  0.00    +0.052 C 
ATOM      4  C   UNL     1      35.590 -20.389 -19.876  0.00  0.00    +0.005 C 
ATOM      5  C   UNL     1      34.337 -21.317 -19.839  0.00  0.00    +0.022 C 
ATOM      6  C   UNL     1      33.232 -19.785 -21.618  0.00  0.00    +0.007 C 
ATOM      7  C   UNL     1      36.880 -18.896 -21.638  0.00  0.00    +0.008 C 
ATOM      8  C   UNL     1      33.059 -20.563 -20.299  0.00  0.00    +0.005 C 
ATOM      9  C   UNL     1      36.827 -21.208 -19.502  0.00  0.00    +0.005 C 
ATOM     10  C   UNL     1      34.933 -18.305 -22.894  0.00  0.00    +0.150 C 
ATOM     11  C   UNL     1      36.450 -18.286 -22.980  0.00  0.00    +0.064 C 
ATOM     12  C   UNL     1      34.238 -17.690 -20.626  0.00  0.00    +0.007 C 
ATOM     13  C   UNL     1      34.219 -22.036 -18.498  0.00  0.00    -0.026 C 
ATOM     14  C   UNL     1      36.716 -21.683 -18.056  0.00  0.00    +0.026 C 
ATOM     15  C   UNL     1      35.360 -22.237 -17.691  0.00  0.00    -0.023 C 
ATOM     16  C   UNL     1      32.998 -22.591 -18.074  0.00  0.00    -0.001 C 
ATOM     17  C   UNL     1      35.244 -22.932 -16.474  0.00  0.00    +0.032 C 
ATOM     18  C   UNL     1      32.898 -23.286 -16.867  0.00  0.00    +0.036 C 
ATOM     19  C   UNL     1      34.019 -23.453 -16.064  0.00  0.00    +0.133 C 
ENDROOT
BRANCH  19  20
ATOM     20  O   UNL     1      33.923 -24.127 -14.887  0.00  0.00    -0.506 OA
ATOM     21  H   UNL     1      34.682 -24.531 -14.515  0.00  0.00    +0.292 HD
ENDBRANCH  19  20
TORSDOF 1
ENDMDL
MODEL 2
REMARK VINA RESULT:      -9.2      3.032      7.730
REMARK  Name = 5870
REMARK  1 active torsions:
REMARK  status: ('A' for Active; 'I' for Inactive)
REMARK    1  A    between atoms: C_19  and  O_20
REMARK                            x       y       z     vdW  Elec       q    Type
REMARK                         _______ _______ _______ _____ _____    ______ ____
ROOT
ATOM      1  O   UNL     1      36.844 -26.426 -11.844  0.00  0.00    -0.296 OA
ATOM      2  C   UNL     1      37.218 -24.079 -14.377  0.00  0.00    +0.007 C 
ATOM      3  C   UNL     1      36.538 -25.422 -14.039  0.00  0.00    +0.052 C 
ATOM      4  C   UNL     1      36.795 -23.578 -15.756  0.00  0.00    +0.005 C 
ATOM      5  C   UNL     1      35.257 -23.315 -15.730  0.00  0.00    +0.022 C 
ATOM      6  C   UNL     1      35.037 -25.172 -13.932  0.00  0.00    +0.007 C 
ATOM      7  C   UNL     1      38.691 -24.318 -14.067  0.00  0.00    +0.008 C 
ATOM      8  C   UNL     1      34.477 -24.564 -15.232  0.00  0.00    +0.005 C 
ATOM      9  C   UNL     1      37.511 -22.290 -16.167  0.00  0.00    +0.005 C 
ATOM     10  C   UNL     1      37.274 -25.718 -12.744  0.00  0.00    +0.150 C 
ATOM     11  C   UNL     1      38.639 -25.050 -12.719  0.00  0.00    +0.064 C 
ATOM     12  C   UNL     1      36.839 -26.593 -14.993  0.00  0.00    +0.007 C 
ATOM     13  C   UNL     1      34.772 -22.734 -17.055  0.00  0.00    -0.026 C 
ATOM     14  C   UNL     1      37.138 -21.923 -17.600  0.00  0.00    +0.026 C 
ATOM     15  C   UNL     1      35.665 -22.043 -17.904  0.00  0.00    -0.023 C 
ATOM     16  C   UNL     1      33.415 -22.793 -17.423  0.00  0.00    -0.001 C 
ATOM     17  C   UNL     1      35.197 -21.482 -19.105  0.00  0.00    +0.032 C 
ATOM     18  C   UNL     1      32.962 -22.224 -18.616  0.00  0.00    +0.036 C 
ATOM     19  C   UNL     1      33.853 -21.572 -19.459  0.00  0.00    +0.133 C 
ENDROOT
BRANCH  19  20
ATOM     20  O   UNL     1      33.414 -21.020 -20.621  0.00  0.00    -0.506 OA
ATOM     21  H   UNL     1      34.024 -20.819 -21.304  0.00  0.00    +0.292 HD
ENDBRANCH  19  20
TORSDOF 1
ENDMDL
MODEL 3
REMARK VINA RESULT:      -8.8      4.852      7.921
REMARK  Name = 5870
REMARK  1 active torsions:
REMARK  status: ('A' for Active; 'I' for Inactive)
REMARK    1  A    between atoms: C_19  and  O_20
REMARK                            x       y       z     vdW  Elec       q    Type
REMARK                         _______ _______ _______ _____ _____    ______ ____
ROOT
ATOM      1  O   UNL     1      38.554 -25.570 -11.861  0.00  0.00    -0.296 OA
ATOM      2  C   UNL     1      36.841 -24.082 -14.492  0.00  0.00    +0.007 C 
ATOM      3  C   UNL     1      36.742 -25.212 -13.446  0.00  0.00    +0.052 C 
ATOM      4  C   UNL     1      35.549 -23.962 -15.298  0.00  0.00    +0.005 C 
ATOM      5  C   UNL     1      34.396 -23.577 -14.320  0.00  0.00    +0.022 C 
ATOM      6  C   UNL     1      35.672 -24.820 -12.433  0.00  0.00    +0.007 C 
ATOM      7  C   UNL     1      38.165 -24.343 -15.200  0.00  0.00    +0.008 C 
ATOM      8  C   UNL     1      34.317 -24.563 -13.122  0.00  0.00    +0.005 C 
ATOM      9  C   UNL     1      35.635 -22.908 -16.404  0.00  0.00    +0.005 C 
ATOM     10  C   UNL     1      38.181 -25.186 -12.962  0.00  0.00    +0.150 C 
ATOM     11  C   UNL     1      39.116 -24.653 -14.035  0.00  0.00    +0.064 C 
ATOM     12  C   UNL     1      36.490 -26.627 -13.999  0.00  0.00    +0.007 C 
ATOM     13  C   UNL     1      33.085 -23.360 -15.069  0.00  0.00    -0.026 C 
ATOM     14  C   UNL     1      34.363 -22.936 -17.246  0.00  0.00    +0.026 C 
ATOM     15  C   UNL     1      33.090 -23.016 -16.438  0.00  0.00    -0.023 C 
ATOM     16  C   UNL     1      31.848 -23.410 -14.400  0.00  0.00    -0.001 C 
ATOM     17  C   UNL     1      31.875 -22.783 -17.107  0.00  0.00    +0.032 C 
ATOM     18  C   UNL     1      30.649 -23.169 -15.075  0.00  0.00    +0.036 C 
ATOM     19  C   UNL     1      30.661 -22.860 -16.429  0.00  0.00    +0.133 C 
ENDROOT
BRANCH  19  20
ATOM     20  O   UNL     1      29.495 -22.628 -17.088  0.00  0.00    -0.506 OA
ATOM     21  H   UNL     1      28.695 -22.996 -16.767  0.00  0.00    +0.292 HD
ENDBRANCH  19  20
TORSDOF 1
ENDMDL
MODEL 4
REMARK VINA RESULT:      -8.6      5.372      7.376
REMARK  Name = 5870
REMARK  1 active torsions:
REMARK  status: ('A' for Active; 'I' for Inactive)
REMARK    1  A    between atoms: C_19  and  O_20
REMARK                            x       y       z     vdW  Elec       q    Type
REMARK                         _______ _______ _______ _____ _____    ______ ____
ROOT
ATOM      1  O   UNL     1      28.686 -24.326 -14.693  0.00  0.00    -0.296 OA
ATOM      2  C   UNL     1      31.862 -23.620 -15.911  0.00  0.00    +0.007 C 
ATOM      3  C   UNL     1      31.060 -23.799 -14.605  0.00  0.00    +0.052 C 
ATOM      4  C   UNL     1      33.348 -23.415 -15.623  0.00  0.00    +0.005 C 
ATOM      5  C   UNL     1      33.892 -24.700 -14.927  0.00  0.00    +0.022 C 
ATOM      6  C   UNL     1      31.523 -25.093 -13.946  0.00  0.00    +0.007 C 
ATOM      7  C   UNL     1      31.080 -22.568 -16.688  0.00  0.00    +0.008 C 
ATOM      8  C   UNL     1      33.041 -25.075 -13.682  0.00  0.00    +0.005 C 
ATOM      9  C   UNL     1      34.167 -23.150 -16.887  0.00  0.00    +0.005 C 
ATOM     10  C   UNL     1      29.665 -23.800 -15.205  0.00  0.00    +0.150 C 
ATOM     11  C   UNL     1      29.625 -23.030 -16.515  0.00  0.00    +0.064 C 
ATOM     12  C   UNL     1      31.110 -22.622 -13.613  0.00  0.00    +0.007 C 
ATOM     13  C   UNL     1      35.394 -24.601 -14.679  0.00  0.00    -0.026 C 
ATOM     14  C   UNL     1      35.610 -22.826 -16.510  0.00  0.00    +0.026 C 
ATOM     15  C   UNL     1      36.195 -23.744 -15.465  0.00  0.00    -0.023 C 
ATOM     16  C   UNL     1      36.032 -25.420 -13.728  0.00  0.00    -0.001 C 
ATOM     17  C   UNL     1      37.583 -23.689 -15.250  0.00  0.00    +0.032 C 
ATOM     18  C   UNL     1      37.413 -25.361 -13.530  0.00  0.00    +0.036 C 
ATOM     19  C   UNL     1      38.189 -24.493 -14.287  0.00  0.00    +0.133 C 
ENDROOT
BRANCH  19  20
ATOM     20  O   UNL     1      39.533 -24.433 -14.093  0.00  0.00    -0.506 OA
ATOM     21  H   UNL     1      39.885 -23.889 -13.415  0.00  0.00    +0.292 HD
ENDBRANCH  19  20
TORSDOF 1
ENDMDL
MODEL 5
REMARK VINA RESULT:      -8.5      1.513      6.919
REMARK  Name = 5870
REMARK  1 active torsions:
REMARK  status: ('A' for Active; 'I' for Inactive)
REMARK    1  A    between atoms: C_19  and  O_20
REMARK                            x       y       z     vdW  Elec       q    Type
REMARK                         _______ _______ _______ _____ _____    ______ ____
ROOT
ATOM      1  O   UNL     1      37.418 -24.606 -14.167  0.00  0.00    -0.296 OA
ATOM      2  C   UNL     1      35.227 -23.547 -16.645  0.00  0.00    +0.007 C 
ATOM      3  C   UNL     1      36.326 -23.049 -15.684  0.00  0.00    +0.052 C 
ATOM      4  C   UNL     1      34.768 -22.433 -17.584  0.00  0.00    +0.005 C 
ATOM      5  C   UNL     1      35.983 -22.006 -18.465  0.00  0.00    +0.022 C 
ATOM      6  C   UNL     1      37.553 -22.697 -16.519  0.00  0.00    +0.007 C 
ATOM      7  C   UNL     1      34.222 -24.244 -15.735  0.00  0.00    +0.008 C 
ATOM      8  C   UNL     1      37.216 -21.644 -17.592  0.00  0.00    +0.005 C 
ATOM      9  C   UNL     1      33.619 -22.862 -18.498  0.00  0.00    +0.005 C 
ATOM     10  C   UNL     1      36.427 -24.286 -14.810  0.00  0.00    +0.150 C 
ATOM     11  C   UNL     1      35.124 -25.068 -14.804  0.00  0.00    +0.064 C 
ATOM     12  C   UNL     1      35.936 -21.885 -14.754  0.00  0.00    +0.007 C 
ATOM     13  C   UNL     1      35.579 -20.948 -19.488  0.00  0.00    -0.026 C 
ATOM     14  C   UNL     1      33.129 -21.667 -19.311  0.00  0.00    +0.026 C 
ATOM     15  C   UNL     1      34.236 -20.831 -19.907  0.00  0.00    -0.023 C 
ATOM     16  C   UNL     1      36.541 -20.125 -20.102  0.00  0.00    -0.001 C 
ATOM     17  C   UNL     1      33.884 -19.876 -20.876  0.00  0.00    +0.032 C 
ATOM     18  C   UNL     1      36.179 -19.185 -21.070  0.00  0.00    +0.036 C 
ATOM     19  C   UNL     1      34.851 -19.057 -21.454  0.00  0.00    +0.133 C 
ENDROOT
BRANCH  19  20
ATOM     20  O   UNL     1      34.497 -18.140 -22.394  0.00  0.00    -0.506 OA
ATOM     21  H   UNL     1      33.601 -17.878 -22.479  0.00  0.00    +0.292 HD
ENDBRANCH  19  20
TORSDOF 1
ENDMDL
MODEL 6
REMARK VINA RESULT:      -8.3      5.161      7.332
REMARK  Name = 5870
REMARK  1 active torsions:
REMARK  status: ('A' for Active; 'I' for Inactive)
REMARK    1  A    between atoms: C_19  and  O_20
REMARK                            x       y       z     vdW  Elec       q    Type
REMARK                         _______ _______ _______ _____ _____    ______ ____
ROOT
ATOM      1  O   UNL     1      38.209 -24.068 -13.269  0.00  0.00    -0.296 OA
ATOM      2  C   UNL     1      35.548 -23.206 -15.329  0.00  0.00    +0.007 C 
ATOM      3  C   UNL     1      36.046 -24.298 -14.358  0.00  0.00    +0.052 C 
ATOM      4  C   UNL     1      34.124 -23.494 -15.800  0.00  0.00    +0.005 C 
ATOM      5  C   UNL     1      33.182 -23.462 -14.557  0.00  0.00    +0.022 C 
ATOM      6  C   UNL     1      35.186 -24.233 -13.101  0.00  0.00    +0.007 C 
ATOM      7  C   UNL     1      36.677 -23.065 -16.343  0.00  0.00    +0.008 C 
ATOM      8  C   UNL     1      33.692 -24.408 -13.435  0.00  0.00    +0.005 C 
ATOM      9  C   UNL     1      33.622 -22.480 -16.829  0.00  0.00    +0.005 C 
ATOM     10  C   UNL     1      37.485 -23.831 -14.227  0.00  0.00    +0.150 C 
ATOM     11  C   UNL     1      37.930 -23.056 -15.456  0.00  0.00    +0.064 C 
ATOM     12  C   UNL     1      36.099 -25.731 -14.921  0.00  0.00    +0.007 C 
ATOM     13  C   UNL     1      31.724 -23.663 -14.961  0.00  0.00    -0.026 C 
ATOM     14  C   UNL     1      32.251 -22.904 -17.349  0.00  0.00    +0.026 C 
ATOM     15  C   UNL     1      31.295 -23.353 -16.271  0.00  0.00    -0.023 C 
ATOM     16  C   UNL     1      30.758 -24.074 -14.025  0.00  0.00    -0.001 C 
ATOM     17  C   UNL     1      29.942 -23.509 -16.619  0.00  0.00    +0.032 C 
ATOM     18  C   UNL     1      29.416 -24.217 -14.383  0.00  0.00    +0.036 C 
ATOM     19  C   UNL     1      29.008 -23.939 -15.681  0.00  0.00    +0.133 C 
ENDROOT
BRANCH  19  20
ATOM     20  O   UNL     1      27.702 -24.081 -16.031  0.00  0.00    -0.506 OA
ATOM     21  H   UNL     1      27.477 -24.385 -16.889  0.00  0.00    +0.292 HD
ENDBRANCH  19  20
TORSDOF 1
ENDMDL
MODEL 7
REMARK VINA RESULT:      -8.3      8.309     11.379
REMARK  Name = 5870
REMARK  1 active torsions:
REMARK  status: ('A' for Active; 'I' for Inactive)
REMARK    1  A    between atoms: C_19  and  O_20
REMARK                            x       y       z     vdW  Elec       q    Type
REMARK                         _______ _______ _______ _____ _____    ______ ____
ROOT
ATOM      1  O   UNL     1      31.064  -5.866 -21.527  0.00  0.00    -0.296 OA
ATOM      2  C   UNL     1      32.416  -8.511 -23.329  0.00  0.00    +0.007 C 
ATOM      3  C   UNL     1      32.230  -7.969 -21.895  0.00  0.00    +0.052 C 
ATOM      4  C   UNL     1      33.064  -9.894 -23.316  0.00  0.00    +0.005 C 
ATOM      5  C   UNL     1      32.103 -10.877 -22.579  0.00  0.00    +0.022 C 
ATOM      6  C   UNL     1      31.233  -8.873 -21.180  0.00  0.00    +0.007 C 
ATOM      7  C   UNL     1      33.078  -7.361 -24.079  0.00  0.00    +0.008 C 
ATOM      8  C   UNL     1      31.709 -10.339 -21.176  0.00  0.00    +0.005 C 
ATOM      9  C   UNL     1      33.343 -10.432 -24.721  0.00  0.00    +0.005 C 
ATOM     10  C   UNL     1      31.752  -6.572 -22.251  0.00  0.00    +0.150 C 
ATOM     11  C   UNL     1      32.267  -6.143 -23.615  0.00  0.00    +0.064 C 
ATOM     12  C   UNL     1      33.516  -7.795 -21.065  0.00  0.00    +0.007 C 
ATOM     13  C   UNL     1      32.649 -12.302 -22.597  0.00  0.00    -0.026 C 
ATOM     14  C   UNL     1      34.105 -11.750 -24.628  0.00  0.00    +0.026 C 
ATOM     15  C   UNL     1      33.559 -12.708 -23.597  0.00  0.00    -0.023 C 
ATOM     16  C   UNL     1      32.196 -13.267 -21.679  0.00  0.00    -0.001 C 
ATOM     17  C   UNL     1      34.026 -14.034 -23.624  0.00  0.00    +0.032 C 
ATOM     18  C   UNL     1      32.662 -14.583 -21.721  0.00  0.00    +0.036 C 
ATOM     19  C   UNL     1      33.580 -14.966 -22.690  0.00  0.00    +0.133 C 
ENDROOT
BRANCH  19  20
ATOM     20  O   UNL     1      34.037 -16.246 -22.730  0.00  0.00    -0.506 OA
ATOM     21  H   UNL     1      34.237 -16.646 -23.554  0.00  0.00    +0.292 HD
ENDBRANCH  19  20
TORSDOF 1
ENDMDL
MODEL 8
REMARK VINA RESULT:      -8.3      1.900      3.972
REMARK  Name = 5870
REMARK  1 active torsions:
REMARK  status: ('A' for Active; 'I' for Inactive)
REMARK    1  A    between atoms: C_19  and  O_20
REMARK                            x       y       z     vdW  Elec       q    Type
REMARK                         _______ _______ _______ _____ _____    ______ ____
ROOT
ATOM      1  O   UNL     1      35.599 -19.312 -21.369  0.00  0.00    -0.296 OA
ATOM      2  C   UNL     1      34.292 -21.372 -18.896  0.00  0.00    +0.007 C 
ATOM      3  C   UNL     1      35.520 -21.179 -19.811  0.00  0.00    +0.052 C 
ATOM      4  C   UNL     1      34.507 -22.528 -17.921  0.00  0.00    +0.005 C 
ATOM      5  C   UNL     1      35.712 -22.170 -16.997  0.00  0.00    +0.022 C 
ATOM      6  C   UNL     1      36.693 -20.753 -18.936  0.00  0.00    +0.007 C 
ATOM      7  C   UNL     1      33.109 -21.390 -19.857  0.00  0.00    +0.008 C 
ATOM      8  C   UNL     1      36.968 -21.786 -17.827  0.00  0.00    +0.005 C 
ATOM      9  C   UNL     1      33.280 -22.807 -17.051  0.00  0.00    +0.005 C 
ATOM     10  C   UNL     1      34.938 -20.123 -20.735  0.00  0.00    +0.150 C 
ATOM     11  C   UNL     1      33.423 -20.220 -20.802  0.00  0.00    +0.064 C 
ATOM     12  C   UNL     1      35.897 -22.379 -20.700  0.00  0.00    +0.007 C 
ATOM     13  C   UNL     1      35.937 -23.247 -15.940  0.00  0.00    -0.026 C 
ATOM     14  C   UNL     1      33.521 -24.050 -16.199  0.00  0.00    +0.026 C 
ATOM     15  C   UNL     1      34.880 -24.096 -15.545  0.00  0.00    -0.023 C 
ATOM     16  C   UNL     1      37.169 -23.364 -15.270  0.00  0.00    -0.001 C 
ATOM     17  C   UNL     1      35.092 -25.060 -14.544  0.00  0.00    +0.032 C 
ATOM     18  C   UNL     1      37.364 -24.321 -14.271  0.00  0.00    +0.036 C 
ATOM     19  C   UNL     1      36.327 -25.172 -13.911  0.00  0.00    +0.133 C 
ENDROOT
BRANCH  19  20
ATOM     20  O   UNL     1      36.516 -26.106 -12.941  0.00  0.00    -0.506 OA
ATOM     21  H   UNL     1      36.781 -25.842 -12.082  0.00  0.00    +0.292 HD
ENDBRANCH  19  20
TORSDOF 1
ENDMDL
MODEL 9
REMARK VINA RESULT:      -8.2      7.067     11.214
REMARK  Name = 5870
REMARK  1 active torsions:
REMARK  status: ('A' for Active; 'I' for Inactive)
REMARK    1  A    between atoms: C_19  and  O_20
REMARK                            x       y       z     vdW  Elec       q    Type
REMARK                         _______ _______ _______ _____ _____    ______ ____
ROOT
ATOM      1  O   UNL     1      33.642 -16.735 -22.916  0.00  0.00    -0.296 OA
ATOM      2  C   UNL     1      32.352 -13.863 -21.447  0.00  0.00    +0.007 C 
ATOM      3  C   UNL     1      33.552 -14.394 -22.261  0.00  0.00    +0.052 C 
ATOM      4  C   UNL     1      32.443 -12.351 -21.252  0.00  0.00    +0.005 C 
ATOM      5  C   UNL     1      32.377 -11.673 -22.655  0.00  0.00    +0.022 C 
ATOM      6  C   UNL     1      33.464 -13.802 -23.663  0.00  0.00    +0.007 C 
ATOM      7  C   UNL     1      32.282 -14.789 -20.238  0.00  0.00    +0.008 C 
ATOM      8  C   UNL     1      33.443 -12.262 -23.620  0.00  0.00    +0.005 C 
ATOM      9  C   UNL     1      31.317 -11.796 -20.378  0.00  0.00    +0.005 C 
ATOM     10  C   UNL     1      33.265 -15.879 -22.127  0.00  0.00    +0.150 C 
ATOM     11  C   UNL     1      32.474 -16.179 -20.865  0.00  0.00    +0.064 C 
ATOM     12  C   UNL     1      34.944 -14.159 -21.646  0.00  0.00    +0.007 C 
ATOM     13  C   UNL     1      32.382 -10.152 -22.535  0.00  0.00    -0.026 C 
ATOM     14  C   UNL     1      31.545 -10.310 -20.121  0.00  0.00    +0.026 C 
ATOM     15  C   UNL     1      31.945  -9.526 -21.346  0.00  0.00    -0.023 C 
ATOM     16  C   UNL     1      32.734  -9.336 -23.625  0.00  0.00    -0.001 C 
ATOM     17  C   UNL     1      31.920  -8.122 -21.262  0.00  0.00    +0.032 C 
ATOM     18  C   UNL     1      32.697  -7.943 -23.530  0.00  0.00    +0.036 C 
ATOM     19  C   UNL     1      32.295  -7.335 -22.348  0.00  0.00    +0.133 C 
ENDROOT
BRANCH  19  20
ATOM     20  O   UNL     1      32.262  -5.979 -22.253  0.00  0.00    -0.506 OA
ATOM     21  H   UNL     1      31.562  -5.499 -22.650  0.00  0.00    +0.292 HD
ENDBRANCH  19  20
TORSDOF 1
ENDMDL
