MODEL 1
REMARK VINA RESULT:      -8.5      0.000      0.000
REMARK  Name = 5280723
REMARK  16 active torsions:
REMARK  status: ('A' for Active; 'I' for Inactive)
REMARK    1  A    between atoms: C_2  and  C_19
REMARK    2  A    between atoms: C_3  and  C_9
REMARK    3  A    between atoms: C_4  and  O_7
REMARK    4  A    between atoms: C_10  and  C_11
REMARK    5  A    between atoms: C_11  and  O_12
REMARK    6  A    between atoms: C_11  and  C_14
REMARK    7  A    between atoms: C_14  and  C_15
REMARK    8  A    between atoms: C_15  and  C_16
REMARK    9  A    between atoms: C_16  and  C_17
REMARK   10  A    between atoms: C_19  and  C_20
REMARK   11  A    between atoms: C_20  and  C_21
REMARK   12  A    between atoms: C_21  and  C_22
REMARK   13  A    between atoms: C_22  and  C_23
REMARK   14  A    between atoms: C_23  and  C_24
REMARK   15  A    between atoms: C_24  and  C_26
REMARK   16  A    between atoms: C_26  and  O_27
REMARK                            x       y       z     vdW  Elec       q    Type
REMARK                         _______ _______ _______ _____ _____    ______ ____
ROOT
ATOM      1  O   UNL     1      31.302 -24.659 -12.978  0.00  0.00    -0.296 OA
ATOM      2  C   UNL     1      32.571 -24.144 -14.982  0.00  0.00    +0.064 C 
ATOM      3  C   UNL     1      32.125 -23.153 -16.067  0.00  0.00    +0.056 C 
ATOM      4  C   UNL     1      30.630 -23.453 -16.246  0.00  0.00    +0.122 C 
ATOM      5  C   UNL     1      30.113 -23.676 -14.827  0.00  0.00    +0.094 C 
ATOM      6  C   UNL     1      31.329 -24.212 -14.117  0.00  0.00    +0.153 C 
ENDROOT
BRANCH   4   7
ATOM      7  O   UNL     1      29.979 -22.344 -16.846  0.00  0.00    -0.384 OA
ATOM      8  H   UNL     1      29.651 -22.598 -17.723  0.00  0.00    +0.210 HD
ENDBRANCH   4   7
BRANCH   3   9
ATOM      9  C   UNL     1      32.904 -23.300 -17.336  0.00  0.00    -0.026 C 
ATOM     10  C   UNL     1      33.883 -22.463 -17.711  0.00  0.00    -0.002 C 
BRANCH  10  11
ATOM     11  C   UNL     1      34.662 -22.615 -18.987  0.00  0.00    +0.132 C 
BRANCH  11  12
ATOM     12  O   UNL     1      34.044 -23.638 -19.772  0.00  0.00    -0.380 OA
ATOM     13  H   UNL     1      33.793 -24.378 -19.198  0.00  0.00    +0.211 HD
ENDBRANCH  11  12
BRANCH  11  14
ATOM     14  C   UNL     1      34.680 -21.335 -19.832  0.00  0.00    +0.034 C 
BRANCH  14  15
ATOM     15  C   UNL     1      33.289 -20.727 -20.036  0.00  0.00    +0.003 C 
BRANCH  15  16
ATOM     16  C   UNL     1      33.285 -19.524 -20.986  0.00  0.00    +0.000 C 
BRANCH  16  17
ATOM     17  C   UNL     1      34.678 -19.132 -21.478  0.00  0.00    +0.000 C 
ATOM     18  C   UNL     1      34.763 -19.181 -22.996  0.00  0.00    +0.000 C 
ENDBRANCH  16  17
ENDBRANCH  15  16
ENDBRANCH  14  15
ENDBRANCH  11  14
ENDBRANCH  10  11
ENDBRANCH   3   9
BRANCH   2  19
ATOM     19  C   UNL     1      33.794 -23.680 -14.208  0.00  0.00    +0.008 C 
BRANCH  19  20
ATOM     20  C   UNL     1      35.065 -24.375 -14.698  0.00  0.00    +0.000 C 
BRANCH  20  21
ATOM     21  C   UNL     1      36.148 -23.358 -15.061  0.00  0.00    +0.000 C 
BRANCH  21  22
ATOM     22  C   UNL     1      37.569 -23.928 -14.994  0.00  0.00    +0.001 C 
BRANCH  22  23
ATOM     23  C   UNL     1      37.806 -24.996 -13.923  0.00  0.00    +0.012 C 
BRANCH  23  24
ATOM     24  C   UNL     1      38.775 -26.093 -14.362  0.00  0.00    +0.109 C 
BRANCH  24  26
ATOM     25  O   UNL     1      40.842 -24.815 -14.205  0.00  0.00    -0.250 OA
ATOM     26  C   UNL     1      40.086 -25.523 -14.855  0.00  0.00    +0.314 C 
BRANCH  26  27
ATOM     27  O   UNL     1      40.340 -25.899 -16.135  0.00  0.00    -0.480 OA
ATOM     28  H   UNL     1      39.655 -26.262 -16.662  0.00  0.00    +0.295 HD
ENDBRANCH  26  27
ENDBRANCH  24  26
ENDBRANCH  23  24
ENDBRANCH  22  23
ENDBRANCH  21  22
ENDBRANCH  20  21
ENDBRANCH  19  20
ENDBRANCH   2  19
TORSDOF 16
ENDMDL
MODEL 2
REMARK VINA RESULT:      -8.4      1.997      6.520
REMARK  Name = 5280723
REMARK  16 active torsions:
REMARK  status: ('A' for Active; 'I' for Inactive)
REMARK    1  A    between atoms: C_2  and  C_19
REMARK    2  A    between atoms: C_3  and  C_9
REMARK    3  A    between atoms: C_4  and  O_7
REMARK    4  A    between atoms: C_10  and  C_11
REMARK    5  A    between atoms: C_11  and  O_12
REMARK    6  A    between atoms: C_11  and  C_14
REMARK    7  A    between atoms: C_14  and  C_15
REMARK    8  A    between atoms: C_15  and  C_16
REMARK    9  A    between atoms: C_16  and  C_17
REMARK   10  A    between atoms: C_19  and  C_20
REMARK   11  A    between atoms: C_20  and  C_21
REMARK   12  A    between atoms: C_21  and  C_22
REMARK   13  A    between atoms: C_22  and  C_23
REMARK   14  A    between atoms: C_23  and  C_24
REMARK   15  A    between atoms: C_24  and  C_26
REMARK   16  A    between atoms: C_26  and  O_27
REMARK                            x       y       z     vdW  Elec       q    Type
REMARK                         _______ _______ _______ _____ _____    ______ ____
ROOT
ATOM      1  O   UNL     1      34.908 -24.063 -11.784  0.00  0.00    -0.296 OA
ATOM      2  C   UNL     1      34.323 -23.498 -14.072  0.00  0.00    +0.064 C 
ATOM      3  C   UNL     1      35.148 -23.891 -15.306  0.00  0.00    +0.056 C 
ATOM      4  C   UNL     1      36.599 -23.637 -14.874  0.00  0.00    +0.122 C 
ATOM      5  C   UNL     1      36.662 -24.138 -13.433  0.00  0.00    +0.094 C 
ATOM      6  C   UNL     1      35.251 -23.921 -12.951  0.00  0.00    +0.153 C 
ENDROOT
BRANCH   4   7
ATOM      7  O   UNL     1      37.489 -24.374 -15.697  0.00  0.00    -0.384 OA
ATOM      8  H   UNL     1      37.900 -23.778 -16.343  0.00  0.00    +0.210 HD
ENDBRANCH   4   7
BRANCH   3   9
ATOM      9  C   UNL     1      34.761 -23.118 -16.527  0.00  0.00    -0.026 C 
ATOM     10  C   UNL     1      33.866 -23.547 -17.429  0.00  0.00    -0.002 C 
BRANCH  10  11
ATOM     11  C   UNL     1      33.481 -22.767 -18.654  0.00  0.00    +0.132 C 
BRANCH  11  12
ATOM     12  O   UNL     1      32.287 -22.036 -18.364  0.00  0.00    -0.380 OA
ATOM     13  H   UNL     1      32.049 -21.489 -19.128  0.00  0.00    +0.211 HD
ENDBRANCH  11  12
BRANCH  11  14
ATOM     14  C   UNL     1      34.550 -21.752 -19.078  0.00  0.00    +0.034 C 
BRANCH  14  15
ATOM     15  C   UNL     1      34.043 -20.734 -20.104  0.00  0.00    +0.003 C 
BRANCH  15  16
ATOM     16  C   UNL     1      35.149 -19.828 -20.657  0.00  0.00    +0.000 C 
BRANCH  16  17
ATOM     17  C   UNL     1      34.634 -18.759 -21.622  0.00  0.00    +0.000 C 
ATOM     18  C   UNL     1      35.077 -17.368 -21.196  0.00  0.00    +0.000 C 
ENDBRANCH  16  17
ENDBRANCH  15  16
ENDBRANCH  14  15
ENDBRANCH  11  14
ENDBRANCH  10  11
ENDBRANCH   3   9
BRANCH   2  19
ATOM     19  C   UNL     1      32.973 -24.192 -14.003  0.00  0.00    +0.008 C 
BRANCH  19  20
ATOM     20  C   UNL     1      31.841 -23.193 -13.757  0.00  0.00    +0.000 C 
BRANCH  20  21
ATOM     21  C   UNL     1      31.104 -22.860 -15.057  0.00  0.00    +0.000 C 
BRANCH  21  22
ATOM     22  C   UNL     1      30.537 -24.092 -15.769  0.00  0.00    +0.001 C 
BRANCH  22  23
ATOM     23  C   UNL     1      29.009 -24.183 -15.824  0.00  0.00    +0.012 C 
BRANCH  23  24
ATOM     24  C   UNL     1      28.315 -22.824 -15.752  0.00  0.00    +0.109 C 
BRANCH  24  26
ATOM     25  O   UNL     1      27.084 -21.415 -17.310  0.00  0.00    -0.250 OA
ATOM     26  C   UNL     1      27.583 -22.497 -17.034  0.00  0.00    +0.314 C 
BRANCH  26  27
ATOM     27  O   UNL     1      27.546 -23.566 -17.871  0.00  0.00    -0.480 OA
ATOM     28  H   UNL     1      26.858 -23.643 -18.503  0.00  0.00    +0.295 HD
ENDBRANCH  26  27
ENDBRANCH  24  26
ENDBRANCH  23  24
ENDBRANCH  22  23
ENDBRANCH  21  22
ENDBRANCH  20  21
ENDBRANCH  19  20
ENDBRANCH   2  19
TORSDOF 16
ENDMDL
MODEL 3
REMARK VINA RESULT:      -8.3      2.570      6.797
REMARK  Name = 5280723
REMARK  16 active torsions:
REMARK  status: ('A' for Active; 'I' for Inactive)
REMARK    1  A    between atoms: C_2  and  C_19
REMARK    2  A    between atoms: C_3  and  C_9
REMARK    3  A    between atoms: C_4  and  O_7
REMARK    4  A    between atoms: C_10  and  C_11
REMARK    5  A    between atoms: C_11  and  O_12
REMARK    6  A    between atoms: C_11  and  C_14
REMARK    7  A    between atoms: C_14  and  C_15
REMARK    8  A    between atoms: C_15  and  C_16
REMARK    9  A    between atoms: C_16  and  C_17
REMARK   10  A    between atoms: C_19  and  C_20
REMARK   11  A    between atoms: C_20  and  C_21
REMARK   12  A    between atoms: C_21  and  C_22
REMARK   13  A    between atoms: C_22  and  C_23
REMARK   14  A    between atoms: C_23  and  C_24
REMARK   15  A    between atoms: C_24  and  C_26
REMARK   16  A    between atoms: C_26  and  O_27
REMARK                            x       y       z     vdW  Elec       q    Type
REMARK                         _______ _______ _______ _____ _____    ______ ____
ROOT
ATOM      1  O   UNL     1      31.683 -22.829 -17.083  0.00  0.00    -0.296 OA
ATOM      2  C   UNL     1      33.143 -23.121 -15.166  0.00  0.00    +0.064 C 
ATOM      3  C   UNL     1      32.923 -24.153 -14.050  0.00  0.00    +0.056 C 
ATOM      4  C   UNL     1      31.415 -24.079 -13.774  0.00  0.00    +0.122 C 
ATOM      5  C   UNL     1      30.779 -23.955 -15.156  0.00  0.00    +0.094 C 
ATOM      6  C   UNL     1      31.851 -23.251 -15.947  0.00  0.00    +0.153 C 
ENDROOT
BRANCH   4   7
ATOM      7  O   UNL     1      30.979 -25.265 -13.128  0.00  0.00    -0.384 OA
ATOM      8  H   UNL     1      30.011 -25.313 -13.160  0.00  0.00    +0.210 HD
ENDBRANCH   4   7
BRANCH   3   9
ATOM      9  C   UNL     1      33.752 -23.874 -12.837  0.00  0.00    -0.026 C 
ATOM     10  C   UNL     1      34.949 -24.434 -12.606  0.00  0.00    -0.002 C 
BRANCH  10  11
ATOM     11  C   UNL     1      35.778 -24.150 -11.385  0.00  0.00    +0.132 C 
BRANCH  11  12
ATOM     12  O   UNL     1      35.407 -25.082 -10.365  0.00  0.00    -0.380 OA
ATOM     13  H   UNL     1      34.626 -25.580 -10.651  0.00  0.00    +0.211 HD
ENDBRANCH  11  12
BRANCH  11  14
ATOM     14  C   UNL     1      37.283 -24.315 -11.633  0.00  0.00    +0.034 C 
BRANCH  14  15
ATOM     15  C   UNL     1      37.629 -25.580 -12.424  0.00  0.00    +0.003 C 
BRANCH  15  16
ATOM     16  C   UNL     1      38.817 -25.396 -13.375  0.00  0.00    +0.000 C 
BRANCH  16  17
ATOM     17  C   UNL     1      38.525 -25.846 -14.807  0.00  0.00    +0.000 C 
ATOM     18  C   UNL     1      37.045 -26.135 -15.007  0.00  0.00    +0.000 C 
ENDBRANCH  16  17
ENDBRANCH  15  16
ENDBRANCH  14  15
ENDBRANCH  11  14
ENDBRANCH  10  11
ENDBRANCH   3   9
BRANCH   2  19
ATOM     19  C   UNL     1      34.369 -23.406 -16.018  0.00  0.00    +0.008 C 
BRANCH  19  20
ATOM     20  C   UNL     1      35.550 -22.522 -15.615  0.00  0.00    +0.000 C 
BRANCH  20  21
ATOM     21  C   UNL     1      36.697 -22.636 -16.622  0.00  0.00    +0.000 C 
BRANCH  21  22
ATOM     22  C   UNL     1      36.771 -21.458 -17.598  0.00  0.00    +0.001 C 
BRANCH  22  23
ATOM     23  C   UNL     1      36.394 -21.772 -19.048  0.00  0.00    +0.012 C 
BRANCH  23  24
ATOM     24  C   UNL     1      35.032 -21.213 -19.457  0.00  0.00    +0.109 C 
BRANCH  24  26
ATOM     25  O   UNL     1      34.181 -23.495 -19.500  0.00  0.00    -0.250 OA
ATOM     26  C   UNL     1      33.970 -22.290 -19.497  0.00  0.00    +0.314 C 
BRANCH  26  27
ATOM     27  O   UNL     1      32.722 -21.755 -19.525  0.00  0.00    -0.480 OA
ATOM     28  H   UNL     1      32.540 -20.964 -19.057  0.00  0.00    +0.295 HD
ENDBRANCH  26  27
ENDBRANCH  24  26
ENDBRANCH  23  24
ENDBRANCH  22  23
ENDBRANCH  21  22
ENDBRANCH  20  21
ENDBRANCH  19  20
ENDBRANCH   2  19
TORSDOF 16
ENDMDL
MODEL 4
REMARK VINA RESULT:      -8.3      2.294      7.155
REMARK  Name = 5280723
REMARK  16 active torsions:
REMARK  status: ('A' for Active; 'I' for Inactive)
REMARK    1  A    between atoms: C_2  and  C_19
REMARK    2  A    between atoms: C_3  and  C_9
REMARK    3  A    between atoms: C_4  and  O_7
REMARK    4  A    between atoms: C_10  and  C_11
REMARK    5  A    between atoms: C_11  and  O_12
REMARK    6  A    between atoms: C_11  and  C_14
REMARK    7  A    between atoms: C_14  and  C_15
REMARK    8  A    between atoms: C_15  and  C_16
REMARK    9  A    between atoms: C_16  and  C_17
REMARK   10  A    between atoms: C_19  and  C_20
REMARK   11  A    between atoms: C_20  and  C_21
REMARK   12  A    between atoms: C_21  and  C_22
REMARK   13  A    between atoms: C_22  and  C_23
REMARK   14  A    between atoms: C_23  and  C_24
REMARK   15  A    between atoms: C_24  and  C_26
REMARK   16  A    between atoms: C_26  and  O_27
REMARK                            x       y       z     vdW  Elec       q    Type
REMARK                         _______ _______ _______ _____ _____    ______ ____
ROOT
ATOM      1  O   UNL     1      39.845 -24.552 -15.054  0.00  0.00    -0.296 OA
ATOM      2  C   UNL     1      37.427 -24.337 -15.056  0.00  0.00    +0.064 C 
ATOM      3  C   UNL     1      36.520 -24.667 -13.862  0.00  0.00    +0.056 C 
ATOM      4  C   UNL     1      37.104 -25.975 -13.309  0.00  0.00    +0.122 C 
ATOM      5  C   UNL     1      38.616 -25.782 -13.388  0.00  0.00    +0.094 C 
ATOM      6  C   UNL     1      38.765 -24.848 -14.561  0.00  0.00    +0.153 C 
ENDROOT
BRANCH   4   7
ATOM      7  O   UNL     1      36.694 -26.161 -11.963  0.00  0.00    -0.384 OA
ATOM      8  H   UNL     1      35.774 -25.872 -11.862  0.00  0.00    +0.210 HD
ENDBRANCH   4   7
BRANCH   3   9
ATOM      9  C   UNL     1      35.081 -24.790 -14.249  0.00  0.00    -0.026 C 
ATOM     10  C   UNL     1      34.076 -24.204 -13.581  0.00  0.00    -0.002 C 
BRANCH  10  11
ATOM     11  C   UNL     1      32.630 -24.331 -13.974  0.00  0.00    +0.132 C 
BRANCH  11  12
ATOM     12  O   UNL     1      32.031 -25.343 -13.160  0.00  0.00    -0.380 OA
ATOM     13  H   UNL     1      32.654 -26.078 -13.047  0.00  0.00    +0.211 HD
ENDBRANCH  11  12
BRANCH  11  14
ATOM     14  C   UNL     1      31.836 -23.037 -13.757  0.00  0.00    +0.034 C 
BRANCH  14  15
ATOM     15  C   UNL     1      30.770 -22.796 -14.829  0.00  0.00    +0.003 C 
BRANCH  15  16
ATOM     16  C   UNL     1      31.084 -23.482 -16.163  0.00  0.00    +0.000 C 
BRANCH  16  17
ATOM     17  C   UNL     1      31.960 -22.640 -17.091  0.00  0.00    +0.000 C 
ATOM     18  C   UNL     1      33.196 -23.408 -17.533  0.00  0.00    +0.000 C 
ENDBRANCH  16  17
ENDBRANCH  15  16
ENDBRANCH  14  15
ENDBRANCH  11  14
ENDBRANCH  10  11
ENDBRANCH   3   9
BRANCH   2  19
ATOM     19  C   UNL     1      37.460 -22.857 -15.397  0.00  0.00    +0.008 C 
BRANCH  19  20
ATOM     20  C   UNL     1      36.367 -22.487 -16.400  0.00  0.00    +0.000 C 
BRANCH  20  21
ATOM     21  C   UNL     1      36.929 -21.647 -17.549  0.00  0.00    +0.000 C 
BRANCH  21  22
ATOM     22  C   UNL     1      36.058 -21.676 -18.809  0.00  0.00    +0.001 C 
BRANCH  22  23
ATOM     23  C   UNL     1      36.473 -20.714 -19.926  0.00  0.00    +0.012 C 
BRANCH  23  24
ATOM     24  C   UNL     1      35.311 -20.279 -20.817  0.00  0.00    +0.109 C 
BRANCH  24  26
ATOM     25  O   UNL     1      35.589 -17.871 -20.584  0.00  0.00    -0.250 OA
ATOM     26  C   UNL     1      35.474 -18.855 -21.300  0.00  0.00    +0.314 C 
BRANCH  26  27
ATOM     27  O   UNL     1      35.484 -18.791 -22.657  0.00  0.00    -0.480 OA
ATOM     28  H   UNL     1      36.298 -18.803 -23.121  0.00  0.00    +0.295 HD
ENDBRANCH  26  27
ENDBRANCH  24  26
ENDBRANCH  23  24
ENDBRANCH  22  23
ENDBRANCH  21  22
ENDBRANCH  20  21
ENDBRANCH  19  20
ENDBRANCH   2  19
TORSDOF 16
ENDMDL
MODEL 5
REMARK VINA RESULT:      -8.2      1.830      7.151
REMARK  Name = 5280723
REMARK  16 active torsions:
REMARK  status: ('A' for Active; 'I' for Inactive)
REMARK    1  A    between atoms: C_2  and  C_19
REMARK    2  A    between atoms: C_3  and  C_9
REMARK    3  A    between atoms: C_4  and  O_7
REMARK    4  A    between atoms: C_10  and  C_11
REMARK    5  A    between atoms: C_11  and  O_12
REMARK    6  A    between atoms: C_11  and  C_14
REMARK    7  A    between atoms: C_14  and  C_15
REMARK    8  A    between atoms: C_15  and  C_16
REMARK    9  A    between atoms: C_16  and  C_17
REMARK   10  A    between atoms: C_19  and  C_20
REMARK   11  A    between atoms: C_20  and  C_21
REMARK   12  A    between atoms: C_21  and  C_22
REMARK   13  A    between atoms: C_22  and  C_23
REMARK   14  A    between atoms: C_23  and  C_24
REMARK   15  A    between atoms: C_24  and  C_26
REMARK   16  A    between atoms: C_26  and  O_27
REMARK                            x       y       z     vdW  Elec       q    Type
REMARK                         _______ _______ _______ _____ _____    ______ ____
ROOT
ATOM      1  O   UNL     1      39.695 -24.326 -15.030  0.00  0.00    -0.296 OA
ATOM      2  C   UNL     1      37.270 -24.300 -14.949  0.00  0.00    +0.064 C 
ATOM      3  C   UNL     1      36.431 -24.770 -13.751  0.00  0.00    +0.056 C 
ATOM      4  C   UNL     1      37.131 -26.058 -13.296  0.00  0.00    +0.122 C 
ATOM      5  C   UNL     1      38.620 -25.744 -13.407  0.00  0.00    +0.094 C 
ATOM      6  C   UNL     1      38.658 -24.734 -14.525  0.00  0.00    +0.153 C 
ENDROOT
BRANCH   4   7
ATOM      7  O   UNL     1      36.782 -26.354 -11.953  0.00  0.00    -0.384 OA
ATOM      8  H   UNL     1      37.344 -27.073 -11.624  0.00  0.00    +0.210 HD
ENDBRANCH   4   7
BRANCH   3   9
ATOM      9  C   UNL     1      34.993 -24.981 -14.103  0.00  0.00    -0.026 C 
ATOM     10  C   UNL     1      33.999 -24.181 -13.691  0.00  0.00    -0.002 C 
BRANCH  10  11
ATOM     11  C   UNL     1      32.554 -24.398 -14.047  0.00  0.00    +0.132 C 
BRANCH  11  12
ATOM     12  O   UNL     1      31.995 -25.323 -13.110  0.00  0.00    -0.380 OA
ATOM     13  H   UNL     1      31.030 -25.232 -13.103  0.00  0.00    +0.211 HD
ENDBRANCH  11  12
BRANCH  11  14
ATOM     14  C   UNL     1      31.721 -23.112 -13.975  0.00  0.00    +0.034 C 
BRANCH  14  15
ATOM     15  C   UNL     1      31.015 -22.777 -15.292  0.00  0.00    +0.003 C 
BRANCH  15  16
ATOM     16  C   UNL     1      30.401 -24.001 -15.981  0.00  0.00    +0.000 C 
BRANCH  16  17
ATOM     17  C   UNL     1      28.915 -24.192 -15.673  0.00  0.00    +0.000 C 
ATOM     18  C   UNL     1      28.158 -22.875 -15.759  0.00  0.00    +0.000 C 
ENDBRANCH  16  17
ENDBRANCH  15  16
ENDBRANCH  14  15
ENDBRANCH  11  14
ENDBRANCH  10  11
ENDBRANCH   3   9
BRANCH   2  19
ATOM     19  C   UNL     1      37.178 -22.804 -15.200  0.00  0.00    +0.008 C 
BRANCH  19  20
ATOM     20  C   UNL     1      37.434 -22.464 -16.669  0.00  0.00    +0.000 C 
BRANCH  20  21
ATOM     21  C   UNL     1      36.150 -22.003 -17.362  0.00  0.00    +0.000 C 
BRANCH  21  22
ATOM     22  C   UNL     1      34.903 -22.770 -16.911  0.00  0.00    +0.001 C 
BRANCH  22  23
ATOM     23  C   UNL     1      33.745 -22.805 -17.911  0.00  0.00    +0.012 C 
BRANCH  23  24
ATOM     24  C   UNL     1      34.161 -22.445 -19.336  0.00  0.00    +0.109 C 
BRANCH  24  26
ATOM     25  O   UNL     1      32.503 -20.677 -19.568  0.00  0.00    -0.250 OA
ATOM     26  C   UNL     1      33.642 -21.086 -19.748  0.00  0.00    +0.314 C 
BRANCH  26  27
ATOM     27  O   UNL     1      34.608 -20.349 -20.354  0.00  0.00    -0.480 OA
ATOM     28  H   UNL     1      35.509 -20.589 -20.260  0.00  0.00    +0.295 HD
ENDBRANCH  26  27
ENDBRANCH  24  26
ENDBRANCH  23  24
ENDBRANCH  22  23
ENDBRANCH  21  22
ENDBRANCH  20  21
ENDBRANCH  19  20
ENDBRANCH   2  19
TORSDOF 16
ENDMDL
MODEL 6
REMARK VINA RESULT:      -8.1      6.632     10.932
REMARK  Name = 5280723
REMARK  16 active torsions:
REMARK  status: ('A' for Active; 'I' for Inactive)
REMARK    1  A    between atoms: C_2  and  C_19
REMARK    2  A    between atoms: C_3  and  C_9
REMARK    3  A    between atoms: C_4  and  O_7
REMARK    4  A    between atoms: C_10  and  C_11
REMARK    5  A    between atoms: C_11  and  O_12
REMARK    6  A    between atoms: C_11  and  C_14
REMARK    7  A    between atoms: C_14  and  C_15
REMARK    8  A    between atoms: C_15  and  C_16
REMARK    9  A    between atoms: C_16  and  C_17
REMARK   10  A    between atoms: C_19  and  C_20
REMARK   11  A    between atoms: C_20  and  C_21
REMARK   12  A    between atoms: C_21  and  C_22
REMARK   13  A    between atoms: C_22  and  C_23
REMARK   14  A    between atoms: C_23  and  C_24
REMARK   15  A    between atoms: C_24  and  C_26
REMARK   16  A    between atoms: C_26  and  O_27
REMARK                            x       y       z     vdW  Elec       q    Type
REMARK                         _______ _______ _______ _____ _____    ______ ____
ROOT
ATOM      1  O   UNL     1      35.109 -17.743 -24.318  0.00  0.00    -0.296 OA
ATOM      2  C   UNL     1      34.273 -15.766 -23.187  0.00  0.00    +0.064 C 
ATOM      3  C   UNL     1      33.164 -14.852 -23.730  0.00  0.00    +0.056 C 
ATOM      4  C   UNL     1      33.501 -14.713 -25.220  0.00  0.00    +0.122 C 
ATOM      5  C   UNL     1      33.936 -16.112 -25.647  0.00  0.00    +0.094 C 
ATOM      6  C   UNL     1      34.511 -16.677 -24.373  0.00  0.00    +0.153 C 
ENDROOT
BRANCH   4   7
ATOM      7  O   UNL     1      32.350 -14.306 -25.944  0.00  0.00    -0.384 OA
ATOM      8  H   UNL     1      32.598 -14.107 -26.860  0.00  0.00    +0.210 HD
ENDBRANCH   4   7
BRANCH   3   9
ATOM      9  C   UNL     1      33.104 -13.536 -23.021  0.00  0.00    -0.026 C 
ATOM     10  C   UNL     1      32.018 -13.084 -22.378  0.00  0.00    -0.002 C 
BRANCH  10  11
ATOM     11  C   UNL     1      31.962 -11.760 -21.667  0.00  0.00    +0.132 C 
BRANCH  11  12
ATOM     12  O   UNL     1      30.979 -10.946 -22.311  0.00  0.00    -0.380 OA
ATOM     13  H   UNL     1      30.097 -11.185 -21.984  0.00  0.00    +0.211 HD
ENDBRANCH  11  12
BRANCH  11  14
ATOM     14  C   UNL     1      31.558 -11.890 -20.193  0.00  0.00    +0.034 C 
BRANCH  14  15
ATOM     15  C   UNL     1      31.137 -10.559 -19.564  0.00  0.00    +0.003 C 
BRANCH  15  16
ATOM     16  C   UNL     1      32.293  -9.563 -19.418  0.00  0.00    +0.000 C 
BRANCH  16  17
ATOM     17  C   UNL     1      32.017  -8.209 -20.072  0.00  0.00    +0.000 C 
ATOM     18  C   UNL     1      32.807  -8.046 -21.362  0.00  0.00    +0.000 C 
ENDBRANCH  16  17
ENDBRANCH  15  16
ENDBRANCH  14  15
ENDBRANCH  11  14
ENDBRANCH  10  11
ENDBRANCH   3   9
BRANCH   2  19
ATOM     19  C   UNL     1      33.866 -16.530 -21.938  0.00  0.00    +0.008 C 
BRANCH  19  20
ATOM     20  C   UNL     1      35.084 -16.932 -21.104  0.00  0.00    +0.000 C 
BRANCH  20  21
ATOM     21  C   UNL     1      35.225 -18.453 -21.025  0.00  0.00    +0.000 C 
BRANCH  21  22
ATOM     22  C   UNL     1      33.975 -19.206 -21.492  0.00  0.00    +0.001 C 
BRANCH  22  23
ATOM     23  C   UNL     1      33.307 -20.100 -20.444  0.00  0.00    +0.012 C 
BRANCH  23  24
ATOM     24  C   UNL     1      34.264 -21.099 -19.797  0.00  0.00    +0.109 C 
BRANCH  24  26
ATOM     25  O   UNL     1      32.511 -22.204 -18.517  0.00  0.00    -0.250 OA
ATOM     26  C   UNL     1      33.529 -22.275 -19.193  0.00  0.00    +0.314 C 
BRANCH  26  27
ATOM     27  O   UNL     1      34.138 -23.450 -19.497  0.00  0.00    -0.480 OA
ATOM     28  H   UNL     1      34.220 -23.718 -20.391  0.00  0.00    +0.295 HD
ENDBRANCH  26  27
ENDBRANCH  24  26
ENDBRANCH  23  24
ENDBRANCH  22  23
ENDBRANCH  21  22
ENDBRANCH  20  21
ENDBRANCH  19  20
ENDBRANCH   2  19
TORSDOF 16
ENDMDL
MODEL 7
REMARK VINA RESULT:      -8.1      2.337      2.662
REMARK  Name = 5280723
REMARK  16 active torsions:
REMARK  status: ('A' for Active; 'I' for Inactive)
REMARK    1  A    between atoms: C_2  and  C_19
REMARK    2  A    between atoms: C_3  and  C_9
REMARK    3  A    between atoms: C_4  and  O_7
REMARK    4  A    between atoms: C_10  and  C_11
REMARK    5  A    between atoms: C_11  and  O_12
REMARK    6  A    between atoms: C_11  and  C_14
REMARK    7  A    between atoms: C_14  and  C_15
REMARK    8  A    between atoms: C_15  and  C_16
REMARK    9  A    between atoms: C_16  and  C_17
REMARK   10  A    between atoms: C_19  and  C_20
REMARK   11  A    between atoms: C_20  and  C_21
REMARK   12  A    between atoms: C_21  and  C_22
REMARK   13  A    between atoms: C_22  and  C_23
REMARK   14  A    between atoms: C_23  and  C_24
REMARK   15  A    between atoms: C_24  and  C_26
REMARK   16  A    between atoms: C_26  and  O_27
REMARK                            x       y       z     vdW  Elec       q    Type
REMARK                         _______ _______ _______ _____ _____    ______ ____
ROOT
ATOM      1  O   UNL     1      32.116 -25.271 -13.083  0.00  0.00    -0.296 OA
ATOM      2  C   UNL     1      32.651 -23.959 -15.054  0.00  0.00    +0.064 C 
ATOM      3  C   UNL     1      31.636 -23.126 -15.851  0.00  0.00    +0.056 C 
ATOM      4  C   UNL     1      30.400 -24.033 -15.931  0.00  0.00    +0.122 C 
ATOM      5  C   UNL     1      30.300 -24.666 -14.546  0.00  0.00    +0.094 C 
ATOM      6  C   UNL     1      31.739 -24.700 -14.098  0.00  0.00    +0.153 C 
ENDROOT
BRANCH   4   7
ATOM      7  O   UNL     1      29.245 -23.258 -16.209  0.00  0.00    -0.384 OA
ATOM      8  H   UNL     1      29.402 -22.337 -15.948  0.00  0.00    +0.210 HD
ENDBRANCH   4   7
BRANCH   3   9
ATOM      9  C   UNL     1      32.151 -22.725 -17.197  0.00  0.00    -0.026 C 
ATOM     10  C   UNL     1      33.261 -23.233 -17.753  0.00  0.00    -0.002 C 
BRANCH  10  11
ATOM     11  C   UNL     1      33.775 -22.825 -19.105  0.00  0.00    +0.132 C 
BRANCH  11  12
ATOM     12  O   UNL     1      32.773 -22.032 -19.746  0.00  0.00    -0.380 OA
ATOM     13  H   UNL     1      32.135 -22.613 -20.188  0.00  0.00    +0.211 HD
ENDBRANCH  11  12
BRANCH  11  14
ATOM     14  C   UNL     1      35.052 -21.978 -19.029  0.00  0.00    +0.034 C 
BRANCH  14  15
ATOM     15  C   UNL     1      35.030 -20.767 -19.965  0.00  0.00    +0.003 C 
BRANCH  15  16
ATOM     16  C   UNL     1      36.425 -20.210 -20.272  0.00  0.00    +0.000 C 
BRANCH  16  17
ATOM     17  C   UNL     1      36.398 -18.917 -21.088  0.00  0.00    +0.000 C 
ATOM     18  C   UNL     1      34.976 -18.523 -21.457  0.00  0.00    +0.000 C 
ENDBRANCH  16  17
ENDBRANCH  15  16
ENDBRANCH  14  15
ENDBRANCH  11  14
ENDBRANCH  10  11
ENDBRANCH   3   9
BRANCH   2  19
ATOM     19  C   UNL     1      33.689 -23.116 -14.333  0.00  0.00    +0.008 C 
BRANCH  19  20
ATOM     20  C   UNL     1      35.079 -23.290 -14.947  0.00  0.00    +0.000 C 
BRANCH  20  21
ATOM     21  C   UNL     1      35.453 -24.770 -15.062  0.00  0.00    +0.000 C 
BRANCH  21  22
ATOM     22  C   UNL     1      36.840 -25.095 -14.497  0.00  0.00    +0.001 C 
BRANCH  22  23
ATOM     23  C   UNL     1      36.858 -25.754 -13.116  0.00  0.00    +0.012 C 
BRANCH  23  24
ATOM     24  C   UNL     1      37.152 -24.776 -11.979  0.00  0.00    +0.109 C 
BRANCH  24  26
ATOM     25  O   UNL     1      35.975 -24.093  -9.959  0.00  0.00    -0.250 OA
ATOM     26  C   UNL     1      35.951 -24.578 -11.082  0.00  0.00    +0.314 C 
BRANCH  26  27
ATOM     27  O   UNL     1      34.809 -25.007 -11.680  0.00  0.00    -0.480 OA
ATOM     28  H   UNL     1      34.171 -25.484 -11.185  0.00  0.00    +0.295 HD
ENDBRANCH  26  27
ENDBRANCH  24  26
ENDBRANCH  23  24
ENDBRANCH  22  23
ENDBRANCH  21  22
ENDBRANCH  20  21
ENDBRANCH  19  20
ENDBRANCH   2  19
TORSDOF 16
ENDMDL
MODEL 8
REMARK VINA RESULT:      -8.1      6.479     12.048
REMARK  Name = 5280723
REMARK  16 active torsions:
REMARK  status: ('A' for Active; 'I' for Inactive)
REMARK    1  A    between atoms: C_2  and  C_19
REMARK    2  A    between atoms: C_3  and  C_9
REMARK    3  A    between atoms: C_4  and  O_7
REMARK    4  A    between atoms: C_10  and  C_11
REMARK    5  A    between atoms: C_11  and  O_12
REMARK    6  A    between atoms: C_11  and  C_14
REMARK    7  A    between atoms: C_14  and  C_15
REMARK    8  A    between atoms: C_15  and  C_16
REMARK    9  A    between atoms: C_16  and  C_17
REMARK   10  A    between atoms: C_19  and  C_20
REMARK   11  A    between atoms: C_20  and  C_21
REMARK   12  A    between atoms: C_21  and  C_22
REMARK   13  A    between atoms: C_22  and  C_23
REMARK   14  A    between atoms: C_23  and  C_24
REMARK   15  A    between atoms: C_24  and  C_26
REMARK   16  A    between atoms: C_26  and  O_27
REMARK                            x       y       z     vdW  Elec       q    Type
REMARK                         _______ _______ _______ _____ _____    ______ ____
ROOT
ATOM      1  O   UNL     1      32.581 -13.757 -24.079  0.00  0.00    -0.296 OA
ATOM      2  C   UNL     1      33.940 -15.484 -23.047  0.00  0.00    +0.064 C 
ATOM      3  C   UNL     1      34.943 -16.371 -23.799  0.00  0.00    +0.056 C 
ATOM      4  C   UNL     1      34.206 -16.743 -25.093  0.00  0.00    +0.122 C 
ATOM      5  C   UNL     1      33.503 -15.456 -25.516  0.00  0.00    +0.094 C 
ATOM      6  C   UNL     1      33.259 -14.769 -24.197  0.00  0.00    +0.153 C 
ENDROOT
BRANCH   4   7
ATOM      7  O   UNL     1      35.137 -17.151 -26.084  0.00  0.00    -0.384 OA
ATOM      8  H   UNL     1      36.031 -16.890 -25.814  0.00  0.00    +0.210 HD
ENDBRANCH   4   7
BRANCH   3   9
ATOM      9  C   UNL     1      35.363 -17.566 -23.004  0.00  0.00    -0.026 C 
ATOM     10  C   UNL     1      34.579 -18.174 -22.101  0.00  0.00    -0.002 C 
BRANCH  10  11
ATOM     11  C   UNL     1      35.006 -19.375 -21.304  0.00  0.00    +0.132 C 
BRANCH  11  12
ATOM     12  O   UNL     1      35.928 -18.943 -20.300  0.00  0.00    -0.380 OA
ATOM     13  H   UNL     1      36.752 -18.652 -20.721  0.00  0.00    +0.211 HD
ENDBRANCH  11  12
BRANCH  11  14
ATOM     14  C   UNL     1      33.837 -20.064 -20.588  0.00  0.00    +0.034 C 
BRANCH  14  15
ATOM     15  C   UNL     1      34.253 -21.326 -19.829  0.00  0.00    +0.003 C 
BRANCH  15  16
ATOM     16  C   UNL     1      33.175 -21.842 -18.870  0.00  0.00    +0.000 C 
BRANCH  16  17
ATOM     17  C   UNL     1      33.664 -22.959 -17.946  0.00  0.00    +0.000 C 
ATOM     18  C   UNL     1      32.639 -23.274 -16.867  0.00  0.00    +0.000 C 
ENDBRANCH  16  17
ENDBRANCH  15  16
ENDBRANCH  14  15
ENDBRANCH  11  14
ENDBRANCH  10  11
ENDBRANCH   3   9
BRANCH   2  19
ATOM     19  C   UNL     1      34.597 -14.523 -22.072  0.00  0.00    +0.008 C 
BRANCH  19  20
ATOM     20  C   UNL     1      34.150 -14.789 -20.633  0.00  0.00    +0.000 C 
BRANCH  20  21
ATOM     21  C   UNL     1      32.687 -14.391 -20.426  0.00  0.00    +0.000 C 
BRANCH  21  22
ATOM     22  C   UNL     1      32.333 -13.029 -21.031  0.00  0.00    +0.001 C 
BRANCH  22  23
ATOM     23  C   UNL     1      31.617 -12.051 -20.096  0.00  0.00    +0.012 C 
BRANCH  23  24
ATOM     24  C   UNL     1      31.404 -10.668 -20.709  0.00  0.00    +0.109 C 
BRANCH  24  26
ATOM     25  O   UNL     1      32.506  -9.733 -18.749  0.00  0.00    -0.250 OA
ATOM     26  C   UNL     1      31.995  -9.573 -19.849  0.00  0.00    +0.314 C 
BRANCH  26  27
ATOM     27  O   UNL     1      31.895  -8.360 -20.452  0.00  0.00    -0.480 OA
ATOM     28  H   UNL     1      31.550  -7.629 -19.979  0.00  0.00    +0.295 HD
ENDBRANCH  26  27
ENDBRANCH  24  26
ENDBRANCH  23  24
ENDBRANCH  22  23
ENDBRANCH  21  22
ENDBRANCH  20  21
ENDBRANCH  19  20
ENDBRANCH   2  19
TORSDOF 16
ENDMDL
MODEL 9
REMARK VINA RESULT:      -8.0      2.330      7.520
REMARK  Name = 5280723
REMARK  16 active torsions:
REMARK  status: ('A' for Active; 'I' for Inactive)
REMARK    1  A    between atoms: C_2  and  C_19
REMARK    2  A    between atoms: C_3  and  C_9
REMARK    3  A    between atoms: C_4  and  O_7
REMARK    4  A    between atoms: C_10  and  C_11
REMARK    5  A    between atoms: C_11  and  O_12
REMARK    6  A    between atoms: C_11  and  C_14
REMARK    7  A    between atoms: C_14  and  C_15
REMARK    8  A    between atoms: C_15  and  C_16
REMARK    9  A    between atoms: C_16  and  C_17
REMARK   10  A    between atoms: C_19  and  C_20
REMARK   11  A    between atoms: C_20  and  C_21
REMARK   12  A    between atoms: C_21  and  C_22
REMARK   13  A    between atoms: C_22  and  C_23
REMARK   14  A    between atoms: C_23  and  C_24
REMARK   15  A    between atoms: C_24  and  C_26
REMARK   16  A    between atoms: C_26  and  O_27
REMARK                            x       y       z     vdW  Elec       q    Type
REMARK                         _______ _______ _______ _____ _____    ______ ____
ROOT
ATOM      1  O   UNL     1      30.973 -22.638 -17.089  0.00  0.00    -0.296 OA
ATOM      2  C   UNL     1      33.026 -23.143 -15.896  0.00  0.00    +0.064 C 
ATOM      3  C   UNL     1      33.138 -24.141 -14.734  0.00  0.00    +0.056 C 
ATOM      4  C   UNL     1      31.891 -23.858 -13.886  0.00  0.00    +0.122 C 
ATOM      5  C   UNL     1      30.777 -23.638 -14.906  0.00  0.00    +0.094 C 
ATOM      6  C   UNL     1      31.525 -23.086 -16.092  0.00  0.00    +0.153 C 
ENDROOT
BRANCH   4   7
ATOM      7  O   UNL     1      31.598 -24.975 -13.062  0.00  0.00    -0.384 OA
ATOM      8  H   UNL     1      32.382 -25.542 -12.995  0.00  0.00    +0.210 HD
ENDBRANCH   4   7
BRANCH   3   9
ATOM      9  C   UNL     1      34.412 -23.988 -13.965  0.00  0.00    -0.026 C 
ATOM     10  C   UNL     1      34.502 -24.131 -12.635  0.00  0.00    -0.002 C 
BRANCH  10  11
ATOM     11  C   UNL     1      35.784 -23.976 -11.866  0.00  0.00    +0.132 C 
BRANCH  11  12
ATOM     12  O   UNL     1      35.999 -25.167 -11.105  0.00  0.00    -0.380 OA
ATOM     13  H   UNL     1      36.374 -24.935 -10.241  0.00  0.00    +0.211 HD
ENDBRANCH  11  12
BRANCH  11  14
ATOM     14  C   UNL     1      37.006 -23.785 -12.774  0.00  0.00    +0.034 C 
BRANCH  14  15
ATOM     15  C   UNL     1      38.135 -24.778 -12.485  0.00  0.00    +0.003 C 
BRANCH  15  16
ATOM     16  C   UNL     1      38.420 -25.731 -13.651  0.00  0.00    +0.000 C 
BRANCH  16  17
ATOM     17  C   UNL     1      37.298 -26.739 -13.902  0.00  0.00    +0.000 C 
ATOM     18  C   UNL     1      36.708 -26.576 -15.295  0.00  0.00    +0.000 C 
ENDBRANCH  16  17
ENDBRANCH  15  16
ENDBRANCH  14  15
ENDBRANCH  11  14
ENDBRANCH  10  11
ENDBRANCH   3   9
BRANCH   2  19
ATOM     19  C   UNL     1      33.761 -23.591 -17.149  0.00  0.00    +0.008 C 
BRANCH  19  20
ATOM     20  C   UNL     1      34.592 -22.456 -17.748  0.00  0.00    +0.000 C 
BRANCH  20  21
ATOM     21  C   UNL     1      34.245 -22.233 -19.222  0.00  0.00    +0.000 C 
BRANCH  21  22
ATOM     22  C   UNL     1      33.055 -21.291 -19.432  0.00  0.00    +0.001 C 
BRANCH  22  23
ATOM     23  C   UNL     1      33.256 -20.187 -20.474  0.00  0.00    +0.012 C 
BRANCH  23  24
ATOM     24  C   UNL     1      34.721 -19.959 -20.842  0.00  0.00    +0.109 C 
BRANCH  24  26
ATOM     25  O   UNL     1      34.651 -18.346 -22.666  0.00  0.00    -0.250 OA
ATOM     26  C   UNL     1      34.932 -18.616 -21.507  0.00  0.00    +0.314 C 
BRANCH  26  27
ATOM     27  O   UNL     1      35.478 -17.718 -20.647  0.00  0.00    -0.480 OA
ATOM     28  H   UNL     1      35.752 -17.992 -19.793  0.00  0.00    +0.295 HD
ENDBRANCH  26  27
ENDBRANCH  24  26
ENDBRANCH  23  24
ENDBRANCH  22  23
ENDBRANCH  21  22
ENDBRANCH  20  21
ENDBRANCH  19  20
ENDBRANCH   2  19
TORSDOF 16
ENDMDL
