MODEL 1
REMARK VINA RESULT:      -8.2      0.000      0.000
REMARK  Name = 449201
REMARK  8 active torsions:
REMARK  status: ('A' for Active; 'I' for Inactive)
REMARK    1  A    between atoms: C_2  and  C_14
REMARK    2  A    between atoms: C_3  and  C_7
REMARK    3  A    between atoms: C_5  and  C_11
REMARK    4  A    between atoms: C_7  and  O_8
REMARK    5  A    between atoms: C_11  and  O_12
REMARK    6  A    between atoms: C_14  and  N_16
REMARK    7  A    between atoms: C_14  and  C_20
REMARK    8  A    between atoms: C_20  and  C_21
REMARK                            x       y       z     vdW  Elec       q    Type
REMARK                         _______ _______ _______ _____ _____    ______ ____
ROOT
ATOM      1  O   UNL     1      38.094 -24.353 -15.295  0.00  0.00    -0.345 OA
ATOM      2  C   UNL     1      37.433 -23.479 -14.366  0.00  0.00    +0.144 C 
ATOM      3  C   UNL     1      37.383 -24.218 -13.036  0.00  0.00    +0.131 C 
ATOM      4  C   UNL     1      38.637 -25.061 -13.094  0.00  0.00    +0.055 C 
ATOM      5  C   UNL     1      38.749 -25.394 -14.567  0.00  0.00    +0.214 C 
ENDROOT
BRANCH   3   7
ATOM      6  O   UNL     1      37.825 -22.142 -11.906  0.00  0.00    -0.250 OA
ATOM      7  C   UNL     1      37.396 -23.287 -11.866  0.00  0.00    +0.319 C 
BRANCH   7   8
ATOM      8  O   UNL     1      36.864 -23.915 -10.779  0.00  0.00    -0.444 OA
ATOM      9  C   UNL     1      35.561 -24.478 -10.970  0.00  0.00    +0.256 C 
ENDBRANCH   7   8
ENDBRANCH   3   7
BRANCH   5  11
ATOM     10  O   UNL     1      40.582 -26.064 -15.984  0.00  0.00    -0.248 OA
ATOM     11  C   UNL     1      40.166 -25.417 -15.034  0.00  0.00    +0.341 C 
BRANCH  11  12
ATOM     12  O   UNL     1      40.939 -24.620 -14.256  0.00  0.00    -0.479 OA
ATOM     13  H   UNL     1      40.629 -24.343 -13.417  0.00  0.00    +0.295 HD
ENDBRANCH  11  12
ENDBRANCH   5  11
BRANCH   2  14
ATOM     14  C   UNL     1      36.060 -23.122 -14.911  0.00  0.00    +0.099 C 
BRANCH  14  16
ATOM     15  O   UNL     1      37.444 -20.972 -16.286  0.00  0.00    -0.275 OA
ATOM     16  N   UNL     1      36.146 -22.903 -16.335  0.00  0.00    -0.304 N 
ATOM     17  C   UNL     1      36.833 -21.842 -16.900  0.00  0.00    +0.223 C 
ATOM     18  C   UNL     1      36.784 -21.865 -18.405  0.00  0.00    +0.095 C 
ATOM     19  H   UNL     1      35.692 -23.539 -16.935  0.00  0.00    +0.149 HD
ENDBRANCH  14  16
BRANCH  14  20
ATOM     20  C   UNL     1      35.040 -24.220 -14.572  0.00  0.00    +0.022 C 
BRANCH  20  21
ATOM     21  C   UNL     1      33.588 -23.729 -14.391  0.00  0.00    +0.002 C 
ATOM     22  C   UNL     1      32.980 -23.406 -15.759  0.00  0.00    +0.000 C 
ATOM     23  C   UNL     1      32.711 -24.751 -13.666  0.00  0.00    +0.000 C 
ENDBRANCH  20  21
ENDBRANCH  14  20
ENDBRANCH   2  14
TORSDOF 8
ENDMDL
MODEL 2
REMARK VINA RESULT:      -8.1      9.350     13.421
REMARK  Name = 449201
REMARK  8 active torsions:
REMARK  status: ('A' for Active; 'I' for Inactive)
REMARK    1  A    between atoms: C_2  and  C_14
REMARK    2  A    between atoms: C_3  and  C_7
REMARK    3  A    between atoms: C_5  and  C_11
REMARK    4  A    between atoms: C_7  and  O_8
REMARK    5  A    between atoms: C_11  and  O_12
REMARK    6  A    between atoms: C_14  and  N_16
REMARK    7  A    between atoms: C_14  and  C_20
REMARK    8  A    between atoms: C_20  and  C_21
REMARK                            x       y       z     vdW  Elec       q    Type
REMARK                         _______ _______ _______ _____ _____    ______ ____
ROOT
ATOM      1  O   UNL     1      34.075 -13.826 -23.305  0.00  0.00    -0.345 OA
ATOM      2  C   UNL     1      34.496 -15.195 -23.424  0.00  0.00    +0.144 C 
ATOM      3  C   UNL     1      33.636 -15.819 -24.514  0.00  0.00    +0.131 C 
ATOM      4  C   UNL     1      33.366 -14.640 -25.421  0.00  0.00    +0.055 C 
ATOM      5  C   UNL     1      33.291 -13.481 -24.449  0.00  0.00    +0.214 C 
ENDROOT
BRANCH   3   7
ATOM      6  O   UNL     1      35.250 -16.745 -26.036  0.00  0.00    -0.250 OA
ATOM      7  C   UNL     1      34.342 -16.922 -25.236  0.00  0.00    +0.319 C 
BRANCH   7   8
ATOM      8  O   UNL     1      33.815 -18.122 -24.862  0.00  0.00    -0.444 OA
ATOM      9  C   UNL     1      34.764 -19.178 -24.672  0.00  0.00    +0.256 C 
ENDBRANCH   7   8
ENDBRANCH   3   7
BRANCH   5  11
ATOM     10  O   UNL     1      33.835 -11.902 -26.189  0.00  0.00    -0.248 OA
ATOM     11  C   UNL     1      33.884 -12.233 -25.013  0.00  0.00    +0.341 C 
BRANCH  11  12
ATOM     12  O   UNL     1      34.493 -11.510 -24.042  0.00  0.00    -0.479 OA
ATOM     13  H   UNL     1      34.494 -10.574 -24.086  0.00  0.00    +0.295 HD
ENDBRANCH  11  12
ENDBRANCH   5  11
BRANCH   2  14
ATOM     14  C   UNL     1      34.353 -15.878 -22.075  0.00  0.00    +0.099 C 
BRANCH  14  16
ATOM     15  O   UNL     1      34.180 -18.565 -20.993  0.00  0.00    -0.275 OA
ATOM     16  N   UNL     1      35.430 -16.820 -21.891  0.00  0.00    -0.304 N 
ATOM     17  C   UNL     1      35.249 -18.087 -21.363  0.00  0.00    +0.223 C 
ATOM     18  C   UNL     1      36.533 -18.872 -21.305  0.00  0.00    +0.095 C 
ATOM     19  H   UNL     1      36.340 -16.548 -22.153  0.00  0.00    +0.149 HD
ENDBRANCH  14  16
BRANCH  14  20
ATOM     20  C   UNL     1      34.316 -14.838 -20.942  0.00  0.00    +0.022 C 
BRANCH  20  21
ATOM     21  C   UNL     1      32.959 -14.709 -20.218  0.00  0.00    +0.002 C 
ATOM     22  C   UNL     1      32.309 -13.370 -20.578  0.00  0.00    +0.000 C 
ATOM     23  C   UNL     1      32.004 -15.854 -20.559  0.00  0.00    +0.000 C 
ENDBRANCH  20  21
ENDBRANCH  14  20
ENDBRANCH   2  14
TORSDOF 8
ENDMDL
MODEL 3
REMARK VINA RESULT:      -8.0      1.458      3.107
REMARK  Name = 449201
REMARK  8 active torsions:
REMARK  status: ('A' for Active; 'I' for Inactive)
REMARK    1  A    between atoms: C_2  and  C_14
REMARK    2  A    between atoms: C_3  and  C_7
REMARK    3  A    between atoms: C_5  and  C_11
REMARK    4  A    between atoms: C_7  and  O_8
REMARK    5  A    between atoms: C_11  and  O_12
REMARK    6  A    between atoms: C_14  and  N_16
REMARK    7  A    between atoms: C_14  and  C_20
REMARK    8  A    between atoms: C_20  and  C_21
REMARK                            x       y       z     vdW  Elec       q    Type
REMARK                         _______ _______ _______ _____ _____    ______ ____
ROOT
ATOM      1  O   UNL     1      38.217 -25.187 -15.322  0.00  0.00    -0.345 OA
ATOM      2  C   UNL     1      37.525 -24.133 -14.633  0.00  0.00    +0.144 C 
ATOM      3  C   UNL     1      37.420 -24.564 -13.177  0.00  0.00    +0.131 C 
ATOM      4  C   UNL     1      38.671 -25.396 -13.000  0.00  0.00    +0.055 C 
ATOM      5  C   UNL     1      38.837 -26.042 -14.360  0.00  0.00    +0.214 C 
ENDROOT
BRANCH   3   7
ATOM      6  O   UNL     1      38.365 -22.705 -11.981  0.00  0.00    -0.250 OA
ATOM      7  C   UNL     1      37.392 -23.400 -12.238  0.00  0.00    +0.319 C 
BRANCH   7   8
ATOM      8  O   UNL     1      36.136 -23.253 -11.732  0.00  0.00    -0.444 OA
ATOM      9  C   UNL     1      35.690 -24.311 -10.875  0.00  0.00    +0.256 C 
ENDBRANCH   7   8
ENDBRANCH   3   7
BRANCH   5  11
ATOM     10  O   UNL     1      41.177 -26.508 -14.010  0.00  0.00    -0.248 OA
ATOM     11  C   UNL     1      40.271 -26.162 -14.754  0.00  0.00    +0.341 C 
BRANCH  11  12
ATOM     12  O   UNL     1      40.439 -25.830 -16.058  0.00  0.00    -0.479 OA
ATOM     13  H   UNL     1      39.847 -25.230 -16.468  0.00  0.00    +0.295 HD
ENDBRANCH  11  12
ENDBRANCH   5  11
BRANCH   2  14
ATOM     14  C   UNL     1      36.177 -23.907 -15.296  0.00  0.00    +0.099 C 
BRANCH  14  16
ATOM     15  O   UNL     1      33.316 -23.699 -15.736  0.00  0.00    -0.275 OA
ATOM     16  N   UNL     1      35.121 -24.272 -14.383  0.00  0.00    -0.304 N 
ATOM     17  C   UNL     1      33.776 -24.134 -14.684  0.00  0.00    +0.223 C 
ATOM     18  C   UNL     1      32.888 -24.613 -13.567  0.00  0.00    +0.095 C 
ATOM     19  H   UNL     1      35.368 -24.635 -13.501  0.00  0.00    +0.149 HD
ENDBRANCH  14  16
BRANCH  14  20
ATOM     20  C   UNL     1      36.040 -22.448 -15.761  0.00  0.00    +0.022 C 
BRANCH  20  21
ATOM     21  C   UNL     1      36.691 -22.134 -17.125  0.00  0.00    +0.002 C 
ATOM     22  C   UNL     1      35.606 -22.029 -18.201  0.00  0.00    +0.000 C 
ATOM     23  C   UNL     1      37.514 -20.845 -17.096  0.00  0.00    +0.000 C 
ENDBRANCH  20  21
ENDBRANCH  14  20
ENDBRANCH   2  14
TORSDOF 8
ENDMDL
MODEL 4
REMARK VINA RESULT:      -8.0      5.088      7.780
REMARK  Name = 449201
REMARK  8 active torsions:
REMARK  status: ('A' for Active; 'I' for Inactive)
REMARK    1  A    between atoms: C_2  and  C_14
REMARK    2  A    between atoms: C_3  and  C_7
REMARK    3  A    between atoms: C_5  and  C_11
REMARK    4  A    between atoms: C_7  and  O_8
REMARK    5  A    between atoms: C_11  and  O_12
REMARK    6  A    between atoms: C_14  and  N_16
REMARK    7  A    between atoms: C_14  and  C_20
REMARK    8  A    between atoms: C_20  and  C_21
REMARK                            x       y       z     vdW  Elec       q    Type
REMARK                         _______ _______ _______ _____ _____    ______ ____
ROOT
ATOM      1  O   UNL     1      29.997 -22.641 -17.177  0.00  0.00    -0.345 OA
ATOM      2  C   UNL     1      30.766 -23.675 -16.543  0.00  0.00    +0.144 C 
ATOM      3  C   UNL     1      30.340 -23.698 -15.081  0.00  0.00    +0.131 C 
ATOM      4  C   UNL     1      28.896 -23.257 -15.164  0.00  0.00    +0.055 C 
ATOM      5  C   UNL     1      28.911 -22.280 -16.321  0.00  0.00    +0.214 C 
ENDROOT
BRANCH   3   7
ATOM      6  O   UNL     1      30.145 -26.093 -15.031  0.00  0.00    -0.250 OA
ATOM      7  C   UNL     1      30.470 -25.056 -14.470  0.00  0.00    +0.319 C 
BRANCH   7   8
ATOM      8  O   UNL     1      30.995 -24.944 -13.217  0.00  0.00    -0.444 OA
ATOM      9  C   UNL     1      30.849 -23.659 -12.602  0.00  0.00    +0.256 C 
ENDBRANCH   7   8
ENDBRANCH   3   7
BRANCH   5  11
ATOM     10  O   UNL     1      26.901 -21.437 -17.354  0.00  0.00    -0.248 OA
ATOM     11  C   UNL     1      27.670 -22.365 -17.146  0.00  0.00    +0.341 C 
BRANCH  11  12
ATOM     12  O   UNL     1      27.504 -23.618 -17.635  0.00  0.00    -0.479 OA
ATOM     13  H   UNL     1      28.253 -24.134 -17.863  0.00  0.00    +0.295 HD
ENDBRANCH  11  12
ENDBRANCH   5  11
BRANCH   2  14
ATOM     14  C   UNL     1      32.245 -23.384 -16.737  0.00  0.00    +0.099 C 
BRANCH  14  16
ATOM     15  O   UNL     1      34.313 -23.238 -18.769  0.00  0.00    -0.275 OA
ATOM     16  N   UNL     1      32.410 -22.369 -17.749  0.00  0.00    -0.304 N 
ATOM     17  C   UNL     1      33.435 -22.384 -18.680  0.00  0.00    +0.223 C 
ATOM     18  C   UNL     1      33.358 -21.222 -19.634  0.00  0.00    +0.095 C 
ATOM     19  H   UNL     1      31.763 -21.627 -17.778  0.00  0.00    +0.149 HD
ENDBRANCH  14  16
BRANCH  14  20
ATOM     20  C   UNL     1      32.894 -22.965 -15.408  0.00  0.00    +0.022 C 
BRANCH  20  21
ATOM     21  C   UNL     1      34.235 -23.660 -15.089  0.00  0.00    +0.002 C 
ATOM     22  C   UNL     1      35.394 -22.711 -15.408  0.00  0.00    +0.000 C 
ATOM     23  C   UNL     1      34.327 -24.112 -13.631  0.00  0.00    +0.000 C 
ENDBRANCH  20  21
ENDBRANCH  14  20
ENDBRANCH   2  14
TORSDOF 8
ENDMDL
MODEL 5
REMARK VINA RESULT:      -8.0      2.295      4.577
REMARK  Name = 449201
REMARK  8 active torsions:
REMARK  status: ('A' for Active; 'I' for Inactive)
REMARK    1  A    between atoms: C_2  and  C_14
REMARK    2  A    between atoms: C_3  and  C_7
REMARK    3  A    between atoms: C_5  and  C_11
REMARK    4  A    between atoms: C_7  and  O_8
REMARK    5  A    between atoms: C_11  and  O_12
REMARK    6  A    between atoms: C_14  and  N_16
REMARK    7  A    between atoms: C_14  and  C_20
REMARK    8  A    between atoms: C_20  and  C_21
REMARK                            x       y       z     vdW  Elec       q    Type
REMARK                         _______ _______ _______ _____ _____    ______ ____
ROOT
ATOM      1  O   UNL     1      34.165 -24.278 -12.596  0.00  0.00    -0.345 OA
ATOM      2  C   UNL     1      34.420 -24.332 -14.009  0.00  0.00    +0.144 C 
ATOM      3  C   UNL     1      35.604 -23.412 -14.271  0.00  0.00    +0.131 C 
ATOM      4  C   UNL     1      36.383 -23.521 -12.979  0.00  0.00    +0.055 C 
ATOM      5  C   UNL     1      35.291 -23.689 -11.943  0.00  0.00    +0.214 C 
ENDROOT
BRANCH   3   7
ATOM      6  O   UNL     1      37.080 -24.878 -15.476  0.00  0.00    -0.250 OA
ATOM      7  C   UNL     1      36.418 -23.849 -15.446  0.00  0.00    +0.319 C 
BRANCH   7   8
ATOM      8  O   UNL     1      36.300 -22.933 -16.448  0.00  0.00    -0.444 OA
ATOM      9  C   UNL     1      37.233 -21.847 -16.401  0.00  0.00    +0.256 C 
ENDBRANCH   7   8
ENDBRANCH   3   7
BRANCH   5  11
ATOM     10  O   UNL     1      35.394 -24.493  -9.672  0.00  0.00    -0.248 OA
ATOM     11  C   UNL     1      35.690 -24.624 -10.851  0.00  0.00    +0.341 C 
BRANCH  11  12
ATOM     12  O   UNL     1      36.433 -25.645 -11.343  0.00  0.00    -0.479 OA
ATOM     13  H   UNL     1      37.369 -25.606 -11.300  0.00  0.00    +0.295 HD
ENDBRANCH  11  12
ENDBRANCH   5  11
BRANCH   2  14
ATOM     14  C   UNL     1      33.161 -23.926 -14.757  0.00  0.00    +0.099 C 
BRANCH  14  16
ATOM     15  O   UNL     1      31.405 -22.767 -16.756  0.00  0.00    -0.275 OA
ATOM     16  N   UNL     1      33.502 -23.540 -16.105  0.00  0.00    -0.304 N 
ATOM     17  C   UNL     1      32.589 -22.993 -16.991  0.00  0.00    +0.223 C 
ATOM     18  C   UNL     1      33.213 -22.659 -18.321  0.00  0.00    +0.095 C 
ATOM     19  H   UNL     1      34.429 -23.675 -16.411  0.00  0.00    +0.149 HD
ENDBRANCH  14  16
BRANCH  14  20
ATOM     20  C   UNL     1      32.131 -25.067 -14.742  0.00  0.00    +0.022 C 
BRANCH  20  21
ATOM     21  C   UNL     1      30.870 -24.797 -13.894  0.00  0.00    +0.002 C 
ATOM     22  C   UNL     1      30.887 -23.349 -13.394  0.00  0.00    +0.000 C 
ATOM     23  C   UNL     1      29.577 -25.058 -14.668  0.00  0.00    +0.000 C 
ENDBRANCH  20  21
ENDBRANCH  14  20
ENDBRANCH   2  14
TORSDOF 8
ENDMDL
MODEL 6
REMARK VINA RESULT:      -7.9      4.187      6.943
REMARK  Name = 449201
REMARK  8 active torsions:
REMARK  status: ('A' for Active; 'I' for Inactive)
REMARK    1  A    between atoms: C_2  and  C_14
REMARK    2  A    between atoms: C_3  and  C_7
REMARK    3  A    between atoms: C_5  and  C_11
REMARK    4  A    between atoms: C_7  and  O_8
REMARK    5  A    between atoms: C_11  and  O_12
REMARK    6  A    between atoms: C_14  and  N_16
REMARK    7  A    between atoms: C_14  and  C_20
REMARK    8  A    between atoms: C_20  and  C_21
REMARK                            x       y       z     vdW  Elec       q    Type
REMARK                         _______ _______ _______ _____ _____    ______ ____
ROOT
ATOM      1  O   UNL     1      31.108 -22.813 -17.024  0.00  0.00    -0.345 OA
ATOM      2  C   UNL     1      32.136 -23.465 -16.261  0.00  0.00    +0.144 C 
ATOM      3  C   UNL     1      31.861 -23.143 -14.799  0.00  0.00    +0.131 C 
ATOM      4  C   UNL     1      30.354 -23.012 -14.781  0.00  0.00    +0.055 C 
ATOM      5  C   UNL     1      30.053 -22.422 -16.143  0.00  0.00    +0.214 C 
ENDROOT
BRANCH   3   7
ATOM      6  O   UNL     1      32.063 -25.407 -14.017  0.00  0.00    -0.250 OA
ATOM      7  C   UNL     1      32.333 -24.222 -13.878  0.00  0.00    +0.319 C 
BRANCH   7   8
ATOM      8  O   UNL     1      33.092 -23.675 -12.887  0.00  0.00    -0.444 OA
ATOM      9  C   UNL     1      34.344 -24.327 -12.640  0.00  0.00    +0.256 C 
ENDBRANCH   7   8
ENDBRANCH   3   7
BRANCH   5  11
ATOM     10  O   UNL     1      28.475 -24.143 -16.744  0.00  0.00    -0.248 OA
ATOM     11  C   UNL     1      28.789 -22.961 -16.723  0.00  0.00    +0.341 C 
BRANCH  11  12
ATOM     12  O   UNL     1      28.029 -21.960 -17.231  0.00  0.00    -0.479 OA
ATOM     13  H   UNL     1      28.154 -21.681 -18.116  0.00  0.00    +0.295 HD
ENDBRANCH  11  12
ENDBRANCH   5  11
BRANCH   2  14
ATOM     14  C   UNL     1      33.494 -22.982 -16.742  0.00  0.00    +0.099 C 
BRANCH  14  16
ATOM     15  O   UNL     1      36.170 -22.178 -15.957  0.00  0.00    -0.275 OA
ATOM     16  N   UNL     1      34.531 -23.815 -16.182  0.00  0.00    -0.304 N 
ATOM     17  C   UNL     1      35.784 -23.337 -15.838  0.00  0.00    +0.223 C 
ATOM     18  C   UNL     1      36.664 -24.410 -15.253  0.00  0.00    +0.095 C 
ATOM     19  H   UNL     1      34.338 -24.770 -16.039  0.00  0.00    +0.149 HD
ENDBRANCH  14  16
BRANCH  14  20
ATOM     20  C   UNL     1      33.551 -22.969 -18.279  0.00  0.00    +0.022 C 
BRANCH  20  21
ATOM     21  C   UNL     1      34.122 -21.676 -18.899  0.00  0.00    +0.002 C 
ATOM     22  C   UNL     1      35.480 -21.971 -19.544  0.00  0.00    +0.000 C 
ATOM     23  C   UNL     1      33.182 -21.063 -19.938  0.00  0.00    +0.000 C 
ENDBRANCH  20  21
ENDBRANCH  14  20
ENDBRANCH   2  14
TORSDOF 8
ENDMDL
MODEL 7
REMARK VINA RESULT:      -7.8      2.067      4.773
REMARK  Name = 449201
REMARK  8 active torsions:
REMARK  status: ('A' for Active; 'I' for Inactive)
REMARK    1  A    between atoms: C_2  and  C_14
REMARK    2  A    between atoms: C_3  and  C_7
REMARK    3  A    between atoms: C_5  and  C_11
REMARK    4  A    between atoms: C_7  and  O_8
REMARK    5  A    between atoms: C_11  and  O_12
REMARK    6  A    between atoms: C_14  and  N_16
REMARK    7  A    between atoms: C_14  and  C_20
REMARK    8  A    between atoms: C_20  and  C_21
REMARK                            x       y       z     vdW  Elec       q    Type
REMARK                         _______ _______ _______ _____ _____    ______ ____
ROOT
ATOM      1  O   UNL     1      35.173 -23.780 -13.000  0.00  0.00    -0.345 OA
ATOM      2  C   UNL     1      35.341 -24.572 -14.187  0.00  0.00    +0.144 C 
ATOM      3  C   UNL     1      36.828 -24.879 -14.296  0.00  0.00    +0.131 C 
ATOM      4  C   UNL     1      37.252 -24.918 -12.844  0.00  0.00    +0.055 C 
ATOM      5  C   UNL     1      36.358 -23.875 -12.206  0.00  0.00    +0.214 C 
ENDROOT
BRANCH   3   7
ATOM      6  O   UNL     1      36.313 -26.715 -15.759  0.00  0.00    -0.250 OA
ATOM      7  C   UNL     1      37.094 -26.179 -14.985  0.00  0.00    +0.319 C 
BRANCH   7   8
ATOM      8  O   UNL     1      38.317 -26.651 -14.612  0.00  0.00    -0.444 OA
ATOM      9  C   UNL     1      39.433 -25.844 -15.006  0.00  0.00    +0.256 C 
ENDBRANCH   7   8
ENDBRANCH   3   7
BRANCH   5  11
ATOM     10  O   UNL     1      36.413 -23.849  -9.796  0.00  0.00    -0.248 OA
ATOM     11  C   UNL     1      35.924 -24.269 -10.834  0.00  0.00    +0.341 C 
BRANCH  11  12
ATOM     12  O   UNL     1      34.908 -25.164 -10.892  0.00  0.00    -0.479 OA
ATOM     13  H   UNL     1      35.059 -26.059 -10.657  0.00  0.00    +0.295 HD
ENDBRANCH  11  12
ENDBRANCH   5  11
BRANCH   2  14
ATOM     14  C   UNL     1      34.793 -23.804 -15.378  0.00  0.00    +0.099 C 
BRANCH  14  16
ATOM     15  O   UNL     1      32.808 -23.425 -17.461  0.00  0.00    -0.275 OA
ATOM     16  N   UNL     1      33.375 -23.596 -15.210  0.00  0.00    -0.304 N 
ATOM     17  C   UNL     1      32.503 -23.423 -16.271  0.00  0.00    +0.223 C 
ATOM     18  C   UNL     1      31.077 -23.252 -15.817  0.00  0.00    +0.095 C 
ATOM     19  H   UNL     1      33.010 -23.575 -14.295  0.00  0.00    +0.149 HD
ENDBRANCH  14  16
BRANCH  14  20
ATOM     20  C   UNL     1      35.540 -22.471 -15.553  0.00  0.00    +0.022 C 
BRANCH  20  21
ATOM     21  C   UNL     1      36.486 -22.409 -16.772  0.00  0.00    +0.002 C 
ATOM     22  C   UNL     1      35.690 -22.017 -18.020  0.00  0.00    +0.000 C 
ATOM     23  C   UNL     1      37.638 -21.425 -16.567  0.00  0.00    +0.000 C 
ENDBRANCH  20  21
ENDBRANCH  14  20
ENDBRANCH   2  14
TORSDOF 8
ENDMDL
MODEL 8
REMARK VINA RESULT:      -7.8     11.262     14.584
REMARK  Name = 449201
REMARK  8 active torsions:
REMARK  status: ('A' for Active; 'I' for Inactive)
REMARK    1  A    between atoms: C_2  and  C_14
REMARK    2  A    between atoms: C_3  and  C_7
REMARK    3  A    between atoms: C_5  and  C_11
REMARK    4  A    between atoms: C_7  and  O_8
REMARK    5  A    between atoms: C_11  and  O_12
REMARK    6  A    between atoms: C_14  and  N_16
REMARK    7  A    between atoms: C_14  and  C_20
REMARK    8  A    between atoms: C_20  and  C_21
REMARK                            x       y       z     vdW  Elec       q    Type
REMARK                         _______ _______ _______ _____ _____    ______ ____
ROOT
ATOM      1  O   UNL     1      34.290 -14.188 -22.774  0.00  0.00    -0.345 OA
ATOM      2  C   UNL     1      33.563 -12.951 -22.707  0.00  0.00    +0.144 C 
ATOM      3  C   UNL     1      32.179 -13.291 -22.172  0.00  0.00    +0.131 C 
ATOM      4  C   UNL     1      32.465 -14.481 -21.283  0.00  0.00    +0.055 C 
ATOM      5  C   UNL     1      33.597 -15.177 -22.010  0.00  0.00    +0.214 C 
ENDROOT
BRANCH   3   7
ATOM      6  O   UNL     1      30.838 -11.314 -21.898  0.00  0.00    -0.250 OA
ATOM      7  C   UNL     1      31.570 -12.161 -21.405  0.00  0.00    +0.319 C 
BRANCH   7   8
ATOM      8  O   UNL     1      31.961 -12.233 -20.101  0.00  0.00    -0.444 OA
ATOM      9  C   UNL     1      31.561 -11.132 -19.277  0.00  0.00    +0.256 C 
ENDBRANCH   7   8
ENDBRANCH   3   7
BRANCH   5  11
ATOM     10  O   UNL     1      35.014 -16.912 -21.119  0.00  0.00    -0.248 OA
ATOM     11  C   UNL     1      34.593 -15.766 -21.068  0.00  0.00    +0.341 C 
BRANCH  11  12
ATOM     12  O   UNL     1      34.971 -14.855 -20.139  0.00  0.00    -0.479 OA
ATOM     13  H   UNL     1      34.591 -13.998 -20.142  0.00  0.00    +0.295 HD
ENDBRANCH  11  12
ENDBRANCH   5  11
BRANCH   2  14
ATOM     14  C   UNL     1      33.538 -12.314 -24.087  0.00  0.00    +0.099 C 
BRANCH  14  16
ATOM     15  O   UNL     1      32.585  -9.582 -23.859  0.00  0.00    -0.275 OA
ATOM     16  N   UNL     1      34.329 -11.107 -24.077  0.00  0.00    -0.304 N 
ATOM     17  C   UNL     1      33.780  -9.841 -23.965  0.00  0.00    +0.223 C 
ATOM     18  C   UNL     1      34.830  -8.762 -23.956  0.00  0.00    +0.095 C 
ATOM     19  H   UNL     1      35.308 -11.188 -24.157  0.00  0.00    +0.149 HD
ENDBRANCH  14  16
BRANCH  14  20
ATOM     20  C   UNL     1      34.038 -13.306 -25.150  0.00  0.00    +0.022 C 
BRANCH  20  21
ATOM     21  C   UNL     1      32.930 -13.955 -26.008  0.00  0.00    +0.002 C 
ATOM     22  C   UNL     1      32.924 -13.323 -27.403  0.00  0.00    +0.000 C 
ATOM     23  C   UNL     1      33.099 -15.470 -26.130  0.00  0.00    +0.000 C 
ENDBRANCH  20  21
ENDBRANCH  14  20
ENDBRANCH   2  14
TORSDOF 8
ENDMDL
MODEL 9
REMARK VINA RESULT:      -7.8     11.141     15.025
REMARK  Name = 449201
REMARK  8 active torsions:
REMARK  status: ('A' for Active; 'I' for Inactive)
REMARK    1  A    between atoms: C_2  and  C_14
REMARK    2  A    between atoms: C_3  and  C_7
REMARK    3  A    between atoms: C_5  and  C_11
REMARK    4  A    between atoms: C_7  and  O_8
REMARK    5  A    between atoms: C_11  and  O_12
REMARK    6  A    between atoms: C_14  and  N_16
REMARK    7  A    between atoms: C_14  and  C_20
REMARK    8  A    between atoms: C_20  and  C_21
REMARK                            x       y       z     vdW  Elec       q    Type
REMARK                         _______ _______ _______ _____ _____    ______ ____
ROOT
ATOM      1  O   UNL     1      33.806 -12.051 -23.687  0.00  0.00    -0.345 OA
ATOM      2  C   UNL     1      33.590 -13.470 -23.750  0.00  0.00    +0.144 C 
ATOM      3  C   UNL     1      32.974 -13.754 -25.113  0.00  0.00    +0.131 C 
ATOM      4  C   UNL     1      33.583 -12.666 -25.970  0.00  0.00    +0.055 C 
ATOM      5  C   UNL     1      33.701 -11.506 -25.004  0.00  0.00    +0.214 C 
ENDROOT
BRANCH   3   7
ATOM      6  O   UNL     1      32.793 -15.637 -26.596  0.00  0.00    -0.250 OA
ATOM      7  C   UNL     1      33.319 -15.117 -25.622  0.00  0.00    +0.319 C 
BRANCH   7   8
ATOM      8  O   UNL     1      34.289 -15.664 -24.837  0.00  0.00    -0.444 OA
ATOM      9  C   UNL     1      34.536 -17.059 -25.046  0.00  0.00    +0.256 C 
ENDBRANCH   7   8
ENDBRANCH   3   7
BRANCH   5  11
ATOM     10  O   UNL     1      35.512 -10.593 -26.309  0.00  0.00    -0.248 OA
ATOM     11  C   UNL     1      34.938 -10.704 -25.235  0.00  0.00    +0.341 C 
BRANCH  11  12
ATOM     12  O   UNL     1      35.346 -10.112 -24.087  0.00  0.00    -0.479 OA
ATOM     13  H   UNL     1      36.097 -10.441 -23.632  0.00  0.00    +0.295 HD
ENDBRANCH  11  12
ENDBRANCH   5  11
BRANCH   2  14
ATOM     14  C   UNL     1      32.706 -13.890 -22.588  0.00  0.00    +0.099 C 
BRANCH  14  16
ATOM     15  O   UNL     1      34.936 -14.632 -20.885  0.00  0.00    -0.275 OA
ATOM     16  N   UNL     1      33.074 -15.216 -22.154  0.00  0.00    -0.304 N 
ATOM     17  C   UNL     1      34.163 -15.472 -21.337  0.00  0.00    +0.223 C 
ATOM     18  C   UNL     1      34.305 -16.936 -21.016  0.00  0.00    +0.095 C 
ATOM     19  H   UNL     1      32.525 -15.976 -22.455  0.00  0.00    +0.149 HD
ENDBRANCH  14  16
BRANCH  14  20
ATOM     20  C   UNL     1      32.804 -12.874 -21.438  0.00  0.00    +0.022 C 
BRANCH  20  21
ATOM     21  C   UNL     1      31.473 -12.192 -21.054  0.00  0.00    +0.002 C 
ATOM     22  C   UNL     1      31.612 -11.531 -19.679  0.00  0.00    +0.000 C 
ATOM     23  C   UNL     1      31.031 -11.152 -22.083  0.00  0.00    +0.000 C 
ENDBRANCH  20  21
ENDBRANCH  14  20
ENDBRANCH   2  14
TORSDOF 8
ENDMDL
