MODEL 1
REMARK VINA RESULT:      -6.7      0.000      0.000
REMARK  Name = 7532
REMARK  2 active torsions:
REMARK  status: ('A' for Active; 'I' for Inactive)
REMARK    1  A    between atoms: C_1  and  C_7
REMARK    2  A    between atoms: C_7  and  S_8
REMARK                            x       y       z     vdW  Elec       q    Type
REMARK                         _______ _______ _______ _____ _____    ______ ____
ROOT
ATOM      1  C   UNL     1      34.433 -19.377 -21.297  0.00  0.00    +0.002 C 
ATOM      2  C   UNL     1      35.563 -20.057 -20.842  0.00  0.00    -0.003 C 
ATOM      3  C   UNL     1      33.168 -19.735 -20.830  0.00  0.00    -0.003 C 
ATOM      4  C   UNL     1      35.427 -21.096 -19.921  0.00  0.00    -0.000 C 
ATOM      5  C   UNL     1      33.033 -20.774 -19.910  0.00  0.00    -0.000 C 
ATOM      6  C   UNL     1      34.163 -21.455 -19.456  0.00  0.00    -0.000 C 
ENDROOT
BRANCH   1   7
ATOM      7  C   UNL     1      34.578 -18.265 -22.281  0.00  0.00    +0.184 C 
BRANCH   7   8
ATOM      8  S   UNL     1      34.501 -16.692 -21.486  0.00  0.00    +0.027 S 
ATOM      9  O   UNL     1      35.242 -15.828 -22.656  0.00  0.00    -0.069 OA
ATOM     10  O   UNL     1      35.355 -16.714 -20.312  0.00  0.00    -0.069 OA
ATOM     11  O   UNL     1      33.114 -16.274 -21.408  0.00  0.00    -0.069 OA
ENDBRANCH   7   8
ENDBRANCH   1   7
TORSDOF 2
ENDMDL
MODEL 2
REMARK VINA RESULT:      -6.7      0.028      1.457
REMARK  Name = 7532
REMARK  2 active torsions:
REMARK  status: ('A' for Active; 'I' for Inactive)
REMARK    1  A    between atoms: C_1  and  C_7
REMARK    2  A    between atoms: C_7  and  S_8
REMARK                            x       y       z     vdW  Elec       q    Type
REMARK                         _______ _______ _______ _____ _____    ______ ____
ROOT
ATOM      1  C   UNL     1      34.419 -19.367 -21.280  0.00  0.00    +0.002 C 
ATOM      2  C   UNL     1      33.149 -19.718 -20.820  0.00  0.00    -0.003 C 
ATOM      3  C   UNL     1      35.542 -20.056 -20.822  0.00  0.00    -0.003 C 
ATOM      4  C   UNL     1      33.003 -20.756 -19.900  0.00  0.00    -0.000 C 
ATOM      5  C   UNL     1      35.395 -21.095 -19.902  0.00  0.00    -0.000 C 
ATOM      6  C   UNL     1      34.126 -21.444 -19.442  0.00  0.00    -0.000 C 
ENDROOT
BRANCH   1   7
ATOM      7  C   UNL     1      34.575 -18.257 -22.264  0.00  0.00    +0.184 C 
BRANCH   7   8
ATOM      8  S   UNL     1      34.498 -16.682 -21.470  0.00  0.00    +0.027 S 
ATOM      9  O   UNL     1      35.234 -15.819 -22.642  0.00  0.00    -0.069 OA
ATOM     10  O   UNL     1      35.354 -16.703 -20.298  0.00  0.00    -0.069 OA
ATOM     11  O   UNL     1      33.110 -16.267 -21.388  0.00  0.00    -0.069 OA
ENDBRANCH   7   8
ENDBRANCH   1   7
TORSDOF 2
ENDMDL
MODEL 3
REMARK VINA RESULT:      -6.4      1.175      2.056
REMARK  Name = 7532
REMARK  2 active torsions:
REMARK  status: ('A' for Active; 'I' for Inactive)
REMARK    1  A    between atoms: C_1  and  C_7
REMARK    2  A    between atoms: C_7  and  S_8
REMARK                            x       y       z     vdW  Elec       q    Type
REMARK                         _______ _______ _______ _____ _____    ______ ____
ROOT
ATOM      1  C   UNL     1      34.365 -20.051 -20.859  0.00  0.00    +0.002 C 
ATOM      2  C   UNL     1      33.242 -20.575 -20.217  0.00  0.00    -0.003 C 
ATOM      3  C   UNL     1      35.637 -20.517 -20.530  0.00  0.00    -0.003 C 
ATOM      4  C   UNL     1      33.393 -21.565 -19.246  0.00  0.00    -0.000 C 
ATOM      5  C   UNL     1      35.788 -21.506 -19.558  0.00  0.00    -0.000 C 
ATOM      6  C   UNL     1      34.665 -22.030 -18.916  0.00  0.00    -0.000 C 
ENDROOT
BRANCH   1   7
ATOM      7  C   UNL     1      34.203 -18.993 -21.898  0.00  0.00    +0.184 C 
BRANCH   7   8
ATOM      8  S   UNL     1      35.457 -17.760 -21.758  0.00  0.00    +0.027 S 
ATOM      9  O   UNL     1      34.832 -16.699 -22.827  0.00  0.00    -0.069 OA
ATOM     10  O   UNL     1      36.698 -18.287 -22.295  0.00  0.00    -0.069 OA
ATOM     11  O   UNL     1      35.393 -17.176 -20.430  0.00  0.00    -0.069 OA
ENDBRANCH   7   8
ENDBRANCH   1   7
TORSDOF 2
ENDMDL
MODEL 4
REMARK VINA RESULT:      -6.3      8.222      9.089
REMARK  Name = 7532
REMARK  2 active torsions:
REMARK  status: ('A' for Active; 'I' for Inactive)
REMARK    1  A    between atoms: C_1  and  C_7
REMARK    2  A    between atoms: C_7  and  S_8
REMARK                            x       y       z     vdW  Elec       q    Type
REMARK                         _______ _______ _______ _____ _____    ______ ____
ROOT
ATOM      1  C   UNL     1      30.060 -23.308 -15.577  0.00  0.00    +0.002 C 
ATOM      2  C   UNL     1      30.953 -22.725 -14.677  0.00  0.00    -0.003 C 
ATOM      3  C   UNL     1      29.782 -24.672 -15.498  0.00  0.00    -0.003 C 
ATOM      4  C   UNL     1      31.567 -23.507 -13.699  0.00  0.00    -0.000 C 
ATOM      5  C   UNL     1      30.397 -25.454 -14.520  0.00  0.00    -0.000 C 
ATOM      6  C   UNL     1      31.289 -24.871 -13.621  0.00  0.00    -0.000 C 
ENDROOT
BRANCH   1   7
ATOM      7  C   UNL     1      29.404 -22.472 -16.623  0.00  0.00    +0.184 C 
BRANCH   7   8
ATOM      8  S   UNL     1      27.671 -22.796 -16.708  0.00  0.00    +0.027 S 
ATOM      9  O   UNL     1      27.234 -21.416 -17.461  0.00  0.00    -0.069 OA
ATOM     10  O   UNL     1      27.123 -22.787 -15.364  0.00  0.00    -0.069 OA
ATOM     11  O   UNL     1      27.447 -23.910 -17.611  0.00  0.00    -0.069 OA
ENDBRANCH   7   8
ENDBRANCH   1   7
TORSDOF 2
ENDMDL
MODEL 5
REMARK VINA RESULT:      -6.3      7.589      8.840
REMARK  Name = 7532
REMARK  2 active torsions:
REMARK  status: ('A' for Active; 'I' for Inactive)
REMARK    1  A    between atoms: C_1  and  C_7
REMARK    2  A    between atoms: C_7  and  S_8
REMARK                            x       y       z     vdW  Elec       q    Type
REMARK                         _______ _______ _______ _____ _____    ______ ____
ROOT
ATOM      1  C   UNL     1      30.155 -23.794 -15.331  0.00  0.00    +0.002 C 
ATOM      2  C   UNL     1      30.539 -23.482 -14.026  0.00  0.00    -0.003 C 
ATOM      3  C   UNL     1      31.095 -23.760 -16.361  0.00  0.00    -0.003 C 
ATOM      4  C   UNL     1      31.862 -23.135 -13.752  0.00  0.00    -0.000 C 
ATOM      5  C   UNL     1      32.418 -23.412 -16.087  0.00  0.00    -0.000 C 
ATOM      6  C   UNL     1      32.801 -23.100 -14.782  0.00  0.00    -0.000 C 
ENDROOT
BRANCH   1   7
ATOM      7  C   UNL     1      28.741 -24.166 -15.623  0.00  0.00    +0.184 C 
BRANCH   7   8
ATOM      8  S   UNL     1      27.905 -22.875 -16.489  0.00  0.00    +0.027 S 
ATOM      9  O   UNL     1      27.455 -23.751 -17.790  0.00  0.00    -0.069 OA
ATOM     10  O   UNL     1      28.877 -21.883 -16.908  0.00  0.00    -0.069 OA
ATOM     11  O   UNL     1      26.716 -22.505 -15.743  0.00  0.00    -0.069 OA
ENDBRANCH   7   8
ENDBRANCH   1   7
TORSDOF 2
ENDMDL
MODEL 6
REMARK VINA RESULT:      -6.2      4.495      5.471
REMARK  Name = 7532
REMARK  2 active torsions:
REMARK  status: ('A' for Active; 'I' for Inactive)
REMARK    1  A    between atoms: C_1  and  C_7
REMARK    2  A    between atoms: C_7  and  S_8
REMARK                            x       y       z     vdW  Elec       q    Type
REMARK                         _______ _______ _______ _____ _____    ______ ____
ROOT
ATOM      1  C   UNL     1      34.751 -20.980 -19.711  0.00  0.00    +0.002 C 
ATOM      2  C   UNL     1      33.423 -20.683 -20.017  0.00  0.00    -0.003 C 
ATOM      3  C   UNL     1      35.784 -20.365 -20.418  0.00  0.00    -0.003 C 
ATOM      4  C   UNL     1      33.128 -19.771 -21.030  0.00  0.00    -0.000 C 
ATOM      5  C   UNL     1      35.489 -19.454 -21.432  0.00  0.00    -0.000 C 
ATOM      6  C   UNL     1      34.161 -19.157 -21.737  0.00  0.00    -0.000 C 
ENDROOT
BRANCH   1   7
ATOM      7  C   UNL     1      35.066 -21.955 -18.627  0.00  0.00    +0.184 C 
BRANCH   7   8
ATOM      8  S   UNL     1      33.792 -23.166 -18.464  0.00  0.00    +0.027 S 
ATOM      9  O   UNL     1      34.350 -23.879 -17.107  0.00  0.00    -0.069 OA
ATOM     10  O   UNL     1      33.896 -24.109 -19.563  0.00  0.00    -0.069 OA
ATOM     11  O   UNL     1      32.543 -22.493 -18.158  0.00  0.00    -0.069 OA
ENDBRANCH   7   8
ENDBRANCH   1   7
TORSDOF 2
ENDMDL
MODEL 7
REMARK VINA RESULT:      -6.0     10.039     11.056
REMARK  Name = 7532
REMARK  2 active torsions:
REMARK  status: ('A' for Active; 'I' for Inactive)
REMARK    1  A    between atoms: C_1  and  C_7
REMARK    2  A    between atoms: C_7  and  S_8
REMARK                            x       y       z     vdW  Elec       q    Type
REMARK                         _______ _______ _______ _____ _____    ______ ____
ROOT
ATOM      1  C   UNL     1      38.020 -25.174 -13.667  0.00  0.00    +0.002 C 
ATOM      2  C   UNL     1      37.236 -24.278 -14.395  0.00  0.00    -0.003 C 
ATOM      3  C   UNL     1      38.105 -25.059 -12.280  0.00  0.00    -0.003 C 
ATOM      4  C   UNL     1      36.539 -23.266 -13.735  0.00  0.00    -0.000 C 
ATOM      5  C   UNL     1      37.408 -24.047 -11.620  0.00  0.00    -0.000 C 
ATOM      6  C   UNL     1      36.626 -23.151 -12.348  0.00  0.00    -0.000 C 
ENDROOT
BRANCH   1   7
ATOM      7  C   UNL     1      38.764 -26.257 -14.374  0.00  0.00    +0.184 C 
BRANCH   7   8
ATOM      8  S   UNL     1      40.487 -25.889 -14.474  0.00  0.00    +0.027 S 
ATOM      9  O   UNL     1      40.641 -26.035 -16.091  0.00  0.00    -0.069 OA
ATOM     10  O   UNL     1      41.235 -26.957 -13.836  0.00  0.00    -0.069 OA
ATOM     11  O   UNL     1      40.691 -24.499 -14.110  0.00  0.00    -0.069 OA
ENDBRANCH   7   8
ENDBRANCH   1   7
TORSDOF 2
ENDMDL
MODEL 8
REMARK VINA RESULT:      -5.8      3.354      5.091
REMARK  Name = 7532
REMARK  2 active torsions:
REMARK  status: ('A' for Active; 'I' for Inactive)
REMARK    1  A    between atoms: C_1  and  C_7
REMARK    2  A    between atoms: C_7  and  S_8
REMARK                            x       y       z     vdW  Elec       q    Type
REMARK                         _______ _______ _______ _____ _____    ______ ____
ROOT
ATOM      1  C   UNL     1      34.970 -16.611 -23.540  0.00  0.00    +0.002 C 
ATOM      2  C   UNL     1      34.538 -17.040 -24.796  0.00  0.00    -0.003 C 
ATOM      3  C   UNL     1      34.611 -15.346 -23.075  0.00  0.00    -0.003 C 
ATOM      4  C   UNL     1      33.748 -16.204 -25.585  0.00  0.00    -0.000 C 
ATOM      5  C   UNL     1      33.822 -14.510 -23.864  0.00  0.00    -0.000 C 
ATOM      6  C   UNL     1      33.391 -14.940 -25.119  0.00  0.00    -0.000 C 
ENDROOT
BRANCH   1   7
ATOM      7  C   UNL     1      35.814 -17.506 -22.697  0.00  0.00    +0.184 C 
BRANCH   7   8
ATOM      8  S   UNL     1      35.074 -17.785 -21.119  0.00  0.00    +0.027 S 
ATOM      9  O   UNL     1      36.140 -18.895 -20.579  0.00  0.00    -0.069 OA
ATOM     10  O   UNL     1      33.787 -18.428 -21.310  0.00  0.00    -0.069 OA
ATOM     11  O   UNL     1      35.209 -16.581 -20.319  0.00  0.00    -0.069 OA
ENDBRANCH   7   8
ENDBRANCH   1   7
TORSDOF 2
ENDMDL
MODEL 9
REMARK VINA RESULT:      -5.8      2.916      3.995
REMARK  Name = 7532
REMARK  2 active torsions:
REMARK  status: ('A' for Active; 'I' for Inactive)
REMARK    1  A    between atoms: C_1  and  C_7
REMARK    2  A    between atoms: C_7  and  S_8
REMARK                            x       y       z     vdW  Elec       q    Type
REMARK                         _______ _______ _______ _____ _____    ______ ____
ROOT
ATOM      1  C   UNL     1      34.738 -16.054 -22.200  0.00  0.00    +0.002 C 
ATOM      2  C   UNL     1      34.755 -16.295 -23.574  0.00  0.00    -0.003 C 
ATOM      3  C   UNL     1      35.050 -17.080 -21.308  0.00  0.00    -0.003 C 
ATOM      4  C   UNL     1      35.081 -17.563 -24.056  0.00  0.00    -0.000 C 
ATOM      5  C   UNL     1      35.376 -18.348 -21.790  0.00  0.00    -0.000 C 
ATOM      6  C   UNL     1      35.392 -18.589 -23.164  0.00  0.00    -0.000 C 
ENDROOT
BRANCH   1   7
ATOM      7  C   UNL     1      34.389 -14.698 -21.685  0.00  0.00    +0.184 C 
BRANCH   7   8
ATOM      8  S   UNL     1      32.645 -14.433 -21.710  0.00  0.00    +0.027 S 
ATOM      9  O   UNL     1      32.580 -13.338 -20.503  0.00  0.00    -0.069 OA
ATOM     10  O   UNL     1      31.977 -15.646 -21.275  0.00  0.00    -0.069 OA
ATOM     11  O   UNL     1      32.289 -13.776 -22.954  0.00  0.00    -0.069 OA
ENDBRANCH   7   8
ENDBRANCH   1   7
TORSDOF 2
ENDMDL
