MODEL 1
REMARK VINA RESULT:      -8.4      0.000      0.000
REMARK  Name = 48194
REMARK  8 active torsions:
REMARK  status: ('A' for Active; 'I' for Inactive)
REMARK    1  A    between atoms: C_1  and  C_2
REMARK    2  A    between atoms: C_1  and  C_8
REMARK    3  A    between atoms: C_1  and  C_15
REMARK    4  A    between atoms: C_1  and  C_19
REMARK    5  A    between atoms: C_15  and  O_16
REMARK    6  A    between atoms: O_16  and  C_17
REMARK    7  A    between atoms: C_19  and  C_20
REMARK    8  A    between atoms: C_20  and  N_22
REMARK                            x       y       z     vdW  Elec       q    Type
REMARK                         _______ _______ _______ _____ _____    ______ ____
ROOT
ATOM      1  C   UNL     1      35.717 -24.679 -14.633  0.00  0.00    +0.125 C 
ENDROOT
BRANCH   1   2
ATOM      2  C   UNL     1      36.090 -24.166 -13.216  0.00  0.00    -0.009 C 
ATOM      3  C   UNL     1      35.461 -24.735 -12.147  0.00  0.00    -0.003 C 
ATOM      4  C   UNL     1      37.025 -23.175 -13.123  0.00  0.00    -0.003 C 
ATOM      5  C   UNL     1      35.796 -24.275 -10.873  0.00  0.00    -0.000 C 
ATOM      6  C   UNL     1      37.360 -22.715 -11.850  0.00  0.00    -0.000 C 
ATOM      7  C   UNL     1      36.745 -23.265 -10.725  0.00  0.00    -0.000 C 
ENDBRANCH   1   2
BRANCH   1   8
ATOM      8  C   UNL     1      36.132 -23.571 -15.643  0.00  0.00    -0.009 C 
ATOM      9  C   UNL     1      35.167 -23.073 -16.469  0.00  0.00    -0.003 C 
ATOM     10  C   UNL     1      37.435 -23.166 -15.639  0.00  0.00    -0.003 C 
ATOM     11  C   UNL     1      35.540 -22.079 -17.374  0.00  0.00    -0.000 C 
ATOM     12  C   UNL     1      37.806 -22.172 -16.544  0.00  0.00    -0.000 C 
ATOM     13  C   UNL     1      36.859 -21.629 -17.412  0.00  0.00    -0.000 C 
ENDBRANCH   1   8
BRANCH   1  15
ATOM     14  O   UNL     1      36.165 -26.735 -15.929  0.00  0.00    -0.249 OA
ATOM     15  C   UNL     1      36.425 -26.023 -14.965  0.00  0.00    +0.324 C 
BRANCH  15  16
ATOM     16  O   UNL     1      37.437 -26.266 -14.074  0.00  0.00    -0.448 OA
BRANCH  16  17
ATOM     17  C   UNL     1      38.753 -26.330 -14.631  0.00  0.00    +0.209 C 
ATOM     18  C   UNL     1      39.692 -25.511 -13.772  0.00  0.00    +0.051 C 
ENDBRANCH  16  17
ENDBRANCH  15  16
ENDBRANCH   1  15
BRANCH   1  19
ATOM     19  C   UNL     1      34.185 -25.041 -14.779  0.00  0.00    -0.004 C 
BRANCH  19  20
ATOM     20  C   UNL     1      33.201 -23.973 -14.270  0.00  0.00    -0.076 C 
BRANCH  20  22
ATOM     21  O   UNL     1      29.065 -23.981 -14.982  0.00  0.00    -0.358 OA
ATOM     22  N   UNL     1      31.907 -24.129 -14.931  0.00  0.00    +0.390 N 
ATOM     23  C   UNL     1      31.073 -25.108 -14.221  0.00  0.00    -0.045 C 
ATOM     24  C   UNL     1      31.207 -22.840 -15.018  0.00  0.00    -0.045 C 
ATOM     25  C   UNL     1      29.725 -25.246 -14.922  0.00  0.00    +0.119 C 
ATOM     26  C   UNL     1      29.854 -23.030 -15.699  0.00  0.00    +0.119 C 
ATOM     27  H   UNL     1      32.078 -24.472 -15.877  0.00  0.00    -0.079 HD
ENDBRANCH  20  22
ENDBRANCH  19  20
ENDBRANCH   1  19
TORSDOF 8
ENDMDL
MODEL 2
REMARK VINA RESULT:      -7.6      2.175      5.014
REMARK  Name = 48194
REMARK  8 active torsions:
REMARK  status: ('A' for Active; 'I' for Inactive)
REMARK    1  A    between atoms: C_1  and  C_2
REMARK    2  A    between atoms: C_1  and  C_8
REMARK    3  A    between atoms: C_1  and  C_15
REMARK    4  A    between atoms: C_1  and  C_19
REMARK    5  A    between atoms: C_15  and  O_16
REMARK    6  A    between atoms: O_16  and  C_17
REMARK    7  A    between atoms: C_19  and  C_20
REMARK    8  A    between atoms: C_20  and  N_22
REMARK                            x       y       z     vdW  Elec       q    Type
REMARK                         _______ _______ _______ _____ _____    ______ ____
ROOT
ATOM      1  C   UNL     1      35.001 -23.760 -14.608  0.00  0.00    +0.125 C 
ENDROOT
BRANCH   1   2
ATOM      2  C   UNL     1      33.458 -23.831 -14.448  0.00  0.00    -0.009 C 
ATOM      3  C   UNL     1      32.933 -24.925 -13.823  0.00  0.00    -0.003 C 
ATOM      4  C   UNL     1      32.718 -22.795 -14.942  0.00  0.00    -0.003 C 
ATOM      5  C   UNL     1      31.547 -24.989 -13.678  0.00  0.00    -0.000 C 
ATOM      6  C   UNL     1      31.333 -22.859 -14.797  0.00  0.00    -0.000 C 
ATOM      7  C   UNL     1      30.747 -23.956 -14.165  0.00  0.00    -0.000 C 
ENDBRANCH   1   2
BRANCH   1   8
ATOM      8  C   UNL     1      35.607 -23.712 -13.176  0.00  0.00    -0.009 C 
ATOM      9  C   UNL     1      36.720 -22.948 -12.986  0.00  0.00    -0.003 C 
ATOM     10  C   UNL     1      34.986 -24.437 -12.202  0.00  0.00    -0.003 C 
ATOM     11  C   UNL     1      37.264 -22.905 -11.701  0.00  0.00    -0.000 C 
ATOM     12  C   UNL     1      35.529 -24.393 -10.918  0.00  0.00    -0.000 C 
ATOM     13  C   UNL     1      36.669 -23.627 -10.668  0.00  0.00    -0.000 C 
ENDBRANCH   1   8
BRANCH   1  15
ATOM     14  O   UNL     1      34.889 -25.694 -16.143  0.00  0.00    -0.249 OA
ATOM     15  C   UNL     1      35.555 -24.977 -15.403  0.00  0.00    +0.324 C 
BRANCH  15  16
ATOM     16  O   UNL     1      36.908 -25.091 -15.227  0.00  0.00    -0.448 OA
BRANCH  16  17
ATOM     17  C   UNL     1      37.401 -26.420 -15.037  0.00  0.00    +0.209 C 
ATOM     18  C   UNL     1      37.380 -26.747 -13.559  0.00  0.00    +0.051 C 
ENDBRANCH  16  17
ENDBRANCH  15  16
ENDBRANCH   1  15
BRANCH   1  19
ATOM     19  C   UNL     1      35.479 -22.526 -15.474  0.00  0.00    -0.004 C 
BRANCH  19  20
ATOM     20  C   UNL     1      35.953 -22.862 -16.899  0.00  0.00    -0.076 C 
BRANCH  20  22
ATOM     21  O   UNL     1      34.450 -21.243 -20.467  0.00  0.00    -0.358 OA
ATOM     22  N   UNL     1      35.350 -21.939 -17.858  0.00  0.00    +0.390 N 
ATOM     23  C   UNL     1      36.295 -21.618 -18.937  0.00  0.00    -0.045 C 
ATOM     24  C   UNL     1      34.116 -22.504 -18.421  0.00  0.00    -0.045 C 
ATOM     25  C   UNL     1      35.640 -20.663 -19.931  0.00  0.00    +0.119 C 
ATOM     26  C   UNL     1      33.512 -21.529 -19.428  0.00  0.00    +0.119 C 
ATOM     27  H   UNL     1      35.119 -21.079 -17.361  0.00  0.00    -0.079 HD
ENDBRANCH  20  22
ENDBRANCH  19  20
ENDBRANCH   1  19
TORSDOF 8
ENDMDL
MODEL 3
REMARK VINA RESULT:      -7.5      2.258      5.495
REMARK  Name = 48194
REMARK  8 active torsions:
REMARK  status: ('A' for Active; 'I' for Inactive)
REMARK    1  A    between atoms: C_1  and  C_2
REMARK    2  A    between atoms: C_1  and  C_8
REMARK    3  A    between atoms: C_1  and  C_15
REMARK    4  A    between atoms: C_1  and  C_19
REMARK    5  A    between atoms: C_15  and  O_16
REMARK    6  A    between atoms: O_16  and  C_17
REMARK    7  A    between atoms: C_19  and  C_20
REMARK    8  A    between atoms: C_20  and  N_22
REMARK                            x       y       z     vdW  Elec       q    Type
REMARK                         _______ _______ _______ _____ _____    ______ ____
ROOT
ATOM      1  C   UNL     1      34.415 -24.039 -14.910  0.00  0.00    +0.125 C 
ENDROOT
BRANCH   1   2
ATOM      2  C   UNL     1      32.914 -23.912 -14.535  0.00  0.00    -0.009 C 
ATOM      3  C   UNL     1      32.314 -22.699 -14.713  0.00  0.00    -0.003 C 
ATOM      4  C   UNL     1      32.283 -25.020 -14.048  0.00  0.00    -0.003 C 
ATOM      5  C   UNL     1      30.964 -22.584 -14.376  0.00  0.00    -0.000 C 
ATOM      6  C   UNL     1      30.934 -24.906 -13.711  0.00  0.00    -0.000 C 
ATOM      7  C   UNL     1      30.276 -23.688 -13.875  0.00  0.00    -0.000 C 
ENDBRANCH   1   2
BRANCH   1   8
ATOM      8  C   UNL     1      34.599 -23.353 -16.294  0.00  0.00    -0.009 C 
ATOM      9  C   UNL     1      33.599 -23.500 -17.210  0.00  0.00    -0.003 C 
ATOM     10  C   UNL     1      35.747 -22.648 -16.504  0.00  0.00    -0.003 C 
ATOM     11  C   UNL     1      33.763 -22.885 -18.452  0.00  0.00    -0.000 C 
ATOM     12  C   UNL     1      35.910 -22.033 -17.745  0.00  0.00    -0.000 C 
ATOM     13  C   UNL     1      34.918 -22.152 -18.720  0.00  0.00    -0.000 C 
ENDBRANCH   1   8
BRANCH   1  15
ATOM     14  O   UNL     1      36.278 -22.640 -14.087  0.00  0.00    -0.249 OA
ATOM     15  C   UNL     1      35.334 -23.383 -13.841  0.00  0.00    +0.324 C 
BRANCH  15  16
ATOM     16  O   UNL     1      34.895 -23.683 -12.579  0.00  0.00    -0.448 OA
BRANCH  16  17
ATOM     17  C   UNL     1      35.853 -23.516 -11.530  0.00  0.00    +0.209 C 
ATOM     18  C   UNL     1      35.601 -24.557 -10.460  0.00  0.00    +0.051 C 
ENDBRANCH  16  17
ENDBRANCH  15  16
ENDBRANCH   1  15
BRANCH   1  19
ATOM     19  C   UNL     1      34.922 -25.536 -14.940  0.00  0.00    -0.004 C 
BRANCH  19  20
ATOM     20  C   UNL     1      36.298 -25.755 -15.595  0.00  0.00    -0.076 C 
BRANCH  20  22
ATOM     21  O   UNL     1      39.679 -26.100 -13.132  0.00  0.00    -0.358 OA
ATOM     22  N   UNL     1      37.361 -25.435 -14.645  0.00  0.00    +0.390 N 
ATOM     23  C   UNL     1      37.284 -26.305 -13.464  0.00  0.00    -0.045 C 
ATOM     24  C   UNL     1      38.681 -25.561 -15.278  0.00  0.00    -0.045 C 
ATOM     25  C   UNL     1      38.409 -25.960 -12.492  0.00  0.00    +0.119 C 
ATOM     26  C   UNL     1      39.775 -25.234 -14.264  0.00  0.00    +0.119 C 
ATOM     27  H   UNL     1      37.233 -24.468 -14.347  0.00  0.00    -0.079 HD
ENDBRANCH  20  22
ENDBRANCH  19  20
ENDBRANCH   1  19
TORSDOF 8
ENDMDL
MODEL 4
REMARK VINA RESULT:      -7.0     15.831     18.431
REMARK  Name = 48194
REMARK  8 active torsions:
REMARK  status: ('A' for Active; 'I' for Inactive)
REMARK    1  A    between atoms: C_1  and  C_2
REMARK    2  A    between atoms: C_1  and  C_8
REMARK    3  A    between atoms: C_1  and  C_15
REMARK    4  A    between atoms: C_1  and  C_19
REMARK    5  A    between atoms: C_15  and  O_16
REMARK    6  A    between atoms: O_16  and  C_17
REMARK    7  A    between atoms: C_19  and  C_20
REMARK    8  A    between atoms: C_20  and  N_22
REMARK                            x       y       z     vdW  Elec       q    Type
REMARK                         _______ _______ _______ _____ _____    ______ ____
ROOT
ATOM      1  C   UNL     1      33.007  -7.717 -23.569  0.00  0.00    +0.125 C 
ENDROOT
BRANCH   1   2
ATOM      2  C   UNL     1      32.606  -7.180 -22.168  0.00  0.00    -0.009 C 
ATOM      3  C   UNL     1      31.733  -6.132 -22.114  0.00  0.00    -0.003 C 
ATOM      4  C   UNL     1      33.150  -7.787 -21.073  0.00  0.00    -0.003 C 
ATOM      5  C   UNL     1      31.371  -5.649 -20.856  0.00  0.00    -0.000 C 
ATOM      6  C   UNL     1      32.789  -7.306 -19.815  0.00  0.00    -0.000 C 
ATOM      7  C   UNL     1      31.900  -6.236 -19.707  0.00  0.00    -0.000 C 
ENDBRANCH   1   2
BRANCH   1   8
ATOM      8  C   UNL     1      32.868  -6.532 -24.568  0.00  0.00    -0.009 C 
ATOM      9  C   UNL     1      33.948  -6.229 -25.343  0.00  0.00    -0.003 C 
ATOM     10  C   UNL     1      31.675  -5.872 -24.606  0.00  0.00    -0.003 C 
ATOM     11  C   UNL     1      33.824  -5.167 -26.240  0.00  0.00    -0.000 C 
ATOM     12  C   UNL     1      31.551  -4.811 -25.502  0.00  0.00    -0.000 C 
ATOM     13  C   UNL     1      32.626  -4.458 -26.319  0.00  0.00    -0.000 C 
ENDBRANCH   1   8
BRANCH   1  15
ATOM     14  O   UNL     1      35.455  -7.654 -23.236  0.00  0.00    -0.249 OA
ATOM     15  C   UNL     1      34.457  -8.280 -23.576  0.00  0.00    +0.324 C 
BRANCH  15  16
ATOM     16  O   UNL     1      34.458  -9.601 -23.938  0.00  0.00    -0.448 OA
BRANCH  16  17
ATOM     17  C   UNL     1      35.337  -9.951 -25.010  0.00  0.00    +0.209 C 
ATOM     18  C   UNL     1      34.725 -11.089 -25.799  0.00  0.00    +0.051 C 
ENDBRANCH  16  17
ENDBRANCH  15  16
ENDBRANCH   1  15
BRANCH   1  19
ATOM     19  C   UNL     1      32.144  -8.959 -24.028  0.00  0.00    -0.004 C 
BRANCH  19  20
ATOM     20  C   UNL     1      31.244  -9.576 -22.944  0.00  0.00    -0.076 C 
BRANCH  20  22
ATOM     21  O   UNL     1      32.041 -13.416 -21.450  0.00  0.00    -0.358 OA
ATOM     22  N   UNL     1      31.922 -10.706 -22.314  0.00  0.00    +0.390 N 
ATOM     23  C   UNL     1      31.176 -11.172 -21.136  0.00  0.00    -0.045 C 
ATOM     24  C   UNL     1      32.094 -11.810 -23.268  0.00  0.00    -0.045 C 
ATOM     25  C   UNL     1      31.897 -12.357 -20.501  0.00  0.00    +0.119 C 
ATOM     26  C   UNL     1      32.793 -12.982 -22.585  0.00  0.00    +0.119 C 
ATOM     27  H   UNL     1      32.843 -10.389 -22.011  0.00  0.00    -0.079 HD
ENDBRANCH  20  22
ENDBRANCH  19  20
ENDBRANCH   1  19
TORSDOF 8
ENDMDL
MODEL 5
REMARK VINA RESULT:      -7.0     16.263     19.070
REMARK  Name = 48194
REMARK  8 active torsions:
REMARK  status: ('A' for Active; 'I' for Inactive)
REMARK    1  A    between atoms: C_1  and  C_2
REMARK    2  A    between atoms: C_1  and  C_8
REMARK    3  A    between atoms: C_1  and  C_15
REMARK    4  A    between atoms: C_1  and  C_19
REMARK    5  A    between atoms: C_15  and  O_16
REMARK    6  A    between atoms: O_16  and  C_17
REMARK    7  A    between atoms: C_19  and  C_20
REMARK    8  A    between atoms: C_20  and  N_22
REMARK                            x       y       z     vdW  Elec       q    Type
REMARK                         _______ _______ _______ _____ _____    ______ ____
ROOT
ATOM      1  C   UNL     1      32.769  -8.870 -23.246  0.00  0.00    +0.125 C 
ENDROOT
BRANCH   1   2
ATOM      2  C   UNL     1      33.229 -10.231 -23.834  0.00  0.00    -0.009 C 
ATOM      3  C   UNL     1      32.846 -11.368 -23.183  0.00  0.00    -0.003 C 
ATOM      4  C   UNL     1      33.989 -10.211 -24.968  0.00  0.00    -0.003 C 
ATOM      5  C   UNL     1      33.258 -12.592 -23.711  0.00  0.00    -0.000 C 
ATOM      6  C   UNL     1      34.402 -11.434 -25.497  0.00  0.00    -0.000 C 
ATOM      7  C   UNL     1      34.037 -12.624 -24.868  0.00  0.00    -0.000 C 
ENDBRANCH   1   2
BRANCH   1   8
ATOM      8  C   UNL     1      32.326  -9.134 -21.778  0.00  0.00    -0.009 C 
ATOM      9  C   UNL     1      31.613 -10.269 -21.527  0.00  0.00    -0.003 C 
ATOM     10  C   UNL     1      32.678  -8.214 -20.835  0.00  0.00    -0.003 C 
ATOM     11  C   UNL     1      31.215 -10.507 -20.211  0.00  0.00    -0.000 C 
ATOM     12  C   UNL     1      32.281  -8.452 -19.520  0.00  0.00    -0.000 C 
ATOM     13  C   UNL     1      31.549  -9.599 -19.208  0.00  0.00    -0.000 C 
ENDBRANCH   1   8
BRANCH   1  15
ATOM     14  O   UNL     1      34.931  -7.843 -22.632  0.00  0.00    -0.249 OA
ATOM     15  C   UNL     1      33.902  -7.807 -23.299  0.00  0.00    +0.324 C 
BRANCH  15  16
ATOM     16  O   UNL     1      33.632  -6.863 -24.255  0.00  0.00    -0.448 OA
BRANCH  16  17
ATOM     17  C   UNL     1      34.719  -6.528 -25.122  0.00  0.00    +0.209 C 
ATOM     18  C   UNL     1      34.232  -5.544 -26.165  0.00  0.00    +0.051 C 
ENDBRANCH  16  17
ENDBRANCH  15  16
ENDBRANCH   1  15
BRANCH   1  19
ATOM     19  C   UNL     1      31.610  -8.193 -24.081  0.00  0.00    -0.004 C 
BRANCH  19  20
ATOM     20  C   UNL     1      30.683  -7.256 -23.287  0.00  0.00    -0.076 C 
BRANCH  20  22
ATOM     21  O   UNL     1      30.607  -3.097 -23.843  0.00  0.00    -0.358 OA
ATOM     22  N   UNL     1      31.115  -5.869 -23.448  0.00  0.00    +0.390 N 
ATOM     23  C   UNL     1      30.701  -5.342 -24.756  0.00  0.00    -0.045 C 
ATOM     24  C   UNL     1      30.577  -5.026 -22.372  0.00  0.00    -0.045 C 
ATOM     25  C   UNL     1      31.153  -3.892 -24.897  0.00  0.00    +0.119 C 
ATOM     26  C   UNL     1      31.031  -3.582 -22.569  0.00  0.00    +0.119 C 
ATOM     27  H   UNL     1      32.134  -5.852 -23.398  0.00  0.00    -0.079 HD
ENDBRANCH  20  22
ENDBRANCH  19  20
ENDBRANCH   1  19
TORSDOF 8
ENDMDL
MODEL 6
REMARK VINA RESULT:      -6.8     16.378     19.343
REMARK  Name = 48194
REMARK  8 active torsions:
REMARK  status: ('A' for Active; 'I' for Inactive)
REMARK    1  A    between atoms: C_1  and  C_2
REMARK    2  A    between atoms: C_1  and  C_8
REMARK    3  A    between atoms: C_1  and  C_15
REMARK    4  A    between atoms: C_1  and  C_19
REMARK    5  A    between atoms: C_15  and  O_16
REMARK    6  A    between atoms: O_16  and  C_17
REMARK    7  A    between atoms: C_19  and  C_20
REMARK    8  A    between atoms: C_20  and  N_22
REMARK                            x       y       z     vdW  Elec       q    Type
REMARK                         _______ _______ _______ _____ _____    ______ ____
ROOT
ATOM      1  C   UNL     1      32.433  -8.530 -22.587  0.00  0.00    +0.125 C 
ENDROOT
BRANCH   1   2
ATOM      2  C   UNL     1      33.345  -9.338 -23.549  0.00  0.00    -0.009 C 
ATOM      3  C   UNL     1      34.466  -8.724 -24.029  0.00  0.00    -0.003 C 
ATOM      4  C   UNL     1      32.972 -10.614 -23.860  0.00  0.00    -0.003 C 
ATOM      5  C   UNL     1      35.286  -9.450 -24.894  0.00  0.00    -0.000 C 
ATOM      6  C   UNL     1      33.791 -11.340 -24.724  0.00  0.00    -0.000 C 
ATOM      7  C   UNL     1      34.948 -10.757 -25.241  0.00  0.00    -0.000 C 
ENDBRANCH   1   2
BRANCH   1   8
ATOM      8  C   UNL     1      31.936  -9.518 -21.493  0.00  0.00    -0.009 C 
ATOM      9  C   UNL     1      32.296  -9.265 -20.202  0.00  0.00    -0.003 C 
ATOM     10  C   UNL     1      31.173 -10.575 -21.894  0.00  0.00    -0.003 C 
ATOM     11  C   UNL     1      31.850 -10.151 -19.220  0.00  0.00    -0.000 C 
ATOM     12  C   UNL     1      30.727 -11.460 -20.912  0.00  0.00    -0.000 C 
ATOM     13  C   UNL     1      31.066 -11.248 -19.575  0.00  0.00    -0.000 C 
ENDBRANCH   1   8
BRANCH   1  15
ATOM     14  O   UNL     1      34.330  -7.378 -21.498  0.00  0.00    -0.249 OA
ATOM     15  C   UNL     1      33.189  -7.331 -21.947  0.00  0.00    +0.324 C 
BRANCH  15  16
ATOM     16  O   UNL     1      32.436  -6.190 -22.026  0.00  0.00    -0.448 OA
BRANCH  16  17
ATOM     17  C   UNL     1      31.678  -5.862 -20.858  0.00  0.00    +0.209 C 
ATOM     18  C   UNL     1      30.430  -5.114 -21.273  0.00  0.00    +0.051 C 
ENDBRANCH  16  17
ENDBRANCH  15  16
ENDBRANCH   1  15
BRANCH   1  19
ATOM     19  C   UNL     1      31.220  -7.831 -23.321  0.00  0.00    -0.004 C 
BRANCH  19  20
ATOM     20  C   UNL     1      31.499  -7.364 -24.761  0.00  0.00    -0.076 C 
BRANCH  20  22
ATOM     21  O   UNL     1      32.024  -3.370 -25.937  0.00  0.00    -0.358 OA
ATOM     22  N   UNL     1      31.903  -5.960 -24.762  0.00  0.00    +0.390 N 
ATOM     23  C   UNL     1      32.786  -5.672 -25.901  0.00  0.00    -0.045 C 
ATOM     24  C   UNL     1      30.728  -5.078 -24.802  0.00  0.00    -0.045 C 
ATOM     25  C   UNL     1      33.186  -4.200 -25.888  0.00  0.00    +0.119 C 
ATOM     26  C   UNL     1      31.175  -3.619 -24.816  0.00  0.00    +0.119 C 
ATOM     27  H   UNL     1      32.416  -5.781 -23.899  0.00  0.00    -0.079 HD
ENDBRANCH  20  22
ENDBRANCH  19  20
ENDBRANCH   1  19
TORSDOF 8
ENDMDL
MODEL 7
REMARK VINA RESULT:      -6.7      1.522      4.120
REMARK  Name = 48194
REMARK  8 active torsions:
REMARK  status: ('A' for Active; 'I' for Inactive)
REMARK    1  A    between atoms: C_1  and  C_2
REMARK    2  A    between atoms: C_1  and  C_8
REMARK    3  A    between atoms: C_1  and  C_15
REMARK    4  A    between atoms: C_1  and  C_19
REMARK    5  A    between atoms: C_15  and  O_16
REMARK    6  A    between atoms: O_16  and  C_17
REMARK    7  A    between atoms: C_19  and  C_20
REMARK    8  A    between atoms: C_20  and  N_22
REMARK                            x       y       z     vdW  Elec       q    Type
REMARK                         _______ _______ _______ _____ _____    ______ ____
ROOT
ATOM      1  C   UNL     1      35.776 -23.806 -14.658  0.00  0.00    +0.125 C 
ENDROOT
BRANCH   1   2
ATOM      2  C   UNL     1      35.785 -23.059 -16.019  0.00  0.00    -0.009 C 
ATOM      3  C   UNL     1      34.675 -23.158 -16.807  0.00  0.00    -0.003 C 
ATOM      4  C   UNL     1      36.903 -22.348 -16.349  0.00  0.00    -0.003 C 
ATOM      5  C   UNL     1      34.682 -22.487 -18.031  0.00  0.00    -0.000 C 
ATOM      6  C   UNL     1      36.911 -21.677 -17.571  0.00  0.00    -0.000 C 
ATOM      7  C   UNL     1      35.801 -21.748 -18.412  0.00  0.00    -0.000 C 
ENDBRANCH   1   2
BRANCH   1   8
ATOM      8  C   UNL     1      36.689 -25.055 -14.817  0.00  0.00    -0.009 C 
ATOM      9  C   UNL     1      37.996 -24.935 -14.447  0.00  0.00    -0.003 C 
ATOM     10  C   UNL     1      36.125 -26.192 -15.316  0.00  0.00    -0.003 C 
ATOM     11  C   UNL     1      38.815 -26.055 -14.589  0.00  0.00    -0.000 C 
ATOM     12  C   UNL     1      36.944 -27.312 -15.458  0.00  0.00    -0.000 C 
ATOM     13  C   UNL     1      38.290 -27.243 -15.095  0.00  0.00    -0.000 C 
ENDBRANCH   1   8
BRANCH   1  15
ATOM     14  O   UNL     1      37.083 -21.981 -13.624  0.00  0.00    -0.249 OA
ATOM     15  C   UNL     1      36.278 -22.897 -13.499  0.00  0.00    +0.324 C 
BRANCH  15  16
ATOM     16  O   UNL     1      35.635 -23.209 -12.331  0.00  0.00    -0.448 OA
BRANCH  16  17
ATOM     17  C   UNL     1      36.477 -23.605 -11.244  0.00  0.00    +0.209 C 
ATOM     18  C   UNL     1      35.708 -24.546 -10.341  0.00  0.00    +0.051 C 
ENDBRANCH  16  17
ENDBRANCH  15  16
ENDBRANCH   1  15
BRANCH   1  19
ATOM     19  C   UNL     1      34.324 -24.213 -14.183  0.00  0.00    -0.004 C 
BRANCH  19  20
ATOM     20  C   UNL     1      33.229 -23.159 -14.425  0.00  0.00    -0.076 C 
BRANCH  20  22
ATOM     21  O   UNL     1      29.268 -24.450 -14.932  0.00  0.00    -0.358 OA
ATOM     22  N   UNL     1      32.037 -23.795 -14.983  0.00  0.00    +0.390 N 
ATOM     23  C   UNL     1      31.503 -24.804 -14.059  0.00  0.00    -0.045 C 
ATOM     24  C   UNL     1      31.005 -22.793 -15.286  0.00  0.00    -0.045 C 
ATOM     25  C   UNL     1      30.255 -25.446 -14.658  0.00  0.00    +0.119 C 
ATOM     26  C   UNL     1      29.768 -23.481 -15.856  0.00  0.00    +0.119 C 
ATOM     27  H   UNL     1      32.308 -24.258 -15.851  0.00  0.00    -0.079 HD
ENDBRANCH  20  22
ENDBRANCH  19  20
ENDBRANCH   1  19
TORSDOF 8
ENDMDL
MODEL 8
REMARK VINA RESULT:      -6.7     15.456     18.058
REMARK  Name = 48194
REMARK  8 active torsions:
REMARK  status: ('A' for Active; 'I' for Inactive)
REMARK    1  A    between atoms: C_1  and  C_2
REMARK    2  A    between atoms: C_1  and  C_8
REMARK    3  A    between atoms: C_1  and  C_15
REMARK    4  A    between atoms: C_1  and  C_19
REMARK    5  A    between atoms: C_15  and  O_16
REMARK    6  A    between atoms: O_16  and  C_17
REMARK    7  A    between atoms: C_19  and  C_20
REMARK    8  A    between atoms: C_20  and  N_22
REMARK                            x       y       z     vdW  Elec       q    Type
REMARK                         _______ _______ _______ _____ _____    ______ ____
ROOT
ATOM      1  C   UNL     1      32.939  -8.069 -23.359  0.00  0.00    +0.125 C 
ENDROOT
BRANCH   1   2
ATOM      2  C   UNL     1      32.592  -7.759 -21.878  0.00  0.00    -0.009 C 
ATOM      3  C   UNL     1      32.539  -8.805 -21.004  0.00  0.00    -0.003 C 
ATOM      4  C   UNL     1      32.360  -6.457 -21.537  0.00  0.00    -0.003 C 
ATOM      5  C   UNL     1      32.228  -8.527 -19.672  0.00  0.00    -0.000 C 
ATOM      6  C   UNL     1      32.049  -6.178 -20.207  0.00  0.00    -0.000 C 
ATOM      7  C   UNL     1      31.982  -7.214 -19.275  0.00  0.00    -0.000 C 
ENDBRANCH   1   2
BRANCH   1   8
ATOM      8  C   UNL     1      32.529  -6.823 -24.194  0.00  0.00    -0.009 C 
ATOM      9  C   UNL     1      33.474  -6.265 -25.004  0.00  0.00    -0.003 C 
ATOM     10  C   UNL     1      31.250  -6.367 -24.065  0.00  0.00    -0.003 C 
ATOM     11  C   UNL     1      33.106  -5.147 -25.754  0.00  0.00    -0.000 C 
ATOM     12  C   UNL     1      30.883  -5.250 -24.814  0.00  0.00    -0.000 C 
ATOM     13  C   UNL     1      31.811  -4.639 -25.659  0.00  0.00    -0.000 C 
ENDBRANCH   1   8
BRANCH   1  15
ATOM     14  O   UNL     1      35.369  -7.647 -23.204  0.00  0.00    -0.249 OA
ATOM     15  C   UNL     1      34.451  -8.386 -23.543  0.00  0.00    +0.324 C 
BRANCH  15  16
ATOM     16  O   UNL     1      34.620  -9.641 -24.064  0.00  0.00    -0.448 OA
BRANCH  16  17
ATOM     17  C   UNL     1      35.536  -9.743 -25.157  0.00  0.00    +0.209 C 
ATOM     18  C   UNL     1      35.086 -10.857 -26.077  0.00  0.00    +0.051 C 
ENDBRANCH  16  17
ENDBRANCH  15  16
ENDBRANCH   1  15
BRANCH   1  19
ATOM     19  C   UNL     1      32.237  -9.378 -23.900  0.00  0.00    -0.004 C 
BRANCH  19  20
ATOM     20  C   UNL     1      31.554 -10.252 -22.833  0.00  0.00    -0.076 C 
BRANCH  20  22
ATOM     21  O   UNL     1      32.745 -14.273 -22.671  0.00  0.00    -0.358 OA
ATOM     22  N   UNL     1      32.345 -11.456 -22.590  0.00  0.00    +0.390 N 
ATOM     23  C   UNL     1      31.650 -12.357 -21.661  0.00  0.00    -0.045 C 
ATOM     24  C   UNL     1      32.633 -12.155 -23.850  0.00  0.00    -0.045 C 
ATOM     25  C   UNL     1      32.490 -13.611 -21.430  0.00  0.00    +0.119 C 
ATOM     26  C   UNL     1      33.449 -13.414 -23.569  0.00  0.00    +0.119 C 
ATOM     27  H   UNL     1      33.228 -11.169 -22.166  0.00  0.00    -0.079 HD
ENDBRANCH  20  22
ENDBRANCH  19  20
ENDBRANCH   1  19
TORSDOF 8
ENDMDL
MODEL 9
REMARK VINA RESULT:      -6.7      2.450      5.134
REMARK  Name = 48194
REMARK  8 active torsions:
REMARK  status: ('A' for Active; 'I' for Inactive)
REMARK    1  A    between atoms: C_1  and  C_2
REMARK    2  A    between atoms: C_1  and  C_8
REMARK    3  A    between atoms: C_1  and  C_15
REMARK    4  A    between atoms: C_1  and  C_19
REMARK    5  A    between atoms: C_15  and  O_16
REMARK    6  A    between atoms: O_16  and  C_17
REMARK    7  A    between atoms: C_19  and  C_20
REMARK    8  A    between atoms: C_20  and  N_22
REMARK                            x       y       z     vdW  Elec       q    Type
REMARK                         _______ _______ _______ _____ _____    ______ ____
ROOT
ATOM      1  C   UNL     1      35.127 -23.764 -13.969  0.00  0.00    +0.125 C 
ENDROOT
BRANCH   1   2
ATOM      2  C   UNL     1      35.851 -25.091 -14.325  0.00  0.00    -0.009 C 
ATOM      3  C   UNL     1      36.672 -25.641 -13.385  0.00  0.00    -0.003 C 
ATOM      4  C   UNL     1      35.623 -25.629 -15.560  0.00  0.00    -0.003 C 
ATOM      5  C   UNL     1      37.322 -26.834 -13.704  0.00  0.00    -0.000 C 
ATOM      6  C   UNL     1      36.272 -26.821 -15.880  0.00  0.00    -0.000 C 
ATOM      7  C   UNL     1      37.122 -27.423 -14.952  0.00  0.00    -0.000 C 
ENDBRANCH   1   2
BRANCH   1   8
ATOM      8  C   UNL     1      33.610 -23.990 -14.224  0.00  0.00    -0.009 C 
ATOM      9  C   UNL     1      33.005 -25.024 -13.573  0.00  0.00    -0.003 C 
ATOM     10  C   UNL     1      32.979 -23.139 -15.084  0.00  0.00    -0.003 C 
ATOM     11  C   UNL     1      31.644 -25.227 -13.801  0.00  0.00    -0.000 C 
ATOM     12  C   UNL     1      31.618 -23.342 -15.312  0.00  0.00    -0.000 C 
ATOM     13  C   UNL     1      30.950 -24.386 -14.671  0.00  0.00    -0.000 C 
ENDBRANCH   1   8
BRANCH   1  15
ATOM     14  O   UNL     1      34.700 -23.693 -11.536  0.00  0.00    -0.249 OA
ATOM     15  C   UNL     1      35.384 -23.347 -12.493  0.00  0.00    +0.324 C 
BRANCH  15  16
ATOM     16  O   UNL     1      36.530 -22.602 -12.396  0.00  0.00    -0.448 OA
BRANCH  16  17
ATOM     17  C   UNL     1      37.421 -22.968 -11.339  0.00  0.00    +0.209 C 
ATOM     18  C   UNL     1      38.673 -23.576 -11.937  0.00  0.00    +0.051 C 
ENDBRANCH  16  17
ENDBRANCH  15  16
ENDBRANCH   1  15
BRANCH   1  19
ATOM     19  C   UNL     1      35.668 -22.524 -14.786  0.00  0.00    -0.004 C 
BRANCH  19  20
ATOM     20  C   UNL     1      36.409 -22.863 -16.091  0.00  0.00    -0.076 C 
BRANCH  20  22
ATOM     21  O   UNL     1      35.220 -21.724 -19.951  0.00  0.00    -0.358 OA
ATOM     22  N   UNL     1      35.849 -22.095 -17.200  0.00  0.00    +0.390 N 
ATOM     23  C   UNL     1      36.887 -21.774 -18.189  0.00  0.00    -0.045 C 
ATOM     24  C   UNL     1      34.751 -22.830 -17.842  0.00  0.00    -0.045 C 
ATOM     25  C   UNL     1      36.277 -20.981 -19.341  0.00  0.00    +0.119 C 
ATOM     26  C   UNL     1      34.191 -22.013 -19.004  0.00  0.00    +0.119 C 
ATOM     27  H   UNL     1      35.479 -21.222 -16.820  0.00  0.00    -0.079 HD
ENDBRANCH  20  22
ENDBRANCH  19  20
ENDBRANCH   1  19
TORSDOF 8
ENDMDL
