MODEL 1
REMARK VINA RESULT:      -6.5      0.000      0.000
REMARK  Name = 3852474
REMARK  4 active torsions:
REMARK  status: ('A' for Active; 'I' for Inactive)
REMARK    1  A    between atoms: N_1  and  C_4
REMARK    2  A    between atoms: N_1  and  C_10
REMARK    3  A    between atoms: C_10  and  C_11
REMARK    4  A    between atoms: C_11  and  S_12
REMARK                            x       y       z     vdW  Elec       q    Type
REMARK                         _______ _______ _______ _____ _____    ______ ____
ROOT
ATOM      1  N   UNL     1      34.177 -18.413 -21.556  0.00  0.00    +0.386 N 
ATOM      2  H   UNL     1      33.994 -17.878 -20.707  0.00  0.00    -0.084 HD
ATOM      3  H   UNL     1      33.395 -18.393 -22.209  0.00  0.00    -0.084 HD
ENDROOT
BRANCH   1   4
ATOM      4  C   UNL     1      34.384 -19.836 -21.176  0.00  0.00    -0.062 C 
ATOM      5  C   UNL     1      35.776 -19.986 -20.566  0.00  0.00    -0.021 C 
ATOM      6  C   UNL     1      33.284 -20.252 -20.203  0.00  0.00    -0.021 C 
ATOM      7  C   UNL     1      35.999 -21.410 -20.059  0.00  0.00    -0.002 C 
ATOM      8  C   UNL     1      33.511 -21.675 -19.696  0.00  0.00    -0.002 C 
ATOM      9  C   UNL     1      34.902 -21.841 -19.090  0.00  0.00    -0.000 C 
ENDBRANCH   1   4
BRANCH   1  10
ATOM     10  C   UNL     1      35.335 -17.797 -22.252  0.00  0.00    -0.055 C 
BRANCH  10  11
ATOM     11  C   UNL     1      34.941 -16.457 -22.837  0.00  0.00    +0.135 C 
BRANCH  11  12
ATOM     12  S   UNL     1      34.245 -15.365 -21.639  0.00  0.00    +0.020 S 
ATOM     13  O   UNL     1      34.511 -14.040 -22.199  0.00  0.00    -0.070 OA
ATOM     14  O   UNL     1      32.835 -15.752 -21.614  0.00  0.00    -0.070 OA
ATOM     15  O   UNL     1      34.994 -15.682 -20.423  0.00  0.00    -0.070 OA
ENDBRANCH  11  12
ENDBRANCH  10  11
ENDBRANCH   1  10
TORSDOF 4
ENDMDL
MODEL 2
REMARK VINA RESULT:      -6.5     10.085     10.845
REMARK  Name = 3852474
REMARK  4 active torsions:
REMARK  status: ('A' for Active; 'I' for Inactive)
REMARK    1  A    between atoms: N_1  and  C_4
REMARK    2  A    between atoms: N_1  and  C_10
REMARK    3  A    between atoms: C_10  and  C_11
REMARK    4  A    between atoms: C_11  and  S_12
REMARK                            x       y       z     vdW  Elec       q    Type
REMARK                         _______ _______ _______ _____ _____    ______ ____
ROOT
ATOM      1  N   UNL     1      33.803 -24.658 -13.352  0.00  0.00    +0.386 N 
ATOM      2  H   UNL     1      34.022 -25.635 -13.158  0.00  0.00    -0.084 HD
ATOM      3  H   UNL     1      33.513 -24.147 -12.520  0.00  0.00    -0.084 HD
ENDROOT
BRANCH   1   4
ATOM      4  C   UNL     1      32.659 -24.617 -14.302  0.00  0.00    -0.062 C 
ATOM      5  C   UNL     1      31.388 -25.029 -13.562  0.00  0.00    -0.021 C 
ATOM      6  C   UNL     1      32.551 -23.210 -14.885  0.00  0.00    -0.021 C 
ATOM      7  C   UNL     1      30.164 -24.899 -14.466  0.00  0.00    -0.002 C 
ATOM      8  C   UNL     1      31.325 -23.082 -15.785  0.00  0.00    -0.002 C 
ATOM      9  C   UNL     1      30.048 -23.498 -15.060  0.00  0.00    -0.000 C 
ENDBRANCH   1   4
BRANCH   1  10
ATOM     10  C   UNL     1      35.033 -23.996 -13.856  0.00  0.00    -0.055 C 
BRANCH  10  11
ATOM     11  C   UNL     1      35.883 -23.520 -12.696  0.00  0.00    +0.135 C 
BRANCH  11  12
ATOM     12  S   UNL     1      36.422 -24.839 -11.655  0.00  0.00    +0.020 S 
ATOM     13  O   UNL     1      37.666 -24.325 -11.081  0.00  0.00    -0.070 OA
ATOM     14  O   UNL     1      35.319 -24.987 -10.706  0.00  0.00    -0.070 OA
ATOM     15  O   UNL     1      36.588 -25.953 -12.587  0.00  0.00    -0.070 OA
ENDBRANCH  11  12
ENDBRANCH  10  11
ENDBRANCH   1  10
TORSDOF 4
ENDMDL
MODEL 3
REMARK VINA RESULT:      -6.4     10.023     10.759
REMARK  Name = 3852474
REMARK  4 active torsions:
REMARK  status: ('A' for Active; 'I' for Inactive)
REMARK    1  A    between atoms: N_1  and  C_4
REMARK    2  A    between atoms: N_1  and  C_10
REMARK    3  A    between atoms: C_10  and  C_11
REMARK    4  A    between atoms: C_11  and  S_12
REMARK                            x       y       z     vdW  Elec       q    Type
REMARK                         _______ _______ _______ _____ _____    ______ ____
ROOT
ATOM      1  N   UNL     1      33.853 -24.715 -13.397  0.00  0.00    +0.386 N 
ATOM      2  H   UNL     1      33.878 -25.680 -13.727  0.00  0.00    -0.084 HD
ATOM      3  H   UNL     1      33.867 -24.647 -12.380  0.00  0.00    -0.084 HD
ENDROOT
BRANCH   1   4
ATOM      4  C   UNL     1      32.578 -24.098 -13.851  0.00  0.00    -0.062 C 
ATOM      5  C   UNL     1      32.756 -23.595 -15.282  0.00  0.00    -0.021 C 
ATOM      6  C   UNL     1      31.462 -25.135 -13.744  0.00  0.00    -0.021 C 
ATOM      7  C   UNL     1      31.441 -23.048 -15.836  0.00  0.00    -0.002 C 
ATOM      8  C   UNL     1      30.150 -24.587 -14.300  0.00  0.00    -0.002 C 
ATOM      9  C   UNL     1      30.316 -24.073 -15.729  0.00  0.00    -0.000 C 
ENDBRANCH   1   4
BRANCH   1  10
ATOM     10  C   UNL     1      35.070 -24.022 -13.891  0.00  0.00    -0.055 C 
BRANCH  10  11
ATOM     11  C   UNL     1      35.903 -23.532 -12.724  0.00  0.00    +0.135 C 
BRANCH  11  12
ATOM     12  S   UNL     1      36.437 -24.841 -11.667  0.00  0.00    +0.020 S 
ATOM     13  O   UNL     1      35.327 -24.984 -10.726  0.00  0.00    -0.070 OA
ATOM     14  O   UNL     1      36.614 -25.963 -12.589  0.00  0.00    -0.070 OA
ATOM     15  O   UNL     1      37.674 -24.318 -11.087  0.00  0.00    -0.070 OA
ENDBRANCH  11  12
ENDBRANCH  10  11
ENDBRANCH   1  10
TORSDOF 4
ENDMDL
MODEL 4
REMARK VINA RESULT:      -6.4      0.389      1.454
REMARK  Name = 3852474
REMARK  4 active torsions:
REMARK  status: ('A' for Active; 'I' for Inactive)
REMARK    1  A    between atoms: N_1  and  C_4
REMARK    2  A    between atoms: N_1  and  C_10
REMARK    3  A    between atoms: C_10  and  C_11
REMARK    4  A    between atoms: C_11  and  S_12
REMARK                            x       y       z     vdW  Elec       q    Type
REMARK                         _______ _______ _______ _____ _____    ______ ____
ROOT
ATOM      1  N   UNL     1      34.223 -18.641 -21.901  0.00  0.00    +0.386 N 
ATOM      2  H   UNL     1      33.484 -17.954 -21.748  0.00  0.00    -0.084 HD
ATOM      3  H   UNL     1      34.011 -19.282 -22.665  0.00  0.00    -0.084 HD
ENDROOT
BRANCH   1   4
ATOM      4  C   UNL     1      34.354 -19.467 -20.671  0.00  0.00    -0.062 C 
ATOM      5  C   UNL     1      33.144 -20.393 -20.567  0.00  0.00    -0.021 C 
ATOM      6  C   UNL     1      35.666 -20.246 -20.737  0.00  0.00    -0.021 C 
ATOM      7  C   UNL     1      33.282 -21.341 -19.377  0.00  0.00    -0.002 C 
ATOM      8  C   UNL     1      35.800 -21.194 -19.548  0.00  0.00    -0.002 C 
ATOM      9  C   UNL     1      34.593 -22.121 -19.428  0.00  0.00    -0.000 C 
ENDBRANCH   1   4
BRANCH   1  10
ATOM     10  C   UNL     1      35.462 -17.915 -22.279  0.00  0.00    -0.055 C 
BRANCH  10  11
ATOM     11  C   UNL     1      35.120 -16.539 -22.812  0.00  0.00    +0.135 C 
BRANCH  11  12
ATOM     12  S   UNL     1      34.329 -15.517 -21.611  0.00  0.00    +0.020 S 
ATOM     13  O   UNL     1      34.582 -14.163 -22.106  0.00  0.00    -0.070 OA
ATOM     14  O   UNL     1      32.932 -15.946 -21.676  0.00  0.00    -0.070 OA
ATOM     15  O   UNL     1      35.023 -15.859 -20.371  0.00  0.00    -0.070 OA
ENDBRANCH  11  12
ENDBRANCH  10  11
ENDBRANCH   1  10
TORSDOF 4
ENDMDL
MODEL 5
REMARK VINA RESULT:      -6.4      4.420      6.060
REMARK  Name = 3852474
REMARK  4 active torsions:
REMARK  status: ('A' for Active; 'I' for Inactive)
REMARK    1  A    between atoms: N_1  and  C_4
REMARK    2  A    between atoms: N_1  and  C_10
REMARK    3  A    between atoms: C_10  and  C_11
REMARK    4  A    between atoms: C_11  and  S_12
REMARK                            x       y       z     vdW  Elec       q    Type
REMARK                         _______ _______ _______ _____ _____    ______ ____
ROOT
ATOM      1  N   UNL     1      35.227 -19.390 -20.630  0.00  0.00    +0.386 N 
ATOM      2  H   UNL     1      35.428 -18.904 -19.756  0.00  0.00    -0.084 HD
ATOM      3  H   UNL     1      36.062 -19.781 -21.064  0.00  0.00    -0.084 HD
ENDROOT
BRANCH   1   4
ATOM      4  C   UNL     1      34.664 -18.405 -21.592  0.00  0.00    -0.062 C 
ATOM      5  C   UNL     1      34.974 -16.995 -21.093  0.00  0.00    -0.021 C 
ATOM      6  C   UNL     1      35.261 -18.667 -22.973  0.00  0.00    -0.021 C 
ATOM      7  C   UNL     1      34.512 -15.945 -22.101  0.00  0.00    -0.002 C 
ATOM      8  C   UNL     1      34.799 -17.615 -23.978  0.00  0.00    -0.002 C 
ATOM      9  C   UNL     1      35.097 -16.199 -23.488  0.00  0.00    -0.000 C 
ENDBRANCH   1   4
BRANCH   1  10
ATOM     10  C   UNL     1      34.323 -20.530 -20.333  0.00  0.00    -0.055 C 
BRANCH  10  11
ATOM     11  C   UNL     1      35.038 -21.554 -19.476  0.00  0.00    +0.135 C 
BRANCH  11  12
ATOM     12  S   UNL     1      33.938 -22.725 -18.747  0.00  0.00    +0.020 S 
ATOM     13  O   UNL     1      32.654 -22.024 -18.751  0.00  0.00    -0.070 OA
ATOM     14  O   UNL     1      34.019 -23.869 -19.654  0.00  0.00    -0.070 OA
ATOM     15  O   UNL     1      34.515 -22.946 -17.422  0.00  0.00    -0.070 OA
ENDBRANCH  11  12
ENDBRANCH  10  11
ENDBRANCH   1  10
TORSDOF 4
ENDMDL
MODEL 6
REMARK VINA RESULT:      -6.3      2.990      5.862
REMARK  Name = 3852474
REMARK  4 active torsions:
REMARK  status: ('A' for Active; 'I' for Inactive)
REMARK    1  A    between atoms: N_1  and  C_4
REMARK    2  A    between atoms: N_1  and  C_10
REMARK    3  A    between atoms: C_10  and  C_11
REMARK    4  A    between atoms: C_11  and  S_12
REMARK                            x       y       z     vdW  Elec       q    Type
REMARK                         _______ _______ _______ _____ _____    ______ ____
ROOT
ATOM      1  N   UNL     1      35.456 -17.205 -23.782  0.00  0.00    +0.386 N 
ATOM      2  H   UNL     1      35.840 -16.993 -22.861  0.00  0.00    -0.084 HD
ATOM      3  H   UNL     1      36.122 -17.031 -24.535  0.00  0.00    -0.084 HD
ENDROOT
BRANCH   1   4
ATOM      4  C   UNL     1      34.294 -16.308 -24.023  0.00  0.00    -0.062 C 
ATOM      5  C   UNL     1      34.507 -15.007 -23.251  0.00  0.00    -0.021 C 
ATOM      6  C   UNL     1      34.158 -16.067 -25.524  0.00  0.00    -0.021 C 
ATOM      7  C   UNL     1      33.392 -14.007 -23.549  0.00  0.00    -0.002 C 
ATOM      8  C   UNL     1      33.045 -15.065 -25.819  0.00  0.00    -0.002 C 
ATOM      9  C   UNL     1      33.241 -13.762 -25.048  0.00  0.00    -0.000 C 
ENDBRANCH   1   4
BRANCH   1  10
ATOM     10  C   UNL     1      35.125 -18.652 -23.827  0.00  0.00    -0.055 C 
BRANCH  10  11
ATOM     11  C   UNL     1      34.662 -19.124 -22.464  0.00  0.00    +0.135 C 
BRANCH  11  12
ATOM     12  S   UNL     1      35.790 -18.703 -21.174  0.00  0.00    +0.020 S 
ATOM     13  O   UNL     1      37.077 -18.627 -21.867  0.00  0.00    -0.070 OA
ATOM     14  O   UNL     1      35.277 -17.423 -20.686  0.00  0.00    -0.070 OA
ATOM     15  O   UNL     1      35.659 -19.818 -20.238  0.00  0.00    -0.070 OA
ENDBRANCH  11  12
ENDBRANCH  10  11
ENDBRANCH   1  10
TORSDOF 4
ENDMDL
MODEL 7
REMARK VINA RESULT:      -6.2      3.027      5.920
REMARK  Name = 3852474
REMARK  4 active torsions:
REMARK  status: ('A' for Active; 'I' for Inactive)
REMARK    1  A    between atoms: N_1  and  C_4
REMARK    2  A    between atoms: N_1  and  C_10
REMARK    3  A    between atoms: C_10  and  C_11
REMARK    4  A    between atoms: C_11  and  S_12
REMARK                            x       y       z     vdW  Elec       q    Type
REMARK                         _______ _______ _______ _____ _____    ______ ____
ROOT
ATOM      1  N   UNL     1      35.689 -17.028 -23.383  0.00  0.00    +0.386 N 
ATOM      2  H   UNL     1      35.505 -16.871 -22.392  0.00  0.00    -0.084 HD
ATOM      3  H   UNL     1      36.685 -17.052 -23.599  0.00  0.00    -0.084 HD
ENDROOT
BRANCH   1   4
ATOM      4  C   UNL     1      35.111 -15.893 -24.151  0.00  0.00    -0.062 C 
ATOM      5  C   UNL     1      34.092 -16.442 -25.148  0.00  0.00    -0.021 C 
ATOM      6  C   UNL     1      34.480 -14.905 -23.173  0.00  0.00    -0.021 C 
ATOM      7  C   UNL     1      33.388 -15.306 -25.890  0.00  0.00    -0.002 C 
ATOM      8  C   UNL     1      33.776 -13.773 -23.917  0.00  0.00    -0.002 C 
ATOM      9  C   UNL     1      32.759 -14.308 -24.923  0.00  0.00    -0.000 C 
ENDBRANCH   1   4
BRANCH   1  10
ATOM     10  C   UNL     1      35.137 -18.355 -23.755  0.00  0.00    -0.055 C 
BRANCH  10  11
ATOM     11  C   UNL     1      34.714 -19.112 -22.512  0.00  0.00    +0.135 C 
BRANCH  11  12
ATOM     12  S   UNL     1      35.755 -18.787 -21.125  0.00  0.00    +0.020 S 
ATOM     13  O   UNL     1      35.477 -19.910 -20.229  0.00  0.00    -0.070 OA
ATOM     14  O   UNL     1      37.096 -18.781 -21.708  0.00  0.00    -0.070 OA
ATOM     15  O   UNL     1      35.283 -17.487 -20.650  0.00  0.00    -0.070 OA
ENDBRANCH  11  12
ENDBRANCH  10  11
ENDBRANCH   1  10
TORSDOF 4
ENDMDL
MODEL 8
REMARK VINA RESULT:      -6.0      9.128     10.617
REMARK  Name = 3852474
REMARK  4 active torsions:
REMARK  status: ('A' for Active; 'I' for Inactive)
REMARK    1  A    between atoms: N_1  and  C_4
REMARK    2  A    between atoms: N_1  and  C_10
REMARK    3  A    between atoms: C_10  and  C_11
REMARK    4  A    between atoms: C_11  and  S_12
REMARK                            x       y       z     vdW  Elec       q    Type
REMARK                         _______ _______ _______ _____ _____    ______ ____
ROOT
ATOM      1  N   UNL     1      36.918 -24.296 -14.274  0.00  0.00    +0.386 N 
ATOM      2  H   UNL     1      37.103 -23.315 -14.066  0.00  0.00    -0.084 HD
ATOM      3  H   UNL     1      37.484 -24.648 -15.045  0.00  0.00    -0.084 HD
ENDROOT
BRANCH   1   4
ATOM      4  C   UNL     1      35.497 -24.427 -14.690  0.00  0.00    -0.062 C 
ATOM      5  C   UNL     1      34.607 -24.294 -13.456  0.00  0.00    -0.021 C 
ATOM      6  C   UNL     1      35.188 -23.358 -15.736  0.00  0.00    -0.021 C 
ATOM      7  C   UNL     1      33.129 -24.312 -13.843  0.00  0.00    -0.002 C 
ATOM      8  C   UNL     1      33.710 -23.377 -16.119  0.00  0.00    -0.002 C 
ATOM      9  C   UNL     1      32.809 -23.252 -14.893  0.00  0.00    -0.000 C 
ENDBRANCH   1   4
BRANCH   1  10
ATOM     10  C   UNL     1      37.275 -25.101 -13.077  0.00  0.00    -0.055 C 
BRANCH  10  11
ATOM     11  C   UNL     1      38.781 -25.180 -12.931  0.00  0.00    +0.135 C 
BRANCH  11  12
ATOM     12  S   UNL     1      39.581 -25.764 -14.391  0.00  0.00    +0.020 S 
ATOM     13  O   UNL     1      38.637 -26.750 -14.918  0.00  0.00    -0.070 OA
ATOM     14  O   UNL     1      39.724 -24.554 -15.200  0.00  0.00    -0.070 OA
ATOM     15  O   UNL     1      40.835 -26.320 -13.886  0.00  0.00    -0.070 OA
ENDBRANCH  11  12
ENDBRANCH  10  11
ENDBRANCH   1  10
TORSDOF 4
ENDMDL
MODEL 9
REMARK VINA RESULT:      -6.0      5.660      8.187
REMARK  Name = 3852474
REMARK  4 active torsions:
REMARK  status: ('A' for Active; 'I' for Inactive)
REMARK    1  A    between atoms: N_1  and  C_4
REMARK    2  A    between atoms: N_1  and  C_10
REMARK    3  A    between atoms: C_10  and  C_11
REMARK    4  A    between atoms: C_11  and  S_12
REMARK                            x       y       z     vdW  Elec       q    Type
REMARK                         _______ _______ _______ _____ _____    ______ ____
ROOT
ATOM      1  N   UNL     1      31.599 -12.695 -22.268  0.00  0.00    +0.386 N 
ATOM      2  H   UNL     1      32.149 -12.476 -23.099  0.00  0.00    -0.084 HD
ATOM      3  H   UNL     1      30.717 -13.155 -22.490  0.00  0.00    -0.084 HD
ENDROOT
BRANCH   1   4
ATOM      4  C   UNL     1      31.257 -11.419 -21.585  0.00  0.00    -0.062 C 
ATOM      5  C   UNL     1      31.529 -11.571 -20.089  0.00  0.00    -0.021 C 
ATOM      6  C   UNL     1      32.078 -10.291 -22.204  0.00  0.00    -0.021 C 
ATOM      7  C   UNL     1      31.296 -10.253 -19.355  0.00  0.00    -0.002 C 
ATOM      8  C   UNL     1      31.844  -8.975 -21.466  0.00  0.00    -0.002 C 
ATOM      9  C   UNL     1      32.107  -9.115 -19.968  0.00  0.00    -0.000 C 
ENDBRANCH   1   4
BRANCH   1  10
ATOM     10  C   UNL     1      32.379 -13.640 -21.429  0.00  0.00    -0.055 C 
BRANCH  10  11
ATOM     11  C   UNL     1      32.860 -14.807 -22.267  0.00  0.00    +0.135 C 
BRANCH  11  12
ATOM     12  S   UNL     1      33.833 -14.302 -23.650  0.00  0.00    +0.020 S 
ATOM     13  O   UNL     1      32.913 -14.451 -24.778  0.00  0.00    -0.070 OA
ATOM     14  O   UNL     1      34.189 -12.923 -23.322  0.00  0.00    -0.070 OA
ATOM     15  O   UNL     1      34.949 -15.247 -23.637  0.00  0.00    -0.070 OA
ENDBRANCH  11  12
ENDBRANCH  10  11
ENDBRANCH   1  10
TORSDOF 4
ENDMDL
