MODEL 1
REMARK VINA RESULT:      -5.6      0.000      0.000
REMARK  Name = 145742
REMARK  2 active torsions:
REMARK  status: ('A' for Active; 'I' for Inactive)
REMARK    1  A    between atoms: CA_2  and  C_9
REMARK    2  A    between atoms: C_9  and  O_10
REMARK                            x       y       z     vdW  Elec       q    Type
REMARK                         _______ _______ _______ _____ _____    ______ ____
ROOT
ATOM      1  N   PRO A   1      37.883 -25.768 -15.165  0.00  0.00    +0.392 N 
ATOM      2  CA  PRO A   1      38.998 -25.171 -14.430  0.00  0.00    +0.040 C 
ATOM      3  CB  PRO A   1      38.633 -25.299 -12.955  0.00  0.00    -0.013 C 
ATOM      4  CG  PRO A   1      37.355 -26.128 -12.930  0.00  0.00    -0.025 C 
ATOM      5  CD  PRO A   1      37.306 -26.786 -14.294  0.00  0.00    -0.081 C 
ATOM      6  H1  PRO A   1      38.219 -26.194 -16.030  0.00  0.00    -0.084 HD
ATOM      7  H2  PRO A   1      37.190 -25.064 -15.417  0.00  0.00    -0.084 HD
ENDROOT
BRANCH   2   9
ATOM      8  OXT PRO A   1      40.977 -26.473 -13.947  0.00  0.00    -0.253 OA
ATOM      9  C   PRO A   1      40.243 -25.936 -14.763  0.00  0.00    +0.293 C 
BRANCH   9  10
ATOM     10  O   PRO A   1      40.451 -25.951 -16.102  0.00  0.00    -0.482 OA
ATOM     11  H   PRO A   1      40.153 -26.677 -16.614  0.00  0.00    +0.295 HD
ENDBRANCH   9  10
ENDBRANCH   2   9
TORSDOF 2
ENDMDL
MODEL 2
REMARK VINA RESULT:      -5.0      2.332      3.108
REMARK  Name = 145742
REMARK  2 active torsions:
REMARK  status: ('A' for Active; 'I' for Inactive)
REMARK    1  A    between atoms: CA_2  and  C_9
REMARK    2  A    between atoms: C_9  and  O_10
REMARK                            x       y       z     vdW  Elec       q    Type
REMARK                         _______ _______ _______ _____ _____    ______ ____
ROOT
ATOM      1  N   PRO A   1      38.717 -26.584 -14.212  0.00  0.00    +0.392 N 
ATOM      2  CA  PRO A   1      37.280 -26.746 -13.995  0.00  0.00    +0.040 C 
ATOM      3  CB  PRO A   1      36.922 -25.781 -12.871  0.00  0.00    -0.013 C 
ATOM      4  CG  PRO A   1      38.194 -24.985 -12.607  0.00  0.00    -0.025 C 
ATOM      5  CD  PRO A   1      39.042 -25.210 -13.843  0.00  0.00    -0.081 C 
ATOM      6  H1  PRO A   1      38.947 -26.748 -15.193  0.00  0.00    -0.084 HD
ATOM      7  H2  PRO A   1      39.251 -27.250 -13.654  0.00  0.00    -0.084 HD
ENDROOT
BRANCH   2   9
ATOM      8  OXT PRO A   1      35.813 -25.457 -15.419  0.00  0.00    -0.253 OA
ATOM      9  C   PRO A   1      36.571 -26.404 -15.270  0.00  0.00    +0.293 C 
BRANCH   9  10
ATOM     10  O   PRO A   1      36.882 -27.293 -16.245  0.00  0.00    -0.482 OA
ATOM     11  H   PRO A   1      37.012 -26.997 -17.125  0.00  0.00    +0.295 HD
ENDBRANCH   9  10
ENDBRANCH   2   9
TORSDOF 2
ENDMDL
MODEL 3
REMARK VINA RESULT:      -4.9      9.823     10.575
REMARK  Name = 145742
REMARK  2 active torsions:
REMARK  status: ('A' for Active; 'I' for Inactive)
REMARK    1  A    between atoms: CA_2  and  C_9
REMARK    2  A    between atoms: C_9  and  O_10
REMARK                            x       y       z     vdW  Elec       q    Type
REMARK                         _______ _______ _______ _____ _____    ______ ____
ROOT
ATOM      1  N   PRO A   1      29.825 -24.679 -15.818  0.00  0.00    +0.392 N 
ATOM      2  CA  PRO A   1      28.770 -23.693 -15.582  0.00  0.00    +0.040 C 
ATOM      3  CB  PRO A   1      29.455 -22.512 -14.903  0.00  0.00    -0.013 C 
ATOM      4  CG  PRO A   1      30.942 -22.843 -14.932  0.00  0.00    -0.025 C 
ATOM      5  CD  PRO A   1      31.067 -23.930 -15.980  0.00  0.00    -0.081 C 
ATOM      6  H1  PRO A   1      29.624 -25.214 -16.663  0.00  0.00    -0.084 HD
ATOM      7  H2  PRO A   1      29.892 -25.339 -15.043  0.00  0.00    -0.084 HD
ENDROOT
BRANCH   2   9
ATOM      8  OXT PRO A   1      27.648 -24.083 -17.686  0.00  0.00    -0.253 OA
ATOM      9  C   PRO A   1      28.180 -23.310 -16.905  0.00  0.00    +0.293 C 
BRANCH   9  10
ATOM     10  O   PRO A   1      28.319 -21.979 -17.122  0.00  0.00    -0.482 OA
ATOM     11  H   PRO A   1      27.603 -21.399 -16.950  0.00  0.00    +0.295 HD
ENDBRANCH   9  10
ENDBRANCH   2   9
TORSDOF 2
ENDMDL
MODEL 4
REMARK VINA RESULT:      -4.9      4.170      4.872
REMARK  Name = 145742
REMARK  2 active torsions:
REMARK  status: ('A' for Active; 'I' for Inactive)
REMARK    1  A    between atoms: CA_2  and  C_9
REMARK    2  A    between atoms: C_9  and  O_10
REMARK                            x       y       z     vdW  Elec       q    Type
REMARK                         _______ _______ _______ _____ _____    ______ ____
ROOT
ATOM      1  N   PRO A   1      38.081 -23.734 -11.600  0.00  0.00    +0.392 N 
ATOM      2  CA  PRO A   1      36.681 -23.342 -11.763  0.00  0.00    +0.040 C 
ATOM      3  CB  PRO A   1      36.375 -23.520 -13.246  0.00  0.00    -0.013 C 
ATOM      4  CG  PRO A   1      37.619 -24.172 -13.836  0.00  0.00    -0.025 C 
ATOM      5  CD  PRO A   1      38.361 -24.723 -12.635  0.00  0.00    -0.081 C 
ATOM      6  H1  PRO A   1      38.228 -24.140 -10.676  0.00  0.00    -0.084 HD
ATOM      7  H2  PRO A   1      38.701 -22.928 -11.685  0.00  0.00    -0.084 HD
ENDROOT
BRANCH   2   9
ATOM      8  OXT PRO A   1      35.901 -24.311  -9.692  0.00  0.00    -0.253 OA
ATOM      9  C   PRO A   1      35.839 -24.240 -10.909  0.00  0.00    +0.293 C 
BRANCH   9  10
ATOM     10  O   PRO A   1      34.992 -24.972 -11.674  0.00  0.00    -0.482 OA
ATOM     11  H   PRO A   1      35.323 -25.459 -12.404  0.00  0.00    +0.295 HD
ENDBRANCH   9  10
ENDBRANCH   2   9
TORSDOF 2
ENDMDL
MODEL 5
REMARK VINA RESULT:      -4.9     11.479     12.181
REMARK  Name = 145742
REMARK  2 active torsions:
REMARK  status: ('A' for Active; 'I' for Inactive)
REMARK    1  A    between atoms: CA_2  and  C_9
REMARK    2  A    between atoms: C_9  and  O_10
REMARK                            x       y       z     vdW  Elec       q    Type
REMARK                         _______ _______ _______ _____ _____    ______ ____
ROOT
ATOM      1  N   PRO A   1      41.550 -15.321 -17.313  0.00  0.00    +0.392 N 
ATOM      2  CA  PRO A   1      42.033 -14.880 -16.005  0.00  0.00    +0.040 C 
ATOM      3  CB  PRO A   1      42.523 -13.451 -16.209  0.00  0.00    -0.013 C 
ATOM      4  CG  PRO A   1      42.135 -13.095 -17.639  0.00  0.00    -0.025 C 
ATOM      5  CD  PRO A   1      41.090 -14.127 -18.013  0.00  0.00    -0.081 C 
ATOM      6  H1  PRO A   1      40.780 -15.982 -17.199  0.00  0.00    -0.084 HD
ATOM      7  H2  PRO A   1      42.286 -15.794 -17.837  0.00  0.00    -0.084 HD
ENDROOT
BRANCH   2   9
ATOM      8  OXT PRO A   1      40.654 -14.110 -14.177  0.00  0.00    -0.253 OA
ATOM      9  C   PRO A   1      40.892 -14.944 -15.036  0.00  0.00    +0.293 C 
BRANCH   9  10
ATOM     10  O   PRO A   1      40.154 -16.062 -15.240  0.00  0.00    -0.482 OA
ATOM     11  H   PRO A   1      39.218 -16.019 -15.205  0.00  0.00    +0.295 HD
ENDBRANCH   9  10
ENDBRANCH   2   9
TORSDOF 2
ENDMDL
MODEL 6
REMARK VINA RESULT:      -4.8     11.404     12.185
REMARK  Name = 145742
REMARK  2 active torsions:
REMARK  status: ('A' for Active; 'I' for Inactive)
REMARK    1  A    between atoms: CA_2  and  C_9
REMARK    2  A    between atoms: C_9  and  O_10
REMARK                            x       y       z     vdW  Elec       q    Type
REMARK                         _______ _______ _______ _____ _____    ______ ____
ROOT
ATOM      1  N   PRO A   1      41.819 -13.450 -15.556  0.00  0.00    +0.392 N 
ATOM      2  CA  PRO A   1      40.988 -14.383 -16.315  0.00  0.00    +0.040 C 
ATOM      3  CB  PRO A   1      41.394 -14.203 -17.774  0.00  0.00    -0.013 C 
ATOM      4  CG  PRO A   1      42.583 -13.252 -17.743  0.00  0.00    -0.025 C 
ATOM      5  CD  PRO A   1      43.061 -13.293 -16.305  0.00  0.00    -0.081 C 
ATOM      6  H1  PRO A   1      42.013 -13.826 -14.627  0.00  0.00    -0.084 HD
ATOM      7  H2  PRO A   1      41.348 -12.553 -15.434  0.00  0.00    -0.084 HD
ENDROOT
BRANCH   2   9
ATOM      8  OXT PRO A   1      42.370 -16.306 -15.832  0.00  0.00    -0.253 OA
ATOM      9  C   PRO A   1      41.272 -15.771 -15.826  0.00  0.00    +0.293 C 
BRANCH   9  10
ATOM     10  O   PRO A   1      40.138 -16.360 -15.373  0.00  0.00    -0.482 OA
ATOM     11  H   PRO A   1      40.156 -16.863 -14.582  0.00  0.00    +0.295 HD
ENDBRANCH   9  10
ENDBRANCH   2   9
TORSDOF 2
ENDMDL
MODEL 7
REMARK VINA RESULT:      -4.7      3.234      3.926
REMARK  Name = 145742
REMARK  2 active torsions:
REMARK  status: ('A' for Active; 'I' for Inactive)
REMARK    1  A    between atoms: CA_2  and  C_9
REMARK    2  A    between atoms: C_9  and  O_10
REMARK                            x       y       z     vdW  Elec       q    Type
REMARK                         _______ _______ _______ _____ _____    ______ ____
ROOT
ATOM      1  N   PRO A   1      36.337 -25.786 -13.992  0.00  0.00    +0.392 N 
ATOM      2  CA  PRO A   1      37.029 -25.894 -12.708  0.00  0.00    +0.040 C 
ATOM      3  CB  PRO A   1      38.483 -25.536 -12.993  0.00  0.00    -0.013 C 
ATOM      4  CG  PRO A   1      38.505 -25.080 -14.447  0.00  0.00    -0.025 C 
ATOM      5  CD  PRO A   1      37.055 -24.782 -14.770  0.00  0.00    -0.081 C 
ATOM      6  H1  PRO A   1      35.370 -25.494 -13.848  0.00  0.00    -0.084 HD
ATOM      7  H2  PRO A   1      36.320 -26.683 -14.478  0.00  0.00    -0.084 HD
ENDROOT
BRANCH   2   9
ATOM      8  OXT PRO A   1      37.005 -24.174 -11.011  0.00  0.00    -0.253 OA
ATOM      9  C   PRO A   1      36.396 -24.930 -11.751  0.00  0.00    +0.293 C 
BRANCH   9  10
ATOM     10  O   PRO A   1      35.044 -25.011 -11.815  0.00  0.00    -0.482 OA
ATOM     11  H   PRO A   1      34.522 -24.244 -11.678  0.00  0.00    +0.295 HD
ENDBRANCH   9  10
ENDBRANCH   2   9
TORSDOF 2
ENDMDL
MODEL 8
REMARK VINA RESULT:      -4.6     14.012     14.729
REMARK  Name = 145742
REMARK  2 active torsions:
REMARK  status: ('A' for Active; 'I' for Inactive)
REMARK    1  A    between atoms: CA_2  and  C_9
REMARK    2  A    between atoms: C_9  and  O_10
REMARK                            x       y       z     vdW  Elec       q    Type
REMARK                         _______ _______ _______ _____ _____    ______ ____
ROOT
ATOM      1  N   PRO A   1      35.520 -16.558 -23.805  0.00  0.00    +0.392 N 
ATOM      2  CA  PRO A   1      34.878 -16.778 -25.101  0.00  0.00    +0.040 C 
ATOM      3  CB  PRO A   1      34.420 -18.232 -25.091  0.00  0.00    -0.013 C 
ATOM      4  CG  PRO A   1      34.703 -18.731 -23.680  0.00  0.00    -0.025 C 
ATOM      5  CD  PRO A   1      34.879 -17.467 -22.862  0.00  0.00    -0.081 C 
ATOM      6  H1  PRO A   1      35.389 -15.591 -23.507  0.00  0.00    -0.084 HD
ATOM      7  H2  PRO A   1      36.524 -16.731 -23.858  0.00  0.00    -0.084 HD
ENDROOT
BRANCH   2   9
ATOM      8  OXT PRO A   1      33.398 -15.011 -24.375  0.00  0.00    -0.253 OA
ATOM      9  C   PRO A   1      33.722 -15.831 -25.219  0.00  0.00    +0.293 C 
BRANCH   9  10
ATOM     10  O   PRO A   1      33.077 -16.009 -26.399  0.00  0.00    -0.482 OA
ATOM     11  H   PRO A   1      33.536 -16.365 -27.134  0.00  0.00    +0.295 HD
ENDBRANCH   9  10
ENDBRANCH   2   9
TORSDOF 2
ENDMDL
MODEL 9
REMARK VINA RESULT:      -4.6      2.729      3.458
REMARK  Name = 145742
REMARK  2 active torsions:
REMARK  status: ('A' for Active; 'I' for Inactive)
REMARK    1  A    between atoms: CA_2  and  C_9
REMARK    2  A    between atoms: C_9  and  O_10
REMARK                            x       y       z     vdW  Elec       q    Type
REMARK                         _______ _______ _______ _____ _____    ______ ____
ROOT
ATOM      1  N   PRO A   1      37.635 -24.472 -14.270  0.00  0.00    +0.392 N 
ATOM      2  CA  PRO A   1      36.565 -25.469 -14.301  0.00  0.00    +0.040 C 
ATOM      3  CB  PRO A   1      35.364 -24.764 -14.922  0.00  0.00    -0.013 C 
ATOM      4  CG  PRO A   1      35.885 -23.402 -15.364  0.00  0.00    -0.025 C 
ATOM      5  CD  PRO A   1      37.391 -23.564 -15.386  0.00  0.00    -0.081 C 
ATOM      6  H1  PRO A   1      38.543 -24.926 -14.378  0.00  0.00    -0.084 HD
ATOM      7  H2  PRO A   1      37.644 -23.970 -13.383  0.00  0.00    -0.084 HD
ENDROOT
BRANCH   2   9
ATOM      8  OXT PRO A   1      36.425 -27.076 -16.101  0.00  0.00    -0.253 OA
ATOM      9  C   PRO A   1      37.024 -26.625 -15.136  0.00  0.00    +0.293 C 
BRANCH   9  10
ATOM     10  O   PRO A   1      38.202 -27.111 -14.674  0.00  0.00    -0.482 OA
ATOM     11  H   PRO A   1      38.528 -27.931 -14.992  0.00  0.00    +0.295 HD
ENDBRANCH   9  10
ENDBRANCH   2   9
TORSDOF 2
ENDMDL
