MODEL 1
REMARK VINA RESULT:      -7.1      0.000      0.000
REMARK  Name = 3000715
REMARK  4 active torsions:
REMARK  status: ('A' for Active; 'I' for Inactive)
REMARK    1  A    between atoms: C_6  and  C_12
REMARK    2  A    between atoms: C_6  and  C_17
REMARK    3  A    between atoms: C_12  and  C_14
REMARK    4  A    between atoms: C_14  and  C_15
REMARK                            x       y       z     vdW  Elec       q    Type
REMARK                         _______ _______ _______ _____ _____    ______ ____
ROOT
ATOM      1  S   UNL     1      31.233 -11.640 -20.758  0.00  0.00    -0.018 S 
ATOM      2  O   UNL     1      33.077  -7.103 -20.027  0.00  0.00    -0.274 OA
ATOM      3  O   UNL     1      30.960  -8.021 -24.126  0.00  0.00    -0.274 OA
ATOM      4  N   UNL     1      32.289  -9.205 -20.501  0.00  0.00    -0.267 N 
ATOM      5  N   UNL     1      31.234  -9.663 -22.548  0.00  0.00    -0.267 N 
ATOM      6  C   UNL     1      32.550  -7.602 -22.342  0.00  0.00    +0.138 C 
ATOM      7  C   UNL     1      32.648  -7.912 -20.850  0.00  0.00    +0.235 C 
ATOM      8  C   UNL     1      31.493  -8.413 -23.088  0.00  0.00    +0.235 C 
ATOM      9  C   UNL     1      31.617 -10.106 -21.300  0.00  0.00    +0.143 C 
ATOM     10  H   UNL     1      32.538  -9.508 -19.598  0.00  0.00    +0.157 HD
ATOM     11  H   UNL     1      30.728 -10.295 -23.109  0.00  0.00    +0.157 HD
ENDROOT
BRANCH   6  12
ATOM     12  C   UNL     1      33.912  -7.957 -22.965  0.00  0.00    +0.016 C 
ATOM     13  C   UNL     1      34.307  -6.888 -23.986  0.00  0.00    +0.001 C 
BRANCH  12  14
ATOM     14  C   UNL     1      33.908  -9.342 -23.639  0.00  0.00    +0.001 C 
BRANCH  14  15
ATOM     15  C   UNL     1      35.114  -9.577 -24.554  0.00  0.00    +0.000 C 
ATOM     16  C   UNL     1      34.876 -10.751 -25.492  0.00  0.00    +0.000 C 
ENDBRANCH  14  15
ENDBRANCH  12  14
ENDBRANCH   6  12
BRANCH   6  17
ATOM     17  C   UNL     1      32.277  -6.103 -22.537  0.00  0.00    +0.017 C 
ATOM     18  C   UNL     1      30.940  -5.716 -21.947  0.00  0.00    +0.001 C 
ENDBRANCH   6  17
TORSDOF 4
ENDMDL
MODEL 2
REMARK VINA RESULT:      -6.7     17.119     18.778
REMARK  Name = 3000715
REMARK  4 active torsions:
REMARK  status: ('A' for Active; 'I' for Inactive)
REMARK    1  A    between atoms: C_6  and  C_12
REMARK    2  A    between atoms: C_6  and  C_17
REMARK    3  A    between atoms: C_12  and  C_14
REMARK    4  A    between atoms: C_14  and  C_15
REMARK                            x       y       z     vdW  Elec       q    Type
REMARK                         _______ _______ _______ _____ _____    ______ ____
ROOT
ATOM      1  S   UNL     1      32.294 -23.957 -14.047  0.00  0.00    -0.018 S 
ATOM      2  O   UNL     1      36.478 -26.043 -15.681  0.00  0.00    -0.274 OA
ATOM      3  O   UNL     1      36.110 -25.071 -11.093  0.00  0.00    -0.274 OA
ATOM      4  N   UNL     1      34.624 -24.977 -14.848  0.00  0.00    -0.267 N 
ATOM      5  N   UNL     1      34.442 -24.491 -12.558  0.00  0.00    -0.267 N 
ATOM      6  C   UNL     1      36.646 -25.083 -13.460  0.00  0.00    +0.138 C 
ATOM      7  C   UNL     1      35.927 -25.444 -14.757  0.00  0.00    +0.235 C 
ATOM      8  C   UNL     1      35.726 -24.913 -12.253  0.00  0.00    +0.235 C 
ATOM      9  C   UNL     1      33.864 -24.483 -13.809  0.00  0.00    +0.143 C 
ATOM     10  H   UNL     1      34.204 -25.001 -15.737  0.00  0.00    +0.157 HD
ATOM     11  H   UNL     1      33.889 -24.167 -11.810  0.00  0.00    +0.157 HD
ENDROOT
BRANCH   6  12
ATOM     12  C   UNL     1      37.337 -23.727 -13.692  0.00  0.00    +0.016 C 
ATOM     13  C   UNL     1      37.319 -22.910 -12.398  0.00  0.00    +0.001 C 
BRANCH  12  14
ATOM     14  C   UNL     1      36.681 -22.917 -14.826  0.00  0.00    +0.001 C 
BRANCH  14  15
ATOM     15  C   UNL     1      37.642 -22.583 -15.970  0.00  0.00    +0.000 C 
ATOM     16  C   UNL     1      36.906 -21.961 -17.147  0.00  0.00    +0.000 C 
ENDBRANCH  14  15
ENDBRANCH  12  14
ENDBRANCH   6  12
BRANCH   6  17
ATOM     17  C   UNL     1      37.708 -26.148 -13.148  0.00  0.00    +0.017 C 
ATOM     18  C   UNL     1      39.094 -25.643 -13.479  0.00  0.00    +0.001 C 
ENDBRANCH   6  17
TORSDOF 4
ENDMDL
MODEL 3
REMARK VINA RESULT:      -6.6     17.251     18.795
REMARK  Name = 3000715
REMARK  4 active torsions:
REMARK  status: ('A' for Active; 'I' for Inactive)
REMARK    1  A    between atoms: C_6  and  C_12
REMARK    2  A    between atoms: C_6  and  C_17
REMARK    3  A    between atoms: C_12  and  C_14
REMARK    4  A    between atoms: C_14  and  C_15
REMARK                            x       y       z     vdW  Elec       q    Type
REMARK                         _______ _______ _______ _____ _____    ______ ____
ROOT
ATOM      1  S   UNL     1      32.715 -23.270 -15.483  0.00  0.00    -0.018 S 
ATOM      2  O   UNL     1      34.998 -24.868 -11.389  0.00  0.00    -0.274 OA
ATOM      3  O   UNL     1      37.578 -22.753 -14.705  0.00  0.00    -0.274 OA
ATOM      4  N   UNL     1      34.050 -24.193 -13.366  0.00  0.00    -0.267 N 
ATOM      5  N   UNL     1      35.339 -23.138 -15.022  0.00  0.00    -0.267 N 
ATOM      6  C   UNL     1      36.496 -24.340 -13.222  0.00  0.00    +0.138 C 
ATOM      7  C   UNL     1      35.133 -24.475 -12.547  0.00  0.00    +0.235 C 
ATOM      8  C   UNL     1      36.542 -23.321 -14.358  0.00  0.00    +0.235 C 
ATOM      9  C   UNL     1      34.099 -23.562 -14.591  0.00  0.00    +0.143 C 
ATOM     10  H   UNL     1      33.163 -24.469 -13.042  0.00  0.00    +0.157 HD
ATOM     11  H   UNL     1      35.372 -22.661 -15.882  0.00  0.00    +0.157 HD
ENDROOT
BRANCH   6  12
ATOM     12  C   UNL     1      36.831 -25.711 -13.835  0.00  0.00    +0.016 C 
ATOM     13  C   UNL     1      37.316 -26.663 -12.738  0.00  0.00    +0.001 C 
BRANCH  12  14
ATOM     14  C   UNL     1      37.893 -25.617 -14.947  0.00  0.00    +0.001 C 
BRANCH  14  15
ATOM     15  C   UNL     1      39.264 -26.153 -14.527  0.00  0.00    +0.000 C 
ATOM     16  C   UNL     1      40.370 -25.163 -14.857  0.00  0.00    +0.000 C 
ENDBRANCH  14  15
ENDBRANCH  12  14
ENDBRANCH   6  12
BRANCH   6  17
ATOM     17  C   UNL     1      37.556 -23.982 -12.169  0.00  0.00    +0.017 C 
ATOM     18  C   UNL     1      37.216 -22.679 -11.482  0.00  0.00    +0.001 C 
ENDBRANCH   6  17
TORSDOF 4
ENDMDL
MODEL 4
REMARK VINA RESULT:      -6.5      1.658      3.949
REMARK  Name = 3000715
REMARK  4 active torsions:
REMARK  status: ('A' for Active; 'I' for Inactive)
REMARK    1  A    between atoms: C_6  and  C_12
REMARK    2  A    between atoms: C_6  and  C_17
REMARK    3  A    between atoms: C_12  and  C_14
REMARK    4  A    between atoms: C_14  and  C_15
REMARK                            x       y       z     vdW  Elec       q    Type
REMARK                         _______ _______ _______ _____ _____    ______ ____
ROOT
ATOM      1  S   UNL     1      31.327 -10.733 -19.201  0.00  0.00    -0.018 S 
ATOM      2  O   UNL     1      32.710  -9.700 -23.843  0.00  0.00    -0.274 OA
ATOM      3  O   UNL     1      33.043  -6.305 -20.604  0.00  0.00    -0.274 OA
ATOM      4  N   UNL     1      31.991 -10.050 -21.692  0.00  0.00    -0.267 N 
ATOM      5  N   UNL     1      32.157  -8.354 -20.076  0.00  0.00    -0.267 N 
ATOM      6  C   UNL     1      32.386  -7.746 -22.443  0.00  0.00    +0.138 C 
ATOM      7  C   UNL     1      32.409  -9.243 -22.740  0.00  0.00    +0.235 C 
ATOM      8  C   UNL     1      32.591  -7.390 -20.972  0.00  0.00    +0.235 C 
ATOM      9  C   UNL     1      31.832  -9.659 -20.379  0.00  0.00    +0.143 C 
ATOM     10  H   UNL     1      31.789 -10.989 -21.905  0.00  0.00    +0.157 HD
ATOM     11  H   UNL     1      32.072  -8.081 -19.134  0.00  0.00    +0.157 HD
ENDROOT
BRANCH   6  12
ATOM     12  C   UNL     1      30.991  -7.231 -22.839  0.00  0.00    +0.016 C 
ATOM     13  C   UNL     1      30.794  -7.385 -24.349  0.00  0.00    +0.001 C 
BRANCH  12  14
ATOM     14  C   UNL     1      30.767  -5.762 -22.434  0.00  0.00    +0.001 C 
BRANCH  14  15
ATOM     15  C   UNL     1      30.876  -4.783 -23.606  0.00  0.00    +0.000 C 
ATOM     16  C   UNL     1      31.481  -3.459 -23.167  0.00  0.00    +0.000 C 
ENDBRANCH  14  15
ENDBRANCH  12  14
ENDBRANCH   6  12
BRANCH   6  17
ATOM     17  C   UNL     1      33.450  -7.038 -23.294  0.00  0.00    +0.017 C 
ATOM     18  C   UNL     1      34.799  -7.703 -23.137  0.00  0.00    +0.001 C 
ENDBRANCH   6  17
TORSDOF 4
ENDMDL
MODEL 5
REMARK VINA RESULT:      -6.4     16.558     18.177
REMARK  Name = 3000715
REMARK  4 active torsions:
REMARK  status: ('A' for Active; 'I' for Inactive)
REMARK    1  A    between atoms: C_6  and  C_12
REMARK    2  A    between atoms: C_6  and  C_17
REMARK    3  A    between atoms: C_12  and  C_14
REMARK    4  A    between atoms: C_14  and  C_15
REMARK                            x       y       z     vdW  Elec       q    Type
REMARK                         _______ _______ _______ _____ _____    ______ ____
ROOT
ATOM      1  S   UNL     1      32.594 -23.442 -14.780  0.00  0.00    -0.018 S 
ATOM      2  O   UNL     1      36.264 -26.727 -15.301  0.00  0.00    -0.274 OA
ATOM      3  O   UNL     1      36.962 -23.024 -12.484  0.00  0.00    -0.274 OA
ATOM      4  N   UNL     1      34.665 -25.095 -15.082  0.00  0.00    -0.267 N 
ATOM      5  N   UNL     1      35.015 -23.247 -13.677  0.00  0.00    -0.267 N 
ATOM      6  C   UNL     1      36.947 -24.619 -14.313  0.00  0.00    +0.138 C 
ATOM      7  C   UNL     1      35.947 -25.599 -14.920  0.00  0.00    +0.235 C 
ATOM      8  C   UNL     1      36.328 -23.578 -13.383  0.00  0.00    +0.235 C 
ATOM      9  C   UNL     1      34.168 -23.941 -14.514  0.00  0.00    +0.143 C 
ATOM     10  H   UNL     1      34.053 -25.609 -15.656  0.00  0.00    +0.157 HD
ATOM     11  H   UNL     1      34.652 -22.439 -13.247  0.00  0.00    +0.157 HD
ENDROOT
BRANCH   6  12
ATOM     12  C   UNL     1      37.590 -23.851 -15.482  0.00  0.00    +0.016 C 
ATOM     13  C   UNL     1      39.101 -24.093 -15.490  0.00  0.00    +0.001 C 
BRANCH  12  14
ATOM     14  C   UNL     1      37.306 -22.339 -15.421  0.00  0.00    +0.001 C 
BRANCH  14  15
ATOM     15  C   UNL     1      37.099 -21.701 -16.798  0.00  0.00    +0.000 C 
ATOM     16  C   UNL     1      35.834 -22.221 -17.464  0.00  0.00    +0.000 C 
ENDBRANCH  14  15
ENDBRANCH  12  14
ENDBRANCH   6  12
BRANCH   6  17
ATOM     17  C   UNL     1      38.035 -25.398 -13.558  0.00  0.00    +0.017 C 
ATOM     18  C   UNL     1      37.446 -26.151 -12.387  0.00  0.00    +0.001 C 
ENDBRANCH   6  17
TORSDOF 4
ENDMDL
MODEL 6
REMARK VINA RESULT:      -6.2     17.093     18.695
REMARK  Name = 3000715
REMARK  4 active torsions:
REMARK  status: ('A' for Active; 'I' for Inactive)
REMARK    1  A    between atoms: C_6  and  C_12
REMARK    2  A    between atoms: C_6  and  C_17
REMARK    3  A    between atoms: C_12  and  C_14
REMARK    4  A    between atoms: C_14  and  C_15
REMARK                            x       y       z     vdW  Elec       q    Type
REMARK                         _______ _______ _______ _____ _____    ______ ____
ROOT
ATOM      1  S   UNL     1      36.784 -21.666 -17.433  0.00  0.00    -0.018 S 
ATOM      2  O   UNL     1      34.556 -25.291 -14.900  0.00  0.00    -0.274 OA
ATOM      3  O   UNL     1      37.976 -22.858 -12.777  0.00  0.00    -0.274 OA
ATOM      4  N   UNL     1      35.721 -23.668 -16.028  0.00  0.00    -0.267 N 
ATOM      5  N   UNL     1      37.429 -22.454 -14.968  0.00  0.00    -0.267 N 
ATOM      6  C   UNL     1      36.641 -24.529 -13.922  0.00  0.00    +0.138 C 
ATOM      7  C   UNL     1      35.524 -24.533 -14.962  0.00  0.00    +0.235 C 
ATOM      8  C   UNL     1      37.391 -23.205 -13.804  0.00  0.00    +0.235 C 
ATOM      9  C   UNL     1      36.651 -22.651 -16.089  0.00  0.00    +0.143 C 
ATOM     10  H   UNL     1      35.143 -23.791 -16.815  0.00  0.00    +0.157 HD
ATOM     11  H   UNL     1      38.073 -21.710 -14.998  0.00  0.00    +0.157 HD
ENDROOT
BRANCH   6  12
ATOM     12  C   UNL     1      37.667 -25.589 -14.361  0.00  0.00    +0.016 C 
ATOM     13  C   UNL     1      36.954 -26.916 -14.634  0.00  0.00    +0.001 C 
BRANCH  12  14
ATOM     14  C   UNL     1      38.777 -25.804 -13.315  0.00  0.00    +0.001 C 
BRANCH  14  15
ATOM     15  C   UNL     1      40.188 -25.765 -13.908  0.00  0.00    +0.000 C 
ATOM     16  C   UNL     1      40.191 -25.131 -15.291  0.00  0.00    +0.000 C 
ENDBRANCH  14  15
ENDBRANCH  12  14
ENDBRANCH   6  12
BRANCH   6  17
ATOM     17  C   UNL     1      36.066 -24.916 -12.551  0.00  0.00    +0.017 C 
ATOM     18  C   UNL     1      35.041 -23.905 -12.090  0.00  0.00    +0.001 C 
ENDBRANCH   6  17
TORSDOF 4
ENDMDL
MODEL 7
REMARK VINA RESULT:      -6.2      8.918     10.695
REMARK  Name = 3000715
REMARK  4 active torsions:
REMARK  status: ('A' for Active; 'I' for Inactive)
REMARK    1  A    between atoms: C_6  and  C_12
REMARK    2  A    between atoms: C_6  and  C_17
REMARK    3  A    between atoms: C_12  and  C_14
REMARK    4  A    between atoms: C_14  and  C_15
REMARK                            x       y       z     vdW  Elec       q    Type
REMARK                         _______ _______ _______ _____ _____    ______ ____
ROOT
ATOM      1  S   UNL     1      33.480 -14.660 -24.435  0.00  0.00    -0.018 S 
ATOM      2  O   UNL     1      35.297 -16.569 -20.243  0.00  0.00    -0.274 OA
ATOM      3  O   UNL     1      35.631 -19.113 -24.185  0.00  0.00    -0.274 OA
ATOM      4  N   UNL     1      34.387 -15.817 -22.210  0.00  0.00    -0.267 N 
ATOM      5  N   UNL     1      34.553 -17.088 -24.178  0.00  0.00    -0.267 N 
ATOM      6  C   UNL     1      35.013 -18.184 -22.030  0.00  0.00    +0.138 C 
ATOM      7  C   UNL     1      34.946 -16.795 -21.401  0.00  0.00    +0.235 C 
ATOM      8  C   UNL     1      35.128 -18.183 -23.553  0.00  0.00    +0.235 C 
ATOM      9  C   UNL     1      34.155 -15.918 -23.566  0.00  0.00    +0.143 C 
ATOM     10  H   UNL     1      34.132 -14.971 -21.776  0.00  0.00    +0.157 HD
ATOM     11  H   UNL     1      34.415 -17.151 -25.151  0.00  0.00    +0.157 HD
ENDROOT
BRANCH   6  12
ATOM     12  C   UNL     1      33.696 -18.899 -21.680  0.00  0.00    +0.016 C 
ATOM     13  C   UNL     1      32.857 -18.013 -20.756  0.00  0.00    +0.001 C 
BRANCH  12  14
ATOM     14  C   UNL     1      33.929 -20.269 -21.014  0.00  0.00    +0.001 C 
BRANCH  14  15
ATOM     15  C   UNL     1      32.939 -20.573 -19.886  0.00  0.00    +0.000 C 
ATOM     16  C   UNL     1      33.348 -21.818 -19.112  0.00  0.00    +0.000 C 
ENDBRANCH  14  15
ENDBRANCH  12  14
ENDBRANCH   6  12
BRANCH   6  17
ATOM     17  C   UNL     1      36.191 -18.963 -21.428  0.00  0.00    +0.017 C 
ATOM     18  C   UNL     1      37.499 -18.535 -22.053  0.00  0.00    +0.001 C 
ENDBRANCH   6  17
TORSDOF 4
ENDMDL
MODEL 8
REMARK VINA RESULT:      -6.1     17.631     19.321
REMARK  Name = 3000715
REMARK  4 active torsions:
REMARK  status: ('A' for Active; 'I' for Inactive)
REMARK    1  A    between atoms: C_6  and  C_12
REMARK    2  A    between atoms: C_6  and  C_17
REMARK    3  A    between atoms: C_12  and  C_14
REMARK    4  A    between atoms: C_14  and  C_15
REMARK                            x       y       z     vdW  Elec       q    Type
REMARK                         _______ _______ _______ _____ _____    ______ ____
ROOT
ATOM      1  S   UNL     1      33.712 -24.342 -15.237  0.00  0.00    -0.018 S 
ATOM      2  O   UNL     1      38.415 -22.855 -15.686  0.00  0.00    -0.274 OA
ATOM      3  O   UNL     1      37.584 -27.396 -14.780  0.00  0.00    -0.274 OA
ATOM      4  N   UNL     1      36.276 -23.617 -15.353  0.00  0.00    -0.267 N 
ATOM      5  N   UNL     1      35.862 -25.884 -14.899  0.00  0.00    -0.267 N 
ATOM      6  C   UNL     1      38.155 -25.040 -14.665  0.00  0.00    +0.138 C 
ATOM      7  C   UNL     1      37.656 -23.747 -15.304  0.00  0.00    +0.235 C 
ATOM      8  C   UNL     1      37.203 -26.225 -14.809  0.00  0.00    +0.235 C 
ATOM      9  C   UNL     1      35.358 -24.624 -15.142  0.00  0.00    +0.143 C 
ATOM     10  H   UNL     1      35.919 -22.723 -15.556  0.00  0.00    +0.157 HD
ATOM     11  H   UNL     1      35.208 -26.610 -14.778  0.00  0.00    +0.157 HD
ENDROOT
BRANCH   6  12
ATOM     12  C   UNL     1      38.307 -24.767 -13.158  0.00  0.00    +0.016 C 
ATOM     13  C   UNL     1      37.769 -25.958 -12.361  0.00  0.00    +0.001 C 
BRANCH  12  14
ATOM     14  C   UNL     1      37.586 -23.479 -12.717  0.00  0.00    +0.001 C 
BRANCH  14  15
ATOM     15  C   UNL     1      36.759 -23.651 -11.439  0.00  0.00    +0.000 C 
ATOM     16  C   UNL     1      35.275 -23.766 -11.752  0.00  0.00    +0.000 C 
ENDBRANCH  14  15
ENDBRANCH  12  14
ENDBRANCH   6  12
BRANCH   6  17
ATOM     17  C   UNL     1      39.524 -25.409 -15.255  0.00  0.00    +0.017 C 
ATOM     18  C   UNL     1      40.561 -25.554 -14.166  0.00  0.00    +0.001 C 
ENDBRANCH   6  17
TORSDOF 4
ENDMDL
MODEL 9
REMARK VINA RESULT:      -6.1     17.056     18.827
REMARK  Name = 3000715
REMARK  4 active torsions:
REMARK  status: ('A' for Active; 'I' for Inactive)
REMARK    1  A    between atoms: C_6  and  C_12
REMARK    2  A    between atoms: C_6  and  C_17
REMARK    3  A    between atoms: C_12  and  C_14
REMARK    4  A    between atoms: C_14  and  C_15
REMARK                            x       y       z     vdW  Elec       q    Type
REMARK                         _______ _______ _______ _____ _____    ______ ____
ROOT
ATOM      1  S   UNL     1      36.779 -21.590 -17.582  0.00  0.00    -0.018 S 
ATOM      2  O   UNL     1      39.548 -24.770 -14.985  0.00  0.00    -0.274 OA
ATOM      3  O   UNL     1      34.901 -24.746 -14.261  0.00  0.00    -0.274 OA
ATOM      4  N   UNL     1      38.197 -23.259 -16.060  0.00  0.00    -0.267 N 
ATOM      5  N   UNL     1      35.877 -23.247 -15.697  0.00  0.00    -0.267 N 
ATOM      6  C   UNL     1      37.306 -24.461 -14.114  0.00  0.00    +0.138 C 
ATOM      7  C   UNL     1      38.454 -24.215 -15.089  0.00  0.00    +0.235 C 
ATOM      8  C   UNL     1      35.917 -24.202 -14.693  0.00  0.00    +0.235 C 
ATOM      9  C   UNL     1      36.961 -22.738 -16.380  0.00  0.00    +0.143 C 
ATOM     10  H   UNL     1      38.969 -22.919 -16.567  0.00  0.00    +0.157 HD
ATOM     11  H   UNL     1      34.990 -22.898 -15.945  0.00  0.00    +0.157 HD
ENDROOT
BRANCH   6  12
ATOM     12  C   UNL     1      37.494 -23.480 -12.943  0.00  0.00    +0.016 C 
ATOM     13  C   UNL     1      38.567 -24.013 -11.990  0.00  0.00    +0.001 C 
BRANCH  12  14
ATOM     14  C   UNL     1      36.187 -23.233 -12.165  0.00  0.00    +0.001 C 
BRANCH  14  15
ATOM     15  C   UNL     1      36.255 -23.680 -10.702  0.00  0.00    +0.000 C 
ATOM     16  C   UNL     1      35.337 -24.865 -10.442  0.00  0.00    +0.000 C 
ENDBRANCH  14  15
ENDBRANCH  12  14
ENDBRANCH   6  12
BRANCH   6  17
ATOM     17  C   UNL     1      37.380 -25.902 -13.587  0.00  0.00    +0.017 C 
ATOM     18  C   UNL     1      37.186 -26.898 -14.708  0.00  0.00    +0.001 C 
ENDBRANCH   6  17
TORSDOF 4
ENDMDL
