MODEL 1
REMARK VINA RESULT:      -8.8      0.000      0.000
REMARK  Name = 6024
REMARK  8 active torsions:
REMARK  status: ('A' for Active; 'I' for Inactive)
REMARK    1  A    between atoms: CA_5  and  N_11
REMARK    2  A    between atoms: CA_7  and  C_21
REMARK    3  A    between atoms: C_8  and  C_24
REMARK    4  A    between atoms: C_12  and  C_14
REMARK    5  A    between atoms: C_14  and  C_16
REMARK    6  A    between atoms: C_21  and  O_22
REMARK    7  A    between atoms: C_24  and  O_25
REMARK    8  A    between atoms: O_25  and  C_27
REMARK                            x       y       z     vdW  Elec       q    Type
REMARK                         _______ _______ _______ _____ _____    ______ ____
ROOT
ATOM      1  S   UNL     1      33.470 -11.715 -23.996  0.00  0.00    -0.114 S 
ATOM      2  O   UNL     1      31.866 -12.374 -19.683  0.00  0.00    -0.273 OA
ATOM      3  N   UNL     1      32.565 -12.989 -21.849  0.00  0.00    -0.242 N 
ATOM      4  C   UNL     1      32.067 -12.229 -22.982  0.00  0.00    +0.155 C 
ATOM      5  CA  UNL     1      31.555 -11.203 -21.946  0.00  0.00    +0.178 C 
ATOM      6  C   UNL     1      31.961 -12.264 -20.884  0.00  0.00    +0.251 C 
ATOM      7  CA  UNL     1      33.382 -14.067 -21.965  0.00  0.00    +0.127 C 
ATOM      8  C   UNL     1      34.031 -14.342 -23.122  0.00  0.00    +0.030 C 
ATOM      9  C   UNL     1      33.988 -13.431 -24.347  0.00  0.00    +0.086 C 
ENDROOT
BRANCH   5  11
ATOM     10  O   UNL     1      30.899  -8.692 -23.210  0.00  0.00    -0.275 OA
ATOM     11  N   UNL     1      32.268  -9.934 -21.808  0.00  0.00    -0.296 N 
ATOM     12  C   UNL     1      31.872  -8.770 -22.462  0.00  0.00    +0.228 C 
ATOM     13  H   UNL     1      33.062  -9.900 -21.226  0.00  0.00    +0.150 HD
BRANCH  12  14
ATOM     14  C   UNL     1      32.749  -7.573 -22.158  0.00  0.00    +0.118 C 
BRANCH  14  16
ATOM     15  S   UNL     1      32.197  -5.829 -24.224  0.00  0.00    -0.090 S 
ATOM     16  C   UNL     1      33.207  -6.958 -23.451  0.00  0.00    +0.016 C 
ATOM     17  C   UNL     1      34.372  -7.192 -24.119  0.00  0.00    +0.003 C 
ATOM     18  C   UNL     1      34.447  -6.419 -25.313  0.00  0.00    +0.007 C 
ATOM     19  C   UNL     1      33.329  -5.633 -25.493  0.00  0.00    +0.035 C 
ENDBRANCH  14  16
ENDBRANCH  12  14
ENDBRANCH   5  11
BRANCH   7  21
ATOM     20  OXT UNL     1      34.642 -14.999 -20.179  0.00  0.00    -0.244 OA
ATOM     21  C   UNL     1      33.581 -14.885 -20.760  0.00  0.00    +0.352 C 
BRANCH  21  22
ATOM     22  O   UNL     1      32.417 -15.471 -20.419  0.00  0.00    -0.476 OA
ATOM     23  H   UNL     1      31.617 -14.987 -20.472  0.00  0.00    +0.295 HD
ENDBRANCH  21  22
ENDBRANCH   7  21
BRANCH   8  24
ATOM     24  C   UNL     1      34.890 -15.561 -23.354  0.00  0.00    +0.233 C 
BRANCH  24  25
ATOM     25  O   UNL     1      34.076 -16.632 -23.785  0.00  0.00    -0.444 OA
BRANCH  25  27
ATOM     26  O   UNL     1      34.804 -16.770 -25.973  0.00  0.00    -0.250 OA
ATOM     27  C   UNL     1      34.493 -17.294 -24.912  0.00  0.00    +0.318 C 
ATOM     28  C   UNL     1      34.518 -18.772 -24.665  0.00  0.00    +0.121 C 
ENDBRANCH  25  27
ENDBRANCH  24  25
ENDBRANCH   8  24
TORSDOF 8
ENDMDL
MODEL 2
REMARK VINA RESULT:      -8.8      5.197      9.888
REMARK  Name = 6024
REMARK  8 active torsions:
REMARK  status: ('A' for Active; 'I' for Inactive)
REMARK    1  A    between atoms: CA_5  and  N_11
REMARK    2  A    between atoms: CA_7  and  C_21
REMARK    3  A    between atoms: C_8  and  C_24
REMARK    4  A    between atoms: C_12  and  C_14
REMARK    5  A    between atoms: C_14  and  C_16
REMARK    6  A    between atoms: C_21  and  O_22
REMARK    7  A    between atoms: C_24  and  O_25
REMARK    8  A    between atoms: O_25  and  C_27
REMARK                            x       y       z     vdW  Elec       q    Type
REMARK                         _______ _______ _______ _____ _____    ______ ____
ROOT
ATOM      1  S   UNL     1      34.726 -18.725 -23.908  0.00  0.00    -0.114 S 
ATOM      2  O   UNL     1      34.647 -15.839 -20.265  0.00  0.00    -0.273 OA
ATOM      3  N   UNL     1      34.790 -16.452 -22.537  0.00  0.00    -0.242 N 
ATOM      4  C   UNL     1      35.665 -17.551 -22.907  0.00  0.00    +0.155 C 
ATOM      5  CA  UNL     1      35.758 -17.858 -21.395  0.00  0.00    +0.178 C 
ATOM      6  C   UNL     1      34.997 -16.516 -21.204  0.00  0.00    +0.251 C 
ATOM      7  CA  UNL     1      34.076 -15.722 -23.431  0.00  0.00    +0.127 C 
ATOM      8  C   UNL     1      33.896 -16.145 -24.706  0.00  0.00    +0.030 C 
ATOM      9  C   UNL     1      34.379 -17.500 -25.218  0.00  0.00    +0.086 C 
ENDROOT
BRANCH   5  11
ATOM     10  O   UNL     1      36.898 -20.358 -20.511  0.00  0.00    -0.275 OA
ATOM     11  N   UNL     1      35.039 -19.018 -20.871  0.00  0.00    -0.296 N 
ATOM     12  C   UNL     1      35.681 -20.186 -20.468  0.00  0.00    +0.228 C 
ATOM     13  H   UNL     1      34.057 -18.971 -20.799  0.00  0.00    +0.150 HD
BRANCH  12  14
ATOM     14  C   UNL     1      34.737 -21.250 -19.944  0.00  0.00    +0.118 C 
BRANCH  14  16
ATOM     15  S   UNL     1      34.247 -22.729 -17.666  0.00  0.00    -0.090 S 
ATOM     16  C   UNL     1      35.266 -21.775 -18.638  0.00  0.00    +0.016 C 
ATOM     17  C   UNL     1      36.504 -21.583 -18.103  0.00  0.00    +0.003 C 
ATOM     18  C   UNL     1      36.632 -22.241 -16.846  0.00  0.00    +0.007 C 
ATOM     19  C   UNL     1      35.477 -22.902 -16.488  0.00  0.00    +0.035 C 
ENDBRANCH  14  16
ENDBRANCH  12  14
ENDBRANCH   5  11
BRANCH   7  21
ATOM     20  OXT UNL     1      32.356 -14.431 -22.421  0.00  0.00    -0.244 OA
ATOM     21  C   UNL     1      33.454 -14.485 -22.938  0.00  0.00    +0.352 C 
BRANCH  21  22
ATOM     22  O   UNL     1      34.288 -13.448 -23.152  0.00  0.00    -0.476 OA
ATOM     23  H   UNL     1      35.213 -13.569 -23.071  0.00  0.00    +0.295 HD
ENDBRANCH  21  22
ENDBRANCH   7  21
BRANCH   8  24
ATOM     24  C   UNL     1      33.186 -15.356 -25.779  0.00  0.00    +0.233 C 
BRANCH  24  25
ATOM     25  O   UNL     1      34.024 -14.308 -26.221  0.00  0.00    -0.444 OA
BRANCH  25  27
ATOM     26  O   UNL     1      32.619 -13.273 -27.734  0.00  0.00    -0.250 OA
ATOM     27  C   UNL     1      33.396 -13.229 -26.789  0.00  0.00    +0.318 C 
ATOM     28  C   UNL     1      33.793 -11.968 -26.086  0.00  0.00    +0.121 C 
ENDBRANCH  25  27
ENDBRANCH  24  25
ENDBRANCH   8  24
TORSDOF 8
ENDMDL
MODEL 3
REMARK VINA RESULT:      -8.7     10.548     14.709
REMARK  Name = 6024
REMARK  8 active torsions:
REMARK  status: ('A' for Active; 'I' for Inactive)
REMARK    1  A    between atoms: CA_5  and  N_11
REMARK    2  A    between atoms: CA_7  and  C_21
REMARK    3  A    between atoms: C_8  and  C_24
REMARK    4  A    between atoms: C_12  and  C_14
REMARK    5  A    between atoms: C_14  and  C_16
REMARK    6  A    between atoms: C_21  and  O_22
REMARK    7  A    between atoms: C_24  and  O_25
REMARK    8  A    between atoms: O_25  and  C_27
REMARK                            x       y       z     vdW  Elec       q    Type
REMARK                         _______ _______ _______ _____ _____    ______ ____
ROOT
ATOM      1  S   UNL     1      37.165 -22.425 -15.940  0.00  0.00    -0.114 S 
ATOM      2  O   UNL     1      32.863 -24.167 -16.197  0.00  0.00    -0.273 OA
ATOM      3  N   UNL     1      34.643 -22.712 -16.719  0.00  0.00    -0.242 N 
ATOM      4  C   UNL     1      35.409 -22.133 -15.631  0.00  0.00    +0.155 C 
ATOM      5  CA  UNL     1      34.695 -23.151 -14.713  0.00  0.00    +0.178 C 
ATOM      6  C   UNL     1      33.822 -23.470 -15.961  0.00  0.00    +0.251 C 
ATOM      7  CA  UNL     1      34.862 -22.431 -18.029  0.00  0.00    +0.127 C 
ATOM      8  C   UNL     1      35.998 -21.819 -18.440  0.00  0.00    +0.030 C 
ATOM      9  C   UNL     1      37.159 -21.484 -17.505  0.00  0.00    +0.086 C 
ENDROOT
BRANCH   5  11
ATOM     10  O   UNL     1      35.599 -23.608 -12.011  0.00  0.00    -0.275 OA
ATOM     11  N   UNL     1      35.452 -24.300 -14.221  0.00  0.00    -0.296 N 
ATOM     12  C   UNL     1      35.845 -24.432 -12.891  0.00  0.00    +0.228 C 
ATOM     13  H   UNL     1      35.694 -25.013 -14.856  0.00  0.00    +0.150 HD
BRANCH  12  14
ATOM     14  C   UNL     1      36.605 -25.711 -12.605  0.00  0.00    +0.118 C 
BRANCH  14  16
ATOM     15  S   UNL     1      38.053 -26.573 -14.790  0.00  0.00    -0.090 S 
ATOM     16  C   UNL     1      37.912 -25.682 -13.348  0.00  0.00    +0.016 C 
ATOM     17  C   UNL     1      39.049 -25.012 -13.009  0.00  0.00    +0.003 C 
ATOM     18  C   UNL     1      40.082 -25.230 -13.966  0.00  0.00    +0.007 C 
ATOM     19  C   UNL     1      39.675 -26.061 -14.987  0.00  0.00    +0.035 C 
ENDBRANCH  14  16
ENDBRANCH  12  14
ENDBRANCH   5  11
BRANCH   7  21
ATOM     20  OXT UNL     1      33.895 -23.928 -19.602  0.00  0.00    -0.244 OA
ATOM     21  C   UNL     1      33.842 -22.880 -18.988  0.00  0.00    +0.352 C 
BRANCH  21  22
ATOM     22  O   UNL     1      32.865 -21.957 -19.067  0.00  0.00    -0.476 OA
ATOM     23  H   UNL     1      33.011 -21.093 -18.737  0.00  0.00    +0.295 HD
ENDBRANCH  21  22
ENDBRANCH   7  21
BRANCH   8  24
ATOM     24  C   UNL     1      36.281 -21.401 -19.863  0.00  0.00    +0.233 C 
BRANCH  24  25
ATOM     25  O   UNL     1      36.078 -20.009 -19.992  0.00  0.00    -0.444 OA
BRANCH  25  27
ATOM     26  O   UNL     1      33.998 -19.990 -20.997  0.00  0.00    -0.250 OA
ATOM     27  C   UNL     1      35.162 -19.616 -20.934  0.00  0.00    +0.318 C 
ATOM     28  C   UNL     1      35.787 -18.648 -21.892  0.00  0.00    +0.121 C 
ENDBRANCH  25  27
ENDBRANCH  24  25
ENDBRANCH   8  24
TORSDOF 8
ENDMDL
MODEL 4
REMARK VINA RESULT:      -8.7      3.428      5.190
REMARK  Name = 6024
REMARK  8 active torsions:
REMARK  status: ('A' for Active; 'I' for Inactive)
REMARK    1  A    between atoms: CA_5  and  N_11
REMARK    2  A    between atoms: CA_7  and  C_21
REMARK    3  A    between atoms: C_8  and  C_24
REMARK    4  A    between atoms: C_12  and  C_14
REMARK    5  A    between atoms: C_14  and  C_16
REMARK    6  A    between atoms: C_21  and  O_22
REMARK    7  A    between atoms: C_24  and  O_25
REMARK    8  A    between atoms: O_25  and  C_27
REMARK                            x       y       z     vdW  Elec       q    Type
REMARK                         _______ _______ _______ _____ _____    ______ ____
ROOT
ATOM      1  S   UNL     1      34.207 -15.447 -21.115  0.00  0.00    -0.114 S 
ATOM      2  O   UNL     1      33.418 -14.920 -25.666  0.00  0.00    -0.273 OA
ATOM      3  N   UNL     1      34.405 -15.842 -23.734  0.00  0.00    -0.242 N 
ATOM      4  C   UNL     1      34.897 -14.942 -22.707  0.00  0.00    +0.155 C 
ATOM      5  CA  UNL     1      34.141 -13.824 -23.459  0.00  0.00    +0.178 C 
ATOM      6  C   UNL     1      33.910 -14.897 -24.562  0.00  0.00    +0.251 C 
ATOM      7  CA  UNL     1      34.516 -17.194 -23.668  0.00  0.00    +0.127 C 
ATOM      8  C   UNL     1      34.831 -17.822 -22.510  0.00  0.00    +0.030 C 
ATOM      9  C   UNL     1      34.987 -17.097 -21.176  0.00  0.00    +0.086 C 
ENDROOT
BRANCH   5  11
ATOM     10  O   UNL     1      33.172 -11.107 -23.575  0.00  0.00    -0.275 OA
ATOM     11  N   UNL     1      32.902 -13.305 -22.881  0.00  0.00    -0.296 N 
ATOM     12  C   UNL     1      32.519 -11.971 -22.990  0.00  0.00    +0.228 C 
ATOM     13  H   UNL     1      32.313 -13.926 -22.394  0.00  0.00    +0.150 HD
BRANCH  12  14
ATOM     14  C   UNL     1      31.191 -11.663 -22.329  0.00  0.00    +0.118 C 
BRANCH  14  16
ATOM     15  S   UNL     1      31.876  -9.262 -21.154  0.00  0.00    -0.090 S 
ATOM     16  C   UNL     1      31.441 -10.903 -21.056  0.00  0.00    +0.016 C 
ATOM     17  C   UNL     1      31.365 -11.370 -19.777  0.00  0.00    +0.003 C 
ATOM     18  C   UNL     1      31.672 -10.347 -18.834  0.00  0.00    +0.007 C 
ATOM     19  C   UNL     1      31.970  -9.150 -19.448  0.00  0.00    +0.035 C 
ENDBRANCH  14  16
ENDBRANCH  12  14
ENDBRANCH   5  11
BRANCH   7  21
ATOM     20  OXT UNL     1      33.483 -18.916 -24.939  0.00  0.00    -0.244 OA
ATOM     21  C   UNL     1      34.216 -17.948 -24.894  0.00  0.00    +0.352 C 
BRANCH  21  22
ATOM     22  O   UNL     1      34.876 -17.397 -25.931  0.00  0.00    -0.476 OA
ATOM     23  H   UNL     1      35.450 -17.922 -26.452  0.00  0.00    +0.295 HD
ENDBRANCH  21  22
ENDBRANCH   7  21
BRANCH   8  24
ATOM     24  C   UNL     1      35.053 -19.310 -22.375  0.00  0.00    +0.233 C 
BRANCH  24  25
ATOM     25  O   UNL     1      34.079 -19.851 -21.506  0.00  0.00    -0.444 OA
BRANCH  25  27
ATOM     26  O   UNL     1      35.687 -20.338 -19.922  0.00  0.00    -0.250 OA
ATOM     27  C   UNL     1      34.550 -20.441 -20.362  0.00  0.00    +0.318 C 
ATOM     28  C   UNL     1      33.466 -21.244 -19.709  0.00  0.00    +0.121 C 
ENDBRANCH  25  27
ENDBRANCH  24  25
ENDBRANCH   8  24
TORSDOF 8
ENDMDL
MODEL 5
REMARK VINA RESULT:      -8.4     10.687     13.994
REMARK  Name = 6024
REMARK  8 active torsions:
REMARK  status: ('A' for Active; 'I' for Inactive)
REMARK    1  A    between atoms: CA_5  and  N_11
REMARK    2  A    between atoms: CA_7  and  C_21
REMARK    3  A    between atoms: C_8  and  C_24
REMARK    4  A    between atoms: C_12  and  C_14
REMARK    5  A    between atoms: C_14  and  C_16
REMARK    6  A    between atoms: C_21  and  O_22
REMARK    7  A    between atoms: C_24  and  O_25
REMARK    8  A    between atoms: O_25  and  C_27
REMARK                            x       y       z     vdW  Elec       q    Type
REMARK                         _______ _______ _______ _____ _____    ______ ____
ROOT
ATOM      1  S   UNL     1      36.526 -22.589 -16.228  0.00  0.00    -0.114 S 
ATOM      2  O   UNL     1      32.492 -24.327 -14.706  0.00  0.00    -0.273 OA
ATOM      3  N   UNL     1      34.825 -23.991 -14.748  0.00  0.00    -0.242 N 
ATOM      4  C   UNL     1      35.517 -24.073 -16.021  0.00  0.00    +0.155 C 
ATOM      5  CA  UNL     1      34.116 -24.048 -16.674  0.00  0.00    +0.178 C 
ATOM      6  C   UNL     1      33.577 -24.188 -15.222  0.00  0.00    +0.251 C 
ATOM      7  CA  UNL     1      35.450 -23.773 -13.562  0.00  0.00    +0.127 C 
ATOM      8  C   UNL     1      36.728 -23.324 -13.509  0.00  0.00    +0.030 C 
ATOM      9  C   UNL     1      37.534 -22.933 -14.745  0.00  0.00    +0.086 C 
ENDROOT
BRANCH   5  11
ATOM     10  O   UNL     1      33.819 -23.633 -19.515  0.00  0.00    -0.275 OA
ATOM     11  N   UNL     1      33.679 -22.825 -17.344  0.00  0.00    -0.296 N 
ATOM     12  C   UNL     1      33.566 -22.721 -18.729  0.00  0.00    +0.228 C 
ATOM     13  H   UNL     1      33.453 -22.039 -16.794  0.00  0.00    +0.150 HD
BRANCH  12  14
ATOM     14  C   UNL     1      33.079 -21.366 -19.200  0.00  0.00    +0.118 C 
BRANCH  14  16
ATOM     15  S   UNL     1      33.825 -19.412 -21.001  0.00  0.00    -0.090 S 
ATOM     16  C   UNL     1      34.202 -20.660 -19.909  0.00  0.00    +0.016 C 
ATOM     17  C   UNL     1      35.539 -20.895 -19.793  0.00  0.00    +0.003 C 
ATOM     18  C   UNL     1      36.293 -20.020 -20.628  0.00  0.00    +0.007 C 
ATOM     19  C   UNL     1      35.484 -19.162 -21.340  0.00  0.00    +0.035 C 
ENDBRANCH  14  16
ENDBRANCH  12  14
ENDBRANCH   5  11
BRANCH   7  21
ATOM     20  OXT UNL     1      34.944 -24.781 -11.471  0.00  0.00    -0.244 OA
ATOM     21  C   UNL     1      34.659 -23.983 -12.342  0.00  0.00    +0.352 C 
BRANCH  21  22
ATOM     22  O   UNL     1      33.592 -23.160 -12.353  0.00  0.00    -0.476 OA
ATOM     23  H   UNL     1      32.729 -23.513 -12.261  0.00  0.00    +0.295 HD
ENDBRANCH  21  22
ENDBRANCH   7  21
BRANCH   8  24
ATOM     24  C   UNL     1      37.517 -23.135 -12.236  0.00  0.00    +0.233 C 
BRANCH  24  25
ATOM     25  O   UNL     1      38.707 -23.893 -12.305  0.00  0.00    -0.444 OA
BRANCH  25  27
ATOM     26  O   UNL     1      37.840 -25.964 -11.759  0.00  0.00    -0.250 OA
ATOM     27  C   UNL     1      38.553 -25.248 -12.451  0.00  0.00    +0.318 C 
ATOM     28  C   UNL     1      39.389 -25.746 -13.590  0.00  0.00    +0.121 C 
ENDBRANCH  25  27
ENDBRANCH  24  25
ENDBRANCH   8  24
TORSDOF 8
ENDMDL
MODEL 6
REMARK VINA RESULT:      -8.2      2.775      8.550
REMARK  Name = 6024
REMARK  8 active torsions:
REMARK  status: ('A' for Active; 'I' for Inactive)
REMARK    1  A    between atoms: CA_5  and  N_11
REMARK    2  A    between atoms: CA_7  and  C_21
REMARK    3  A    between atoms: C_8  and  C_24
REMARK    4  A    between atoms: C_12  and  C_14
REMARK    5  A    between atoms: C_14  and  C_16
REMARK    6  A    between atoms: C_21  and  O_22
REMARK    7  A    between atoms: C_24  and  O_25
REMARK    8  A    between atoms: O_25  and  C_27
REMARK                            x       y       z     vdW  Elec       q    Type
REMARK                         _______ _______ _______ _____ _____    ______ ____
ROOT
ATOM      1  S   UNL     1      32.037 -11.918 -20.350  0.00  0.00    -0.114 S 
ATOM      2  O   UNL     1      33.959 -11.932 -24.582  0.00  0.00    -0.273 OA
ATOM      3  N   UNL     1      32.615 -11.131 -22.819  0.00  0.00    -0.242 N 
ATOM      4  C   UNL     1      31.747 -12.066 -22.126  0.00  0.00    +0.155 C 
ATOM      5  CA  UNL     1      32.525 -13.182 -22.859  0.00  0.00    +0.178 C 
ATOM      6  C   UNL     1      33.187 -12.023 -23.657  0.00  0.00    +0.251 C 
ATOM      7  CA  UNL     1      32.670  -9.804 -22.539  0.00  0.00    +0.127 C 
ATOM      8  C   UNL     1      32.138  -9.298 -21.401  0.00  0.00    +0.030 C 
ATOM      9  C   UNL     1      31.529 -10.165 -20.300  0.00  0.00    +0.086 C 
ENDROOT
BRANCH   5  11
ATOM     10  O   UNL     1      31.977 -15.615 -21.404  0.00  0.00    -0.275 OA
ATOM     11  N   UNL     1      33.478 -13.986 -22.097  0.00  0.00    -0.296 N 
ATOM     12  C   UNL     1      33.117 -15.152 -21.425  0.00  0.00    +0.228 C 
ATOM     13  H   UNL     1      34.418 -13.692 -22.057  0.00  0.00    +0.150 HD
BRANCH  12  14
ATOM     14  C   UNL     1      34.272 -15.829 -20.716  0.00  0.00    +0.118 C 
BRANCH  14  16
ATOM     15  S   UNL     1      35.250 -16.924 -23.052  0.00  0.00    -0.090 S 
ATOM     16  C   UNL     1      34.648 -17.074 -21.469  0.00  0.00    +0.016 C 
ATOM     17  C   UNL     1      34.567 -18.365 -21.038  0.00  0.00    +0.003 C 
ATOM     18  C   UNL     1      35.017 -19.273 -22.040  0.00  0.00    +0.007 C 
ATOM     19  C   UNL     1      35.416 -18.623 -23.187  0.00  0.00    +0.035 C 
ENDBRANCH  14  16
ENDBRANCH  12  14
ENDBRANCH   5  11
BRANCH   7  21
ATOM     20  OXT UNL     1      34.597  -8.806 -23.510  0.00  0.00    -0.244 OA
ATOM     21  C   UNL     1      33.390  -8.950 -23.495  0.00  0.00    +0.352 C 
BRANCH  21  22
ATOM     22  O   UNL     1      32.506  -8.369 -24.330  0.00  0.00    -0.476 OA
ATOM     23  H   UNL     1      31.652  -8.737 -24.437  0.00  0.00    +0.295 HD
ENDBRANCH  21  22
ENDBRANCH   7  21
BRANCH   8  24
ATOM     24  C   UNL     1      32.087  -7.829 -21.056  0.00  0.00    +0.233 C 
BRANCH  24  25
ATOM     25  O   UNL     1      31.108  -7.195 -21.853  0.00  0.00    -0.444 OA
BRANCH  25  27
ATOM     26  O   UNL     1      32.298  -5.600 -23.027  0.00  0.00    -0.250 OA
ATOM     27  C   UNL     1      31.396  -5.918 -22.263  0.00  0.00    +0.318 C 
ATOM     28  C   UNL     1      30.440  -4.947 -21.641  0.00  0.00    +0.121 C 
ENDBRANCH  25  27
ENDBRANCH  24  25
ENDBRANCH   8  24
TORSDOF 8
ENDMDL
MODEL 7
REMARK VINA RESULT:      -8.2      3.033      8.536
REMARK  Name = 6024
REMARK  8 active torsions:
REMARK  status: ('A' for Active; 'I' for Inactive)
REMARK    1  A    between atoms: CA_5  and  N_11
REMARK    2  A    between atoms: CA_7  and  C_21
REMARK    3  A    between atoms: C_8  and  C_24
REMARK    4  A    between atoms: C_12  and  C_14
REMARK    5  A    between atoms: C_14  and  C_16
REMARK    6  A    between atoms: C_21  and  O_22
REMARK    7  A    between atoms: C_24  and  O_25
REMARK    8  A    between atoms: O_25  and  C_27
REMARK                            x       y       z     vdW  Elec       q    Type
REMARK                         _______ _______ _______ _____ _____    ______ ____
ROOT
ATOM      1  S   UNL     1      32.368 -13.379 -21.598  0.00  0.00    -0.114 S 
ATOM      2  O   UNL     1      34.263 -11.710 -25.500  0.00  0.00    -0.273 OA
ATOM      3  N   UNL     1      32.793 -11.759 -23.657  0.00  0.00    -0.242 N 
ATOM      4  C   UNL     1      32.111 -13.002 -23.345  0.00  0.00    +0.155 C 
ATOM      5  CA  UNL     1      33.081 -13.673 -24.343  0.00  0.00    +0.178 C 
ATOM      6  C   UNL     1      33.519 -12.223 -24.697  0.00  0.00    +0.251 C 
ATOM      7  CA  UNL     1      32.603 -10.602 -22.973  0.00  0.00    +0.127 C 
ATOM      8  C   UNL     1      31.986 -10.586 -21.767  0.00  0.00    +0.030 C 
ATOM      9  C   UNL     1      31.546 -11.850 -21.032  0.00  0.00    +0.086 C 
ENDROOT
BRANCH   5  11
ATOM     10  O   UNL     1      33.758 -16.366 -25.132  0.00  0.00    -0.275 OA
ATOM     11  N   UNL     1      34.166 -14.499 -23.816  0.00  0.00    -0.296 N 
ATOM     12  C   UNL     1      34.414 -15.795 -24.263  0.00  0.00    +0.228 C 
ATOM     13  H   UNL     1      34.747 -14.123 -23.115  0.00  0.00    +0.150 HD
BRANCH  12  14
ATOM     14  C   UNL     1      35.599 -16.455 -23.587  0.00  0.00    +0.118 C 
BRANCH  14  16
ATOM     15  S   UNL     1      34.308 -17.273 -21.289  0.00  0.00    -0.090 S 
ATOM     16  C   UNL     1      35.109 -17.605 -22.751  0.00  0.00    +0.016 C 
ATOM     17  C   UNL     1      35.225 -18.937 -23.017  0.00  0.00    +0.003 C 
ATOM     18  C   UNL     1      34.635 -19.723 -21.985  0.00  0.00    +0.007 C 
ATOM     19  C   UNL     1      34.100 -18.944 -20.983  0.00  0.00    +0.035 C 
ENDBRANCH  14  16
ENDBRANCH  12  14
ENDBRANCH   5  11
BRANCH   7  21
ATOM     20  OXT UNL     1      32.489  -8.534 -24.139  0.00  0.00    -0.244 OA
ATOM     21  C   UNL     1      33.154  -9.376 -23.569  0.00  0.00    +0.352 C 
BRANCH  21  22
ATOM     22  O   UNL     1      34.488  -9.346 -23.380  0.00  0.00    -0.476 OA
ATOM     23  H   UNL     1      34.870  -9.828 -22.674  0.00  0.00    +0.295 HD
ENDBRANCH  21  22
ENDBRANCH   7  21
BRANCH   8  24
ATOM     24  C   UNL     1      31.666  -9.336 -20.984  0.00  0.00    +0.233 C 
BRANCH  24  25
ATOM     25  O   UNL     1      32.840  -8.566 -20.830  0.00  0.00    -0.444 OA
BRANCH  25  27
ATOM     26  O   UNL     1      32.972  -6.842 -19.298  0.00  0.00    -0.250 OA
ATOM     27  C   UNL     1      32.665  -7.275 -20.401  0.00  0.00    +0.318 C 
ATOM     28  C   UNL     1      32.036  -6.450 -21.482  0.00  0.00    +0.121 C 
ENDBRANCH  25  27
ENDBRANCH  24  25
ENDBRANCH   8  24
TORSDOF 8
ENDMDL
MODEL 8
REMARK VINA RESULT:      -8.2      9.713     13.632
REMARK  Name = 6024
REMARK  8 active torsions:
REMARK  status: ('A' for Active; 'I' for Inactive)
REMARK    1  A    between atoms: CA_5  and  N_11
REMARK    2  A    between atoms: CA_7  and  C_21
REMARK    3  A    between atoms: C_8  and  C_24
REMARK    4  A    between atoms: C_12  and  C_14
REMARK    5  A    between atoms: C_14  and  C_16
REMARK    6  A    between atoms: C_21  and  O_22
REMARK    7  A    between atoms: C_24  and  O_25
REMARK    8  A    between atoms: O_25  and  C_27
REMARK                            x       y       z     vdW  Elec       q    Type
REMARK                         _______ _______ _______ _____ _____    ______ ____
ROOT
ATOM      1  S   UNL     1      33.186 -23.004 -17.884  0.00  0.00    -0.114 S 
ATOM      2  O   UNL     1      35.982 -22.927 -14.171  0.00  0.00    -0.273 OA
ATOM      3  N   UNL     1      35.428 -22.988 -16.461  0.00  0.00    -0.242 N 
ATOM      4  C   UNL     1      34.401 -23.914 -16.904  0.00  0.00    +0.155 C 
ATOM      5  CA  UNL     1      34.069 -24.110 -15.408  0.00  0.00    +0.178 C 
ATOM      6  C   UNL     1      35.351 -23.270 -15.143  0.00  0.00    +0.251 C 
ATOM      7  CA  UNL     1      36.126 -22.178 -17.299  0.00  0.00    +0.127 C 
ATOM      8  C   UNL     1      35.718 -21.958 -18.572  0.00  0.00    +0.030 C 
ATOM      9  C   UNL     1      34.411 -22.504 -19.142  0.00  0.00    +0.086 C 
ENDROOT
BRANCH   5  11
ATOM     10  O   UNL     1      31.965 -25.428 -13.934  0.00  0.00    -0.275 OA
ATOM     11  N   UNL     1      32.851 -23.501 -14.876  0.00  0.00    -0.296 N 
ATOM     12  C   UNL     1      31.889 -24.224 -14.173  0.00  0.00    +0.228 C 
ATOM     13  H   UNL     1      32.704 -22.537 -15.019  0.00  0.00    +0.150 HD
BRANCH  12  14
ATOM     14  C   UNL     1      30.720 -23.383 -13.703  0.00  0.00    +0.118 C 
BRANCH  14  16
ATOM     15  S   UNL     1      29.421 -24.625 -15.797  0.00  0.00    -0.090 S 
ATOM     16  C   UNL     1      29.718 -23.267 -14.819  0.00  0.00    +0.016 C 
ATOM     17  C   UNL     1      28.985 -22.172 -15.169  0.00  0.00    +0.003 C 
ATOM     18  C   UNL     1      28.142 -22.451 -16.284  0.00  0.00    +0.007 C 
ATOM     19  C   UNL     1      28.280 -23.749 -16.725  0.00  0.00    +0.035 C 
ENDBRANCH  14  16
ENDBRANCH  12  14
ENDBRANCH   5  11
BRANCH   7  21
ATOM     20  OXT UNL     1      37.537 -20.315 -16.870  0.00  0.00    -0.244 OA
ATOM     21  C   UNL     1      37.306 -21.501 -16.743  0.00  0.00    +0.352 C 
BRANCH  21  22
ATOM     22  O   UNL     1      38.068 -22.397 -16.085  0.00  0.00    -0.476 OA
ATOM     23  H   UNL     1      38.958 -22.531 -16.342  0.00  0.00    +0.295 HD
ENDBRANCH  21  22
ENDBRANCH   7  21
BRANCH   8  24
ATOM     24  C   UNL     1      36.479 -21.139 -19.586  0.00  0.00    +0.233 C 
BRANCH  24  25
ATOM     25  O   UNL     1      35.633 -20.841 -20.677  0.00  0.00    -0.444 OA
BRANCH  25  27
ATOM     26  O   UNL     1      36.071 -18.573 -20.662  0.00  0.00    -0.250 OA
ATOM     27  C   UNL     1      35.317 -19.518 -20.854  0.00  0.00    +0.318 C 
ATOM     28  C   UNL     1      33.900 -19.381 -21.322  0.00  0.00    +0.121 C 
ENDBRANCH  25  27
ENDBRANCH  24  25
ENDBRANCH   8  24
TORSDOF 8
ENDMDL
MODEL 9
REMARK VINA RESULT:      -8.1      1.722      2.260
REMARK  Name = 6024
REMARK  8 active torsions:
REMARK  status: ('A' for Active; 'I' for Inactive)
REMARK    1  A    between atoms: CA_5  and  N_11
REMARK    2  A    between atoms: CA_7  and  C_21
REMARK    3  A    between atoms: C_8  and  C_24
REMARK    4  A    between atoms: C_12  and  C_14
REMARK    5  A    between atoms: C_14  and  C_16
REMARK    6  A    between atoms: C_21  and  O_22
REMARK    7  A    between atoms: C_24  and  O_25
REMARK    8  A    between atoms: O_25  and  C_27
REMARK                            x       y       z     vdW  Elec       q    Type
REMARK                         _______ _______ _______ _____ _____    ______ ____
ROOT
ATOM      1  S   UNL     1      33.741 -13.285 -24.620  0.00  0.00    -0.114 S 
ATOM      2  O   UNL     1      32.325 -12.968 -20.204  0.00  0.00    -0.273 OA
ATOM      3  N   UNL     1      32.920 -14.048 -22.212  0.00  0.00    -0.242 N 
ATOM      4  C   UNL     1      32.379 -13.543 -23.461  0.00  0.00    +0.155 C 
ATOM      5  CA  UNL     1      31.923 -12.308 -22.652  0.00  0.00    +0.178 C 
ATOM      6  C   UNL     1      32.367 -13.121 -21.402  0.00  0.00    +0.251 C 
ATOM      7  CA  UNL     1      33.722 -15.141 -22.125  0.00  0.00    +0.127 C 
ATOM      8  C   UNL     1      34.317 -15.671 -23.221  0.00  0.00    +0.030 C 
ATOM      9  C   UNL     1      34.227 -15.045 -24.611  0.00  0.00    +0.086 C 
ENDROOT
BRANCH   5  11
ATOM     10  O   UNL     1      30.806  -9.648 -22.763  0.00  0.00    -0.275 OA
ATOM     11  N   UNL     1      32.653 -11.052 -22.821  0.00  0.00    -0.296 N 
ATOM     12  C   UNL     1      32.021  -9.811 -22.863  0.00  0.00    +0.228 C 
ATOM     13  H   UNL     1      33.634 -11.084 -22.908  0.00  0.00    +0.150 HD
BRANCH  12  14
ATOM     14  C   UNL     1      32.977  -8.647 -23.029  0.00  0.00    +0.118 C 
BRANCH  14  16
ATOM     15  S   UNL     1      31.683  -6.432 -24.046  0.00  0.00    -0.090 S 
ATOM     16  C   UNL     1      32.245  -7.366 -22.741  0.00  0.00    +0.016 C 
ATOM     17  C   UNL     1      31.958  -6.826 -21.523  0.00  0.00    +0.003 C 
ATOM     18  C   UNL     1      31.248  -5.597 -21.656  0.00  0.00    +0.007 C 
ATOM     19  C   UNL     1      31.033  -5.265 -22.976  0.00  0.00    +0.035 C 
ENDBRANCH  14  16
ENDBRANCH  12  14
ENDBRANCH   5  11
BRANCH   7  21
ATOM     20  OXT UNL     1      34.905 -15.364 -20.077  0.00  0.00    -0.244 OA
ATOM     21  C   UNL     1      33.968 -15.683 -20.781  0.00  0.00    +0.352 C 
BRANCH  21  22
ATOM     22  O   UNL     1      33.001 -16.569 -20.472  0.00  0.00    -0.476 OA
ATOM     23  H   UNL     1      32.101 -16.340 -20.592  0.00  0.00    +0.295 HD
ENDBRANCH  21  22
ENDBRANCH   7  21
BRANCH   8  24
ATOM     24  C   UNL     1      35.154 -16.927 -23.219  0.00  0.00    +0.233 C 
BRANCH  24  25
ATOM     25  O   UNL     1      34.320 -18.045 -22.994  0.00  0.00    -0.444 OA
BRANCH  25  27
ATOM     26  O   UNL     1      34.134 -19.918 -21.656  0.00  0.00    -0.250 OA
ATOM     27  C   UNL     1      34.766 -18.957 -22.073  0.00  0.00    +0.318 C 
ATOM     28  C   UNL     1      36.158 -18.613 -21.636  0.00  0.00    +0.121 C 
ENDBRANCH  25  27
ENDBRANCH  24  25
ENDBRANCH   8  24
TORSDOF 8
ENDMDL
