MODEL 1
REMARK VINA RESULT:      -8.2      0.000      0.000
REMARK  Name = 444632
REMARK  6 active torsions:
REMARK  status: ('A' for Active; 'I' for Inactive)
REMARK    1  A    between atoms: C_7  and  C_16
REMARK    2  A    between atoms: C_16  and  O_17
REMARK    3  A    between atoms: C_16  and  C_19
REMARK    4  A    between atoms: C_19  and  O_20
REMARK    5  A    between atoms: C_19  and  C_22
REMARK    6  A    between atoms: C_22  and  O_23
REMARK                            x       y       z     vdW  Elec       q    Type
REMARK                         _______ _______ _______ _____ _____    ______ ____
ROOT
ATOM      1  O   UNL     1      34.135 -23.873 -17.415  0.00  0.00    -0.206 OA
ATOM      2  N   UNL     1      35.657 -24.738 -15.398  0.00  0.00    -0.391 NA
ATOM      3  N   UNL     1      34.675 -24.423 -12.787  0.00  0.00    -0.246 NA
ATOM      4  N   UNL     1      32.705 -23.405 -13.711  0.00  0.00    -0.259 N 
ATOM      5  N   UNL     1      32.434 -23.127 -16.062  0.00  0.00    -0.300 NA
ATOM      6  N   UNL     1      30.799 -22.425 -14.532  0.00  0.00    -0.320 N 
ATOM      7  C   UNL     1      36.355 -25.144 -14.323  0.00  0.00    +0.141 C 
ATOM      8  C   UNL     1      34.462 -24.172 -15.133  0.00  0.00    +0.255 C 
ATOM      9  C   UNL     1      35.873 -24.990 -13.041  0.00  0.00    +0.183 C 
ATOM     10  C   UNL     1      33.959 -24.008 -13.853  0.00  0.00    +0.173 C 
ATOM     11  C   UNL     1      33.665 -23.712 -16.292  0.00  0.00    +0.240 C 
ATOM     12  C   UNL     1      32.011 -22.997 -14.829  0.00  0.00    +0.249 C 
ATOM     13  H   UNL     1      32.319 -23.273 -12.815  0.00  0.00    +0.157 HD
ATOM     14  H   UNL     1      30.511 -22.343 -13.595  0.00  0.00    +0.146 HD
ATOM     15  H   UNL     1      30.219 -22.098 -15.257  0.00  0.00    +0.146 HD
ENDROOT
BRANCH   7  16
ATOM     16  C   UNL     1      37.683 -25.776 -14.559  0.00  0.00    +0.190 C 
BRANCH  16  17
ATOM     17  O   UNL     1      37.667 -26.500 -15.802  0.00  0.00    -0.376 OA
ATOM     18  H   UNL     1      38.368 -27.170 -15.794  0.00  0.00    +0.211 HD
ENDBRANCH  16  17
BRANCH  16  19
ATOM     19  C   UNL     1      38.896 -24.811 -14.569  0.00  0.00    +0.173 C 
BRANCH  19  20
ATOM     20  O   UNL     1      38.757 -23.893 -15.655  0.00  0.00    -0.379 OA
ATOM     21  H   UNL     1      39.153 -23.042 -15.412  0.00  0.00    +0.211 HD
ENDBRANCH  19  20
BRANCH  19  22
ATOM     22  C   UNL     1      40.233 -25.537 -14.694  0.00  0.00    +0.169 C 
BRANCH  22  23
ATOM     23  O   UNL     1      40.427 -25.909 -16.054  0.00  0.00    -0.379 OA
ATOM     24  H   UNL     1      41.304 -26.311 -16.158  0.00  0.00    +0.211 HD
ENDBRANCH  22  23
ENDBRANCH  19  22
ENDBRANCH  16  19
ENDBRANCH   7  16
TORSDOF 6
ENDMDL
MODEL 2
REMARK VINA RESULT:      -8.1      6.194      8.399
REMARK  Name = 444632
REMARK  6 active torsions:
REMARK  status: ('A' for Active; 'I' for Inactive)
REMARK    1  A    between atoms: C_7  and  C_16
REMARK    2  A    between atoms: C_16  and  O_17
REMARK    3  A    between atoms: C_16  and  C_19
REMARK    4  A    between atoms: C_19  and  O_20
REMARK    5  A    between atoms: C_19  and  C_22
REMARK    6  A    between atoms: C_22  and  O_23
REMARK                            x       y       z     vdW  Elec       q    Type
REMARK                         _______ _______ _______ _____ _____    ______ ____
ROOT
ATOM      1  O   UNL     1      36.815 -21.768 -18.686  0.00  0.00    -0.206 OA
ATOM      2  N   UNL     1      35.443 -20.374 -20.506  0.00  0.00    -0.391 NA
ATOM      3  N   UNL     1      32.646 -20.619 -20.508  0.00  0.00    -0.246 NA
ATOM      4  N   UNL     1      32.834 -22.143 -18.661  0.00  0.00    -0.259 N 
ATOM      5  N   UNL     1      34.953 -22.725 -17.738  0.00  0.00    -0.300 NA
ATOM      6  N   UNL     1      32.948 -23.605 -16.896  0.00  0.00    -0.320 N 
ATOM      7  C   UNL     1      34.673 -19.710 -21.386  0.00  0.00    +0.141 C 
ATOM      8  C   UNL     1      34.780 -21.160 -19.634  0.00  0.00    +0.255 C 
ATOM      9  C   UNL     1      33.300 -19.830 -21.387  0.00  0.00    +0.183 C 
ATOM     10  C   UNL     1      33.402 -21.295 -19.617  0.00  0.00    +0.173 C 
ATOM     11  C   UNL     1      35.596 -21.908 -18.650  0.00  0.00    +0.240 C 
ATOM     12  C   UNL     1      33.647 -22.812 -17.772  0.00  0.00    +0.249 C 
ATOM     13  H   UNL     1      31.858 -22.261 -18.623  0.00  0.00    +0.157 HD
ATOM     14  H   UNL     1      31.966 -23.648 -16.948  0.00  0.00    +0.146 HD
ATOM     15  H   UNL     1      33.429 -24.129 -16.215  0.00  0.00    +0.146 HD
ENDROOT
BRANCH   7  16
ATOM     16  C   UNL     1      35.354 -18.828 -22.373  0.00  0.00    +0.190 C 
BRANCH  16  17
ATOM     17  O   UNL     1      34.608 -18.798 -23.602  0.00  0.00    -0.376 OA
ATOM     18  H   UNL     1      35.078 -18.251 -24.252  0.00  0.00    +0.211 HD
ENDBRANCH  16  17
BRANCH  16  19
ATOM     19  C   UNL     1      35.601 -17.368 -21.913  0.00  0.00    +0.173 C 
BRANCH  19  20
ATOM     20  O   UNL     1      35.305 -17.258 -20.520  0.00  0.00    -0.379 OA
ATOM     21  H   UNL     1      34.345 -17.200 -20.397  0.00  0.00    +0.211 HD
ENDBRANCH  19  20
BRANCH  19  22
ATOM     22  C   UNL     1      34.764 -16.351 -22.686  0.00  0.00    +0.169 C 
BRANCH  22  23
ATOM     23  O   UNL     1      35.521 -15.887 -23.799  0.00  0.00    -0.379 OA
ATOM     24  H   UNL     1      35.022 -16.044 -24.617  0.00  0.00    +0.211 HD
ENDBRANCH  22  23
ENDBRANCH  19  22
ENDBRANCH  16  19
ENDBRANCH   7  16
TORSDOF 6
ENDMDL
MODEL 3
REMARK VINA RESULT:      -8.0      2.616      3.530
REMARK  Name = 444632
REMARK  6 active torsions:
REMARK  status: ('A' for Active; 'I' for Inactive)
REMARK    1  A    between atoms: C_7  and  C_16
REMARK    2  A    between atoms: C_16  and  O_17
REMARK    3  A    between atoms: C_16  and  C_19
REMARK    4  A    between atoms: C_19  and  O_20
REMARK    5  A    between atoms: C_19  and  C_22
REMARK    6  A    between atoms: C_22  and  O_23
REMARK                            x       y       z     vdW  Elec       q    Type
REMARK                         _______ _______ _______ _____ _____    ______ ____
ROOT
ATOM      1  O   UNL     1      30.704 -23.905 -12.597  0.00  0.00    -0.206 OA
ATOM      2  N   UNL     1      33.305 -24.013 -13.196  0.00  0.00    -0.391 NA
ATOM      3  N   UNL     1      34.065 -23.445 -15.838  0.00  0.00    -0.246 NA
ATOM      4  N   UNL     1      31.750 -23.093 -16.370  0.00  0.00    -0.259 N 
ATOM      5  N   UNL     1      30.045 -23.328 -14.722  0.00  0.00    -0.300 NA
ATOM      6  N   UNL     1      29.555 -22.743 -16.940  0.00  0.00    -0.320 N 
ATOM      7  C   UNL     1      34.591 -24.043 -13.587  0.00  0.00    +0.141 C 
ATOM      8  C   UNL     1      32.415 -23.694 -14.157  0.00  0.00    +0.255 C 
ATOM      9  C   UNL     1      34.965 -23.765 -14.883  0.00  0.00    +0.183 C 
ATOM     10  C   UNL     1      32.769 -23.410 -15.465  0.00  0.00    +0.173 C 
ATOM     11  C   UNL     1      30.988 -23.651 -13.764  0.00  0.00    +0.240 C 
ATOM     12  C   UNL     1      30.440 -23.070 -15.943  0.00  0.00    +0.249 C 
ATOM     13  H   UNL     1      31.968 -22.886 -17.307  0.00  0.00    +0.157 HD
ATOM     14  H   UNL     1      29.885 -22.554 -17.848  0.00  0.00    +0.146 HD
ATOM     15  H   UNL     1      28.591 -22.696 -16.747  0.00  0.00    +0.146 HD
ENDROOT
BRANCH   7  16
ATOM     16  C   UNL     1      35.616 -24.391 -12.563  0.00  0.00    +0.190 C 
BRANCH  16  17
ATOM     17  O   UNL     1      35.011 -25.151 -11.502  0.00  0.00    -0.376 OA
ATOM     18  H   UNL     1      35.257 -26.085 -11.593  0.00  0.00    +0.211 HD
ENDBRANCH  16  17
BRANCH  16  19
ATOM     19  C   UNL     1      36.850 -25.171 -13.084  0.00  0.00    +0.173 C 
BRANCH  19  20
ATOM     20  O   UNL     1      36.673 -26.563 -12.816  0.00  0.00    -0.379 OA
ATOM     21  H   UNL     1      35.881 -26.883 -13.277  0.00  0.00    +0.211 HD
ENDBRANCH  19  20
BRANCH  19  22
ATOM     22  C   UNL     1      38.159 -24.702 -12.454  0.00  0.00    +0.169 C 
BRANCH  22  23
ATOM     23  O   UNL     1      37.895 -24.252 -11.129  0.00  0.00    -0.379 OA
ATOM     24  H   UNL     1      37.657 -25.009 -10.571  0.00  0.00    +0.211 HD
ENDBRANCH  22  23
ENDBRANCH  19  22
ENDBRANCH  16  19
ENDBRANCH   7  16
TORSDOF 6
ENDMDL
MODEL 4
REMARK VINA RESULT:      -7.9      1.432      1.973
REMARK  Name = 444632
REMARK  6 active torsions:
REMARK  status: ('A' for Active; 'I' for Inactive)
REMARK    1  A    between atoms: C_7  and  C_16
REMARK    2  A    between atoms: C_16  and  O_17
REMARK    3  A    between atoms: C_16  and  C_19
REMARK    4  A    between atoms: C_19  and  O_20
REMARK    5  A    between atoms: C_19  and  C_22
REMARK    6  A    between atoms: C_22  and  O_23
REMARK                            x       y       z     vdW  Elec       q    Type
REMARK                         _______ _______ _______ _____ _____    ______ ____
ROOT
ATOM      1  O   UNL     1      34.199 -23.305 -17.899  0.00  0.00    -0.206 OA
ATOM      2  N   UNL     1      34.804 -23.995 -15.390  0.00  0.00    -0.391 NA
ATOM      3  N   UNL     1      32.742 -23.952 -13.486  0.00  0.00    -0.246 NA
ATOM      4  N   UNL     1      31.237 -23.230 -15.214  0.00  0.00    -0.259 N 
ATOM      5  N   UNL     1      31.981 -22.902 -17.454  0.00  0.00    -0.300 NA
ATOM      6  N   UNL     1      29.752 -22.539 -16.820  0.00  0.00    -0.320 N 
ATOM      7  C   UNL     1      35.018 -24.326 -14.105  0.00  0.00    +0.141 C 
ATOM      8  C   UNL     1      33.539 -23.642 -15.695  0.00  0.00    +0.255 C 
ATOM      9  C   UNL     1      34.006 -24.306 -13.170  0.00  0.00    +0.183 C 
ATOM     10  C   UNL     1      32.508 -23.615 -14.772  0.00  0.00    +0.173 C 
ATOM     11  C   UNL     1      33.266 -23.270 -17.102  0.00  0.00    +0.240 C 
ATOM     12  C   UNL     1      31.047 -22.894 -16.537  0.00  0.00    +0.249 C 
ATOM     13  H   UNL     1      30.483 -23.200 -14.583  0.00  0.00    +0.157 HD
ATOM     14  H   UNL     1      29.073 -22.544 -16.108  0.00  0.00    +0.146 HD
ATOM     15  H   UNL     1      29.501 -22.281 -17.737  0.00  0.00    +0.146 HD
ENDROOT
BRANCH   7  16
ATOM     16  C   UNL     1      36.398 -24.724 -13.714  0.00  0.00    +0.190 C 
BRANCH  16  17
ATOM     17  O   UNL     1      36.351 -25.844 -12.813  0.00  0.00    -0.376 OA
ATOM     18  H   UNL     1      36.534 -26.661 -13.303  0.00  0.00    +0.211 HD
ENDBRANCH  16  17
BRANCH  16  19
ATOM     19  C   UNL     1      37.355 -25.075 -14.882  0.00  0.00    +0.173 C 
BRANCH  19  20
ATOM     20  O   UNL     1      36.735 -26.054 -15.718  0.00  0.00    -0.379 OA
ATOM     21  H   UNL     1      36.234 -26.677 -15.168  0.00  0.00    +0.211 HD
ENDBRANCH  19  20
BRANCH  19  22
ATOM     22  C   UNL     1      38.706 -25.604 -14.407  0.00  0.00    +0.169 C 
BRANCH  22  23
ATOM     23  O   UNL     1      38.704 -27.024 -14.509  0.00  0.00    -0.379 OA
ATOM     24  H   UNL     1      37.859 -27.320 -14.885  0.00  0.00    +0.211 HD
ENDBRANCH  22  23
ENDBRANCH  19  22
ENDBRANCH  16  19
ENDBRANCH   7  16
TORSDOF 6
ENDMDL
MODEL 5
REMARK VINA RESULT:      -7.8      2.866      6.436
REMARK  Name = 444632
REMARK  6 active torsions:
REMARK  status: ('A' for Active; 'I' for Inactive)
REMARK    1  A    between atoms: C_7  and  C_16
REMARK    2  A    between atoms: C_16  and  O_17
REMARK    3  A    between atoms: C_16  and  C_19
REMARK    4  A    between atoms: C_19  and  O_20
REMARK    5  A    between atoms: C_19  and  C_22
REMARK    6  A    between atoms: C_22  and  O_23
REMARK                            x       y       z     vdW  Elec       q    Type
REMARK                         _______ _______ _______ _____ _____    ______ ____
ROOT
ATOM      1  O   UNL     1      36.938 -26.153 -11.716  0.00  0.00    -0.206 OA
ATOM      2  N   UNL     1      35.128 -24.960 -13.277  0.00  0.00    -0.391 NA
ATOM      3  N   UNL     1      35.975 -24.022 -15.784  0.00  0.00    -0.246 NA
ATOM      4  N   UNL     1      38.181 -24.827 -15.278  0.00  0.00    -0.259 N 
ATOM      5  N   UNL     1      38.667 -25.909 -13.211  0.00  0.00    -0.300 NA
ATOM      6  N   UNL     1      40.308 -25.575 -14.853  0.00  0.00    -0.320 N 
ATOM      7  C   UNL     1      34.286 -24.347 -14.128  0.00  0.00    +0.141 C 
ATOM      8  C   UNL     1      36.398 -25.089 -13.711  0.00  0.00    +0.255 C 
ATOM      9  C   UNL     1      34.701 -23.887 -15.358  0.00  0.00    +0.183 C 
ATOM     10  C   UNL     1      36.836 -24.633 -14.944  0.00  0.00    +0.173 C 
ATOM     11  C   UNL     1      37.355 -25.758 -12.801  0.00  0.00    +0.240 C 
ATOM     12  C   UNL     1      39.023 -25.457 -14.387  0.00  0.00    +0.249 C 
ATOM     13  H   UNL     1      38.524 -24.515 -16.146  0.00  0.00    +0.157 HD
ATOM     14  H   UNL     1      40.543 -25.225 -15.742  0.00  0.00    +0.146 HD
ATOM     15  H   UNL     1      40.995 -26.010 -14.298  0.00  0.00    +0.146 HD
ENDROOT
BRANCH   7  16
ATOM     16  C   UNL     1      32.871 -24.179 -13.697  0.00  0.00    +0.190 C 
BRANCH  16  17
ATOM     17  O   UNL     1      32.761 -23.061 -12.798  0.00  0.00    -0.376 OA
ATOM     18  H   UNL     1      32.002 -23.194 -12.208  0.00  0.00    +0.211 HD
ENDBRANCH  16  17
BRANCH  16  19
ATOM     19  C   UNL     1      31.836 -23.995 -14.837  0.00  0.00    +0.173 C 
BRANCH  19  20
ATOM     20  O   UNL     1      31.413 -22.631 -14.871  0.00  0.00    -0.379 OA
ATOM     21  H   UNL     1      31.766 -22.203 -15.667  0.00  0.00    +0.211 HD
ENDBRANCH  19  20
BRANCH  19  22
ATOM     22  C   UNL     1      30.613 -24.896 -14.682  0.00  0.00    +0.169 C 
BRANCH  22  23
ATOM     23  O   UNL     1      30.390 -25.130 -13.296  0.00  0.00    -0.379 OA
ATOM     24  H   UNL     1      31.224 -25.387 -12.872  0.00  0.00    +0.211 HD
ENDBRANCH  22  23
ENDBRANCH  19  22
ENDBRANCH  16  19
ENDBRANCH   7  16
TORSDOF 6
ENDMDL
MODEL 6
REMARK VINA RESULT:      -7.8      2.350      3.211
REMARK  Name = 444632
REMARK  6 active torsions:
REMARK  status: ('A' for Active; 'I' for Inactive)
REMARK    1  A    between atoms: C_7  and  C_16
REMARK    2  A    between atoms: C_16  and  O_17
REMARK    3  A    between atoms: C_16  and  C_19
REMARK    4  A    between atoms: C_19  and  O_20
REMARK    5  A    between atoms: C_19  and  C_22
REMARK    6  A    between atoms: C_22  and  O_23
REMARK                            x       y       z     vdW  Elec       q    Type
REMARK                         _______ _______ _______ _____ _____    ______ ____
ROOT
ATOM      1  O   UNL     1      32.352 -24.951 -13.152  0.00  0.00    -0.206 OA
ATOM      2  N   UNL     1      34.914 -24.639 -13.839  0.00  0.00    -0.391 NA
ATOM      3  N   UNL     1      35.472 -23.301 -16.243  0.00  0.00    -0.246 NA
ATOM      4  N   UNL     1      33.109 -23.042 -16.583  0.00  0.00    -0.259 N 
ATOM      5  N   UNL     1      31.527 -23.881 -15.012  0.00  0.00    -0.300 NA
ATOM      6  N   UNL     1      30.863 -22.763 -16.964  0.00  0.00    -0.320 N 
ATOM      7  C   UNL     1      36.174 -24.437 -14.264  0.00  0.00    +0.141 C 
ATOM      8  C   UNL     1      33.947 -24.157 -14.646  0.00  0.00    +0.255 C 
ATOM      9  C   UNL     1      36.449 -23.780 -15.443  0.00  0.00    +0.183 C 
ATOM     10  C   UNL     1      34.201 -23.494 -15.835  0.00  0.00    +0.173 C 
ATOM     11  C   UNL     1      32.547 -24.361 -14.211  0.00  0.00    +0.240 C 
ATOM     12  C   UNL     1      31.828 -23.263 -16.125  0.00  0.00    +0.249 C 
ATOM     13  H   UNL     1      33.255 -22.568 -17.433  0.00  0.00    +0.157 HD
ATOM     14  H   UNL     1      31.124 -22.303 -17.794  0.00  0.00    +0.146 HD
ATOM     15  H   UNL     1      29.911 -22.865 -16.735  0.00  0.00    +0.146 HD
ENDROOT
BRANCH   7  16
ATOM     16  C   UNL     1      37.281 -24.950 -13.410  0.00  0.00    +0.190 C 
BRANCH  16  17
ATOM     17  O   UNL     1      38.545 -24.473 -13.904  0.00  0.00    -0.376 OA
ATOM     18  H   UNL     1      39.265 -24.959 -13.473  0.00  0.00    +0.211 HD
ENDBRANCH  16  17
BRANCH  16  19
ATOM     19  C   UNL     1      37.184 -24.606 -11.901  0.00  0.00    +0.173 C 
BRANCH  19  20
ATOM     20  O   UNL     1      36.039 -25.255 -11.344  0.00  0.00    -0.379 OA
ATOM     21  H   UNL     1      35.389 -24.588 -11.075  0.00  0.00    +0.211 HD
ENDBRANCH  19  20
BRANCH  19  22
ATOM     22  C   UNL     1      37.086 -23.105 -11.638  0.00  0.00    +0.169 C 
BRANCH  22  23
ATOM     23  O   UNL     1      38.399 -22.553 -11.639  0.00  0.00    -0.379 OA
ATOM     24  H   UNL     1      38.780 -22.627 -12.528  0.00  0.00    +0.211 HD
ENDBRANCH  22  23
ENDBRANCH  19  22
ENDBRANCH  16  19
ENDBRANCH   7  16
TORSDOF 6
ENDMDL
MODEL 7
REMARK VINA RESULT:      -7.7      2.688      3.665
REMARK  Name = 444632
REMARK  6 active torsions:
REMARK  status: ('A' for Active; 'I' for Inactive)
REMARK    1  A    between atoms: C_7  and  C_16
REMARK    2  A    between atoms: C_16  and  O_17
REMARK    3  A    between atoms: C_16  and  C_19
REMARK    4  A    between atoms: C_19  and  O_20
REMARK    5  A    between atoms: C_19  and  C_22
REMARK    6  A    between atoms: C_22  and  O_23
REMARK                            x       y       z     vdW  Elec       q    Type
REMARK                         _______ _______ _______ _____ _____    ______ ____
ROOT
ATOM      1  O   UNL     1      36.984 -22.366 -16.781  0.00  0.00    -0.206 OA
ATOM      2  N   UNL     1      35.666 -23.394 -14.697  0.00  0.00    -0.391 NA
ATOM      3  N   UNL     1      32.934 -23.951 -15.021  0.00  0.00    -0.246 NA
ATOM      4  N   UNL     1      33.093 -23.145 -17.278  0.00  0.00    -0.259 N 
ATOM      5  N   UNL     1      35.151 -22.340 -18.169  0.00  0.00    -0.300 NA
ATOM      6  N   UNL     1      33.182 -22.387 -19.442  0.00  0.00    -0.320 N 
ATOM      7  C   UNL     1      34.924 -23.912 -13.703  0.00  0.00    +0.141 C 
ATOM      8  C   UNL     1      35.007 -23.162 -15.851  0.00  0.00    +0.255 C 
ATOM      9  C   UNL     1      33.583 -24.186 -13.861  0.00  0.00    +0.183 C 
ATOM     10  C   UNL     1      33.661 -23.430 -16.032  0.00  0.00    +0.173 C 
ATOM     11  C   UNL     1      35.791 -22.591 -16.969  0.00  0.00    +0.240 C 
ATOM     12  C   UNL     1      33.876 -22.613 -18.280  0.00  0.00    +0.249 C 
ATOM     13  H   UNL     1      32.139 -23.323 -17.439  0.00  0.00    +0.157 HD
ATOM     14  H   UNL     1      32.223 -22.604 -19.493  0.00  0.00    +0.146 HD
ATOM     15  H   UNL     1      33.643 -22.008 -20.225  0.00  0.00    +0.146 HD
ENDROOT
BRANCH   7  16
ATOM     16  C   UNL     1      35.603 -24.187 -12.406  0.00  0.00    +0.190 C 
BRANCH  16  17
ATOM     17  O   UNL     1      34.755 -24.994 -11.570  0.00  0.00    -0.376 OA
ATOM     18  H   UNL     1      35.027 -25.923 -11.634  0.00  0.00    +0.211 HD
ENDBRANCH  16  17
BRANCH  16  19
ATOM     19  C   UNL     1      36.990 -24.872 -12.504  0.00  0.00    +0.173 C 
BRANCH  19  20
ATOM     20  O   UNL     1      36.957 -26.105 -11.783  0.00  0.00    -0.379 OA
ATOM     21  H   UNL     1      37.575 -26.733 -12.188  0.00  0.00    +0.211 HD
ENDBRANCH  19  20
BRANCH  19  22
ATOM     22  C   UNL     1      38.122 -24.004 -11.960  0.00  0.00    +0.169 C 
BRANCH  22  23
ATOM     23  O   UNL     1      37.559 -22.938 -11.202  0.00  0.00    -0.379 OA
ATOM     24  H   UNL     1      36.613 -22.864 -11.402  0.00  0.00    +0.211 HD
ENDBRANCH  22  23
ENDBRANCH  19  22
ENDBRANCH  16  19
ENDBRANCH   7  16
TORSDOF 6
ENDMDL
MODEL 8
REMARK VINA RESULT:      -7.7      2.733      3.929
REMARK  Name = 444632
REMARK  6 active torsions:
REMARK  status: ('A' for Active; 'I' for Inactive)
REMARK    1  A    between atoms: C_7  and  C_16
REMARK    2  A    between atoms: C_16  and  O_17
REMARK    3  A    between atoms: C_16  and  C_19
REMARK    4  A    between atoms: C_19  and  O_20
REMARK    5  A    between atoms: C_19  and  C_22
REMARK    6  A    between atoms: C_22  and  O_23
REMARK                            x       y       z     vdW  Elec       q    Type
REMARK                         _______ _______ _______ _____ _____    ______ ____
ROOT
ATOM      1  O   UNL     1      36.703 -21.943 -18.493  0.00  0.00    -0.206 OA
ATOM      2  N   UNL     1      35.515 -23.237 -16.481  0.00  0.00    -0.391 NA
ATOM      3  N   UNL     1      32.712 -23.397 -16.500  0.00  0.00    -0.246 NA
ATOM      4  N   UNL     1      32.711 -22.149 -18.552  0.00  0.00    -0.259 N 
ATOM      5  N   UNL     1      34.739 -21.411 -19.562  0.00  0.00    -0.300 NA
ATOM      6  N   UNL     1      32.643 -20.959 -20.514  0.00  0.00    -0.320 N 
ATOM      7  C   UNL     1      34.833 -23.868 -15.509  0.00  0.00    +0.141 C 
ATOM      8  C   UNL     1      34.761 -22.690 -17.456  0.00  0.00    +0.255 C 
ATOM      9  C   UNL     1      33.457 -23.947 -15.518  0.00  0.00    +0.183 C 
ATOM     10  C   UNL     1      33.379 -22.757 -17.485  0.00  0.00    +0.173 C 
ATOM     11  C   UNL     1      35.477 -21.985 -18.543  0.00  0.00    +0.240 C 
ATOM     12  C   UNL     1      33.434 -21.507 -19.534  0.00  0.00    +0.249 C 
ATOM     13  H   UNL     1      31.728 -22.178 -18.602  0.00  0.00    +0.157 HD
ATOM     14  H   UNL     1      31.665 -21.050 -20.464  0.00  0.00    +0.146 HD
ATOM     15  H   UNL     1      33.056 -20.477 -21.266  0.00  0.00    +0.146 HD
ENDROOT
BRANCH   7  16
ATOM     16  C   UNL     1      35.618 -24.490 -14.407  0.00  0.00    +0.190 C 
BRANCH  16  17
ATOM     17  O   UNL     1      34.728 -25.006 -13.401  0.00  0.00    -0.376 OA
ATOM     18  H   UNL     1      35.106 -25.814 -13.020  0.00  0.00    +0.211 HD
ENDBRANCH  16  17
BRANCH  16  19
ATOM     19  C   UNL     1      36.591 -25.622 -14.827  0.00  0.00    +0.173 C 
BRANCH  19  20
ATOM     20  O   UNL     1      35.835 -26.774 -15.203  0.00  0.00    -0.379 OA
ATOM     21  H   UNL     1      36.276 -27.572 -14.871  0.00  0.00    +0.211 HD
ENDBRANCH  19  20
BRANCH  19  22
ATOM     22  C   UNL     1      37.573 -26.004 -13.723  0.00  0.00    +0.169 C 
BRANCH  22  23
ATOM     23  O   UNL     1      36.861 -26.681 -12.692  0.00  0.00    -0.379 OA
ATOM     24  H   UNL     1      37.435 -26.784 -11.916  0.00  0.00    +0.211 HD
ENDBRANCH  22  23
ENDBRANCH  19  22
ENDBRANCH  16  19
ENDBRANCH   7  16
TORSDOF 6
ENDMDL
MODEL 9
REMARK VINA RESULT:      -7.7      2.835      3.710
REMARK  Name = 444632
REMARK  6 active torsions:
REMARK  status: ('A' for Active; 'I' for Inactive)
REMARK    1  A    between atoms: C_7  and  C_16
REMARK    2  A    between atoms: C_16  and  O_17
REMARK    3  A    between atoms: C_16  and  C_19
REMARK    4  A    between atoms: C_19  and  O_20
REMARK    5  A    between atoms: C_19  and  C_22
REMARK    6  A    between atoms: C_22  and  O_23
REMARK                            x       y       z     vdW  Elec       q    Type
REMARK                         _______ _______ _______ _____ _____    ______ ____
ROOT
ATOM      1  O   UNL     1      31.596 -23.597 -15.591  0.00  0.00    -0.206 OA
ATOM      2  N   UNL     1      34.081 -23.704 -14.617  0.00  0.00    -0.391 NA
ATOM      3  N   UNL     1      36.187 -22.948 -16.313  0.00  0.00    -0.246 NA
ATOM      4  N   UNL     1      34.570 -22.515 -18.035  0.00  0.00    -0.259 N 
ATOM      5  N   UNL     1      32.239 -22.846 -17.666  0.00  0.00    -0.300 NA
ATOM      6  N   UNL     1      33.074 -22.084 -19.721  0.00  0.00    -0.320 N 
ATOM      7  C   UNL     1      35.363 -23.727 -14.211  0.00  0.00    +0.141 C 
ATOM      8  C   UNL     1      33.883 -23.296 -15.887  0.00  0.00    +0.255 C 
ATOM      9  C   UNL     1      36.397 -23.355 -15.043  0.00  0.00    +0.183 C 
ATOM     10  C   UNL     1      34.906 -22.919 -16.739  0.00  0.00    +0.173 C 
ATOM     11  C   UNL     1      32.484 -23.259 -16.369  0.00  0.00    +0.240 C 
ATOM     12  C   UNL     1      33.248 -22.502 -18.426  0.00  0.00    +0.249 C 
ATOM     13  H   UNL     1      35.274 -22.241 -18.666  0.00  0.00    +0.157 HD
ATOM     14  H   UNL     1      33.854 -21.832 -20.266  0.00  0.00    +0.146 HD
ATOM     15  H   UNL     1      32.169 -22.035 -20.105  0.00  0.00    +0.146 HD
ENDROOT
BRANCH   7  16
ATOM     16  C   UNL     1      35.638 -24.170 -12.816  0.00  0.00    +0.190 C 
BRANCH  16  17
ATOM     17  O   UNL     1      34.527 -24.933 -12.315  0.00  0.00    -0.376 OA
ATOM     18  H   UNL     1      34.519 -25.806 -12.737  0.00  0.00    +0.211 HD
ENDBRANCH  16  17
BRANCH  16  19
ATOM     19  C   UNL     1      36.932 -24.999 -12.616  0.00  0.00    +0.173 C 
BRANCH  19  20
ATOM     20  O   UNL     1      36.629 -26.164 -11.847  0.00  0.00    -0.379 OA
ATOM     21  H   UNL     1      35.801 -26.024 -11.361  0.00  0.00    +0.211 HD
ENDBRANCH  19  20
BRANCH  19  22
ATOM     22  C   UNL     1      38.041 -24.214 -11.919  0.00  0.00    +0.169 C 
BRANCH  22  23
ATOM     23  O   UNL     1      37.453 -23.144 -11.185  0.00  0.00    -0.379 OA
ATOM     24  H   UNL     1      37.682 -22.300 -11.604  0.00  0.00    +0.211 HD
ENDBRANCH  22  23
ENDBRANCH  19  22
ENDBRANCH  16  19
ENDBRANCH   7  16
TORSDOF 6
ENDMDL
