MODEL 1
REMARK VINA RESULT:      -7.7      0.000      0.000
REMARK  Name = 292661
REMARK  1 active torsions:
REMARK  status: ('A' for Active; 'I' for Inactive)
REMARK    1  A    between atoms: C_9  and  N_17
REMARK                            x       y       z     vdW  Elec       q    Type
REMARK                         _______ _______ _______ _____ _____    ______ ____
ROOT
ATOM      1  N   UNL     1      32.796 -21.959 -18.957  0.00  0.00    -0.332 NA
ATOM      2  N   UNL     1      34.785 -22.708 -17.821  0.00  0.00    -0.313 NA
ATOM      3  N   UNL     1      36.898 -21.865 -18.420  0.00  0.00    -0.332 N 
ATOM      4  N   UNL     1      32.677 -23.542 -17.230  0.00  0.00    -0.283 N 
ATOM      5  C   UNL     1      34.931 -21.075 -19.598  0.00  0.00    +0.072 C 
ATOM      6  C   UNL     1      33.535 -21.149 -19.734  0.00  0.00    +0.131 C 
ATOM      7  C   UNL     1      35.693 -20.225 -20.416  0.00  0.00    +0.020 C 
ATOM      8  C   UNL     1      35.494 -21.886 -18.616  0.00  0.00    +0.193 C 
ATOM      9  C   UNL     1      35.067 -19.440 -21.379  0.00  0.00    +0.038 C 
ATOM     10  C   UNL     1      32.934 -20.352 -20.706  0.00  0.00    +0.087 C 
ATOM     11  C   UNL     1      33.686 -19.504 -21.524  0.00  0.00    -0.005 C 
ATOM     12  C   UNL     1      33.460 -22.694 -18.042  0.00  0.00    +0.197 C 
ATOM     13  H   UNL     1      37.306 -22.435 -17.728  0.00  0.00    +0.145 HD
ATOM     14  H   UNL     1      37.464 -21.282 -18.975  0.00  0.00    +0.145 HD
ATOM     15  H   UNL     1      31.700 -23.574 -17.347  0.00  0.00    +0.156 HD
ATOM     16  H   UNL     1      33.108 -24.103 -16.544  0.00  0.00    +0.156 HD
ENDROOT
BRANCH   9  17
ATOM     17  N   UNL     1      35.827 -18.585 -22.203  0.00  0.00    -0.357 N 
ATOM     18  H   UNL     1      36.506 -18.961 -22.809  0.00  0.00    +0.142 HD
ATOM     19  H   UNL     1      35.679 -17.613 -22.172  0.00  0.00    +0.142 HD
ENDBRANCH   9  17
TORSDOF 1
ENDMDL
MODEL 2
REMARK VINA RESULT:      -7.5      3.997      5.961
REMARK  Name = 292661
REMARK  1 active torsions:
REMARK  status: ('A' for Active; 'I' for Inactive)
REMARK    1  A    between atoms: C_9  and  N_17
REMARK                            x       y       z     vdW  Elec       q    Type
REMARK                         _______ _______ _______ _____ _____    ______ ____
ROOT
ATOM      1  N   UNL     1      35.570 -18.435 -22.595  0.00  0.00    -0.332 NA
ATOM      2  N   UNL     1      35.380 -17.157 -20.561  0.00  0.00    -0.313 NA
ATOM      3  N   UNL     1      34.373 -15.031 -20.569  0.00  0.00    -0.332 N 
ATOM      4  N   UNL     1      36.381 -19.276 -20.560  0.00  0.00    -0.283 N 
ATOM      5  C   UNL     1      34.538 -16.271 -22.647  0.00  0.00    +0.072 C 
ATOM      6  C   UNL     1      34.966 -17.449 -23.280  0.00  0.00    +0.131 C 
ATOM      7  C   UNL     1      33.907 -15.247 -23.374  0.00  0.00    +0.020 C 
ATOM      8  C   UNL     1      34.777 -16.190 -21.278  0.00  0.00    +0.193 C 
ATOM      9  C   UNL     1      33.697 -15.392 -24.741  0.00  0.00    +0.038 C 
ATOM     10  C   UNL     1      34.744 -17.568 -24.650  0.00  0.00    +0.087 C 
ATOM     11  C   UNL     1      34.116 -16.553 -25.381  0.00  0.00    -0.005 C 
ATOM     12  C   UNL     1      35.745 -18.236 -21.273  0.00  0.00    +0.197 C 
ATOM     13  H   UNL     1      34.538 -14.964 -19.601  0.00  0.00    +0.145 HD
ATOM     14  H   UNL     1      33.928 -14.293 -21.046  0.00  0.00    +0.145 HD
ATOM     15  H   UNL     1      36.670 -20.090 -21.030  0.00  0.00    +0.156 HD
ATOM     16  H   UNL     1      36.535 -19.185 -19.591  0.00  0.00    +0.156 HD
ENDROOT
BRANCH   9  17
ATOM     17  N   UNL     1      33.065 -14.368 -25.476  0.00  0.00    -0.357 N 
ATOM     18  H   UNL     1      32.971 -13.470 -25.086  0.00  0.00    +0.142 HD
ATOM     19  H   UNL     1      32.718 -14.552 -26.377  0.00  0.00    +0.142 HD
ENDBRANCH   9  17
TORSDOF 1
ENDMDL
MODEL 3
REMARK VINA RESULT:      -7.5      4.979      8.055
REMARK  Name = 292661
REMARK  1 active torsions:
REMARK  status: ('A' for Active; 'I' for Inactive)
REMARK    1  A    between atoms: C_9  and  N_17
REMARK                            x       y       z     vdW  Elec       q    Type
REMARK                         _______ _______ _______ _____ _____    ______ ____
ROOT
ATOM      1  N   UNL     1      33.482 -16.056 -26.017  0.00  0.00    -0.332 NA
ATOM      2  N   UNL     1      33.399 -13.984 -24.790  0.00  0.00    -0.313 NA
ATOM      3  N   UNL     1      34.349 -13.821 -22.643  0.00  0.00    -0.332 N 
ATOM      4  N   UNL     1      32.455 -14.153 -26.927  0.00  0.00    -0.283 N 
ATOM      5  C   UNL     1      34.462 -15.932 -23.832  0.00  0.00    +0.072 C 
ATOM      6  C   UNL     1      34.141 -16.640 -25.001  0.00  0.00    +0.131 C 
ATOM      7  C   UNL     1      35.151 -16.554 -22.777  0.00  0.00    +0.020 C 
ATOM      8  C   UNL     1      34.059 -14.600 -23.792  0.00  0.00    +0.193 C 
ATOM      9  C   UNL     1      35.525 -17.890 -22.881  0.00  0.00    +0.038 C 
ATOM     10  C   UNL     1      34.527 -17.976 -25.079  0.00  0.00    +0.087 C 
ATOM     11  C   UNL     1      35.213 -18.602 -24.034  0.00  0.00    -0.005 C 
ATOM     12  C   UNL     1      33.147 -14.759 -25.856  0.00  0.00    +0.197 C 
ATOM     13  H   UNL     1      34.068 -12.878 -22.605  0.00  0.00    +0.145 HD
ATOM     14  H   UNL     1      34.830 -14.223 -21.884  0.00  0.00    +0.145 HD
ATOM     15  H   UNL     1      32.243 -14.673 -27.735  0.00  0.00    +0.156 HD
ATOM     16  H   UNL     1      32.184 -13.207 -26.866  0.00  0.00    +0.156 HD
ENDROOT
BRANCH   9  17
ATOM     17  N   UNL     1      36.217 -18.519 -21.826  0.00  0.00    -0.357 N 
ATOM     18  H   UNL     1      36.673 -19.377 -21.979  0.00  0.00    +0.142 HD
ATOM     19  H   UNL     1      36.242 -18.100 -20.936  0.00  0.00    +0.142 HD
ENDBRANCH   9  17
TORSDOF 1
ENDMDL
MODEL 4
REMARK VINA RESULT:      -7.4      4.246      6.283
REMARK  Name = 292661
REMARK  1 active torsions:
REMARK  status: ('A' for Active; 'I' for Inactive)
REMARK    1  A    between atoms: C_9  and  N_17
REMARK                            x       y       z     vdW  Elec       q    Type
REMARK                         _______ _______ _______ _____ _____    ______ ____
ROOT
ATOM      1  N   UNL     1      35.017 -17.187 -20.610  0.00  0.00    -0.332 NA
ATOM      2  N   UNL     1      35.787 -17.944 -22.764  0.00  0.00    -0.313 NA
ATOM      3  N   UNL     1      35.098 -16.859 -24.734  0.00  0.00    -0.332 N 
ATOM      4  N   UNL     1      36.469 -19.020 -20.798  0.00  0.00    -0.283 N 
ATOM      5  C   UNL     1      34.291 -16.053 -22.594  0.00  0.00    +0.072 C 
ATOM      6  C   UNL     1      34.302 -16.213 -21.199  0.00  0.00    +0.131 C 
ATOM      7  C   UNL     1      33.539 -15.031 -23.198  0.00  0.00    +0.020 C 
ATOM      8  C   UNL     1      35.059 -16.958 -23.321  0.00  0.00    +0.193 C 
ATOM      9  C   UNL     1      32.792 -14.159 -22.413  0.00  0.00    +0.038 C 
ATOM     10  C   UNL     1      33.545 -15.327 -20.437  0.00  0.00    +0.087 C 
ATOM     11  C   UNL     1      32.794 -14.307 -21.031  0.00  0.00    -0.005 C 
ATOM     12  C   UNL     1      35.721 -18.000 -21.424  0.00  0.00    +0.197 C 
ATOM     13  H   UNL     1      35.639 -17.494 -25.258  0.00  0.00    +0.145 HD
ATOM     14  H   UNL     1      34.584 -16.155 -25.193  0.00  0.00    +0.145 HD
ATOM     15  H   UNL     1      36.459 -19.109 -19.818  0.00  0.00    +0.156 HD
ATOM     16  H   UNL     1      37.003 -19.644 -21.342  0.00  0.00    +0.156 HD
ENDROOT
BRANCH   9  17
ATOM     17  N   UNL     1      32.036 -13.132 -23.014  0.00  0.00    -0.357 N 
ATOM     18  H   UNL     1      31.098 -12.993 -22.751  0.00  0.00    +0.142 HD
ATOM     19  H   UNL     1      32.446 -12.555 -23.697  0.00  0.00    +0.142 HD
ENDBRANCH   9  17
TORSDOF 1
ENDMDL
MODEL 5
REMARK VINA RESULT:      -7.3      1.165      2.641
REMARK  Name = 292661
REMARK  1 active torsions:
REMARK  status: ('A' for Active; 'I' for Inactive)
REMARK    1  A    between atoms: C_9  and  N_17
REMARK                            x       y       z     vdW  Elec       q    Type
REMARK                         _______ _______ _______ _____ _____    ______ ____
ROOT
ATOM      1  N   UNL     1      35.138 -22.236 -18.720  0.00  0.00    -0.332 NA
ATOM      2  N   UNL     1      32.807 -21.852 -19.191  0.00  0.00    -0.313 NA
ATOM      3  N   UNL     1      32.148 -20.160 -20.687  0.00  0.00    -0.332 N 
ATOM      4  N   UNL     1      33.470 -23.536 -17.702  0.00  0.00    -0.283 N 
ATOM      5  C   UNL     1      34.509 -20.502 -20.250  0.00  0.00    +0.072 C 
ATOM      6  C   UNL     1      35.479 -21.241 -19.556  0.00  0.00    +0.131 C 
ATOM      7  C   UNL     1      34.878 -19.463 -21.122  0.00  0.00    +0.020 C 
ATOM      8  C   UNL     1      33.184 -20.861 -20.021  0.00  0.00    +0.193 C 
ATOM      9  C   UNL     1      36.221 -19.154 -21.307  0.00  0.00    +0.038 C 
ATOM     10  C   UNL     1      36.817 -20.911 -19.760  0.00  0.00    +0.087 C 
ATOM     11  C   UNL     1      37.192 -19.878 -20.625  0.00  0.00    -0.005 C 
ATOM     12  C   UNL     1      33.821 -22.488 -18.582  0.00  0.00    +0.197 C 
ATOM     13  H   UNL     1      31.207 -20.407 -20.531  0.00  0.00    +0.145 HD
ATOM     14  H   UNL     1      32.368 -19.426 -21.305  0.00  0.00    +0.145 HD
ATOM     15  H   UNL     1      34.172 -24.037 -17.229  0.00  0.00    +0.156 HD
ATOM     16  H   UNL     1      32.522 -23.764 -17.563  0.00  0.00    +0.156 HD
ENDROOT
BRANCH   9  17
ATOM     17  N   UNL     1      36.597 -18.113 -22.181  0.00  0.00    -0.357 N 
ATOM     18  H   UNL     1      36.991 -17.286 -21.820  0.00  0.00    +0.142 HD
ATOM     19  H   UNL     1      36.466 -18.213 -23.150  0.00  0.00    +0.142 HD
ENDBRANCH   9  17
TORSDOF 1
ENDMDL
MODEL 6
REMARK VINA RESULT:      -7.2      4.389      7.491
REMARK  Name = 292661
REMARK  1 active torsions:
REMARK  status: ('A' for Active; 'I' for Inactive)
REMARK    1  A    between atoms: C_9  and  N_17
REMARK                            x       y       z     vdW  Elec       q    Type
REMARK                         _______ _______ _______ _____ _____    ______ ____
ROOT
ATOM      1  N   UNL     1      33.623 -14.747 -24.045  0.00  0.00    -0.332 NA
ATOM      2  N   UNL     1      33.820 -16.313 -25.866  0.00  0.00    -0.313 NA
ATOM      3  N   UNL     1      34.709 -18.462 -25.509  0.00  0.00    -0.332 N 
ATOM      4  N   UNL     1      32.937 -14.171 -26.214  0.00  0.00    -0.283 N 
ATOM      5  C   UNL     1      34.533 -16.928 -23.639  0.00  0.00    +0.072 C 
ATOM      6  C   UNL     1      34.147 -15.651 -23.200  0.00  0.00    +0.131 C 
ATOM      7  C   UNL     1      35.080 -17.865 -22.746  0.00  0.00    +0.020 C 
ATOM      8  C   UNL     1      34.342 -17.194 -24.992  0.00  0.00    +0.193 C 
ATOM      9  C   UNL     1      35.245 -17.534 -21.405  0.00  0.00    +0.038 C 
ATOM     10  C   UNL     1      34.323 -15.347 -21.852  0.00  0.00    +0.087 C 
ATOM     11  C   UNL     1      34.866 -16.274 -20.957  0.00  0.00    -0.005 C 
ATOM     12  C   UNL     1      33.488 -15.127 -25.332  0.00  0.00    +0.197 C 
ATOM     13  H   UNL     1      34.577 -18.661 -26.465  0.00  0.00    +0.145 HD
ATOM     14  H   UNL     1      35.094 -19.144 -24.913  0.00  0.00    +0.145 HD
ATOM     15  H   UNL     1      32.675 -13.284 -25.878  0.00  0.00    +0.156 HD
ATOM     16  H   UNL     1      32.815 -14.393 -27.166  0.00  0.00    +0.156 HD
ENDROOT
BRANCH   9  17
ATOM     17  N   UNL     1      35.793 -18.470 -20.504  0.00  0.00    -0.357 N 
ATOM     18  H   UNL     1      36.661 -18.890 -20.699  0.00  0.00    +0.142 HD
ATOM     19  H   UNL     1      35.307 -18.703 -19.681  0.00  0.00    +0.142 HD
ENDBRANCH   9  17
TORSDOF 1
ENDMDL
MODEL 7
REMARK VINA RESULT:      -7.1      5.084      7.236
REMARK  Name = 292661
REMARK  1 active torsions:
REMARK  status: ('A' for Active; 'I' for Inactive)
REMARK    1  A    between atoms: C_9  and  N_17
REMARK                            x       y       z     vdW  Elec       q    Type
REMARK                         _______ _______ _______ _____ _____    ______ ____
ROOT
ATOM      1  N   UNL     1      38.991 -24.464 -14.706  0.00  0.00    -0.332 NA
ATOM      2  N   UNL     1      38.417 -26.798 -14.539  0.00  0.00    -0.313 NA
ATOM      3  N   UNL     1      36.200 -27.515 -14.867  0.00  0.00    -0.332 N 
ATOM      4  N   UNL     1      40.622 -26.078 -14.215  0.00  0.00    -0.283 N 
ATOM      5  C   UNL     1      36.720 -25.153 -15.046  0.00  0.00    +0.072 C 
ATOM      6  C   UNL     1      37.711 -24.160 -14.979  0.00  0.00    +0.131 C 
ATOM      7  C   UNL     1      35.384 -24.823 -15.333  0.00  0.00    +0.020 C 
ATOM      8  C   UNL     1      37.144 -26.458 -14.815  0.00  0.00    +0.193 C 
ATOM      9  C   UNL     1      35.027 -23.497 -15.554  0.00  0.00    +0.038 C 
ATOM     10  C   UNL     1      37.326 -22.841 -15.204  0.00  0.00    +0.087 C 
ATOM     11  C   UNL     1      35.999 -22.504 -15.490  0.00  0.00    -0.005 C 
ATOM     12  C   UNL     1      39.275 -25.767 -14.501  0.00  0.00    +0.197 C 
ATOM     13  H   UNL     1      36.489 -28.442 -14.704  0.00  0.00    +0.145 HD
ATOM     14  H   UNL     1      35.255 -27.321 -15.064  0.00  0.00    +0.145 HD
ATOM     15  H   UNL     1      41.296 -25.362 -14.173  0.00  0.00    +0.156 HD
ATOM     16  H   UNL     1      40.888 -27.013 -14.056  0.00  0.00    +0.156 HD
ENDROOT
BRANCH   9  17
ATOM     17  N   UNL     1      33.688 -23.160 -15.841  0.00  0.00    -0.357 N 
ATOM     18  H   UNL     1      32.989 -23.302 -15.164  0.00  0.00    +0.142 HD
ATOM     19  H   UNL     1      33.454 -22.782 -16.719  0.00  0.00    +0.142 HD
ENDBRANCH   9  17
TORSDOF 1
ENDMDL
MODEL 8
REMARK VINA RESULT:      -7.0      4.040      7.137
REMARK  Name = 292661
REMARK  1 active torsions:
REMARK  status: ('A' for Active; 'I' for Inactive)
REMARK    1  A    between atoms: C_9  and  N_17
REMARK                            x       y       z     vdW  Elec       q    Type
REMARK                         _______ _______ _______ _____ _____    ______ ____
ROOT
ATOM      1  N   UNL     1      34.019 -16.152 -24.722  0.00  0.00    -0.332 NA
ATOM      2  N   UNL     1      33.451 -14.366 -23.208  0.00  0.00    -0.313 NA
ATOM      3  N   UNL     1      33.957 -14.529 -20.916  0.00  0.00    -0.332 N 
ATOM      4  N   UNL     1      32.950 -14.210 -25.491  0.00  0.00    -0.283 N 
ATOM      5  C   UNL     1      34.552 -16.358 -22.393  0.00  0.00    +0.072 C 
ATOM      6  C   UNL     1      34.545 -16.857 -23.705  0.00  0.00    +0.131 C 
ATOM      7  C   UNL     1      35.105 -17.105 -21.339  0.00  0.00    +0.020 C 
ATOM      8  C   UNL     1      33.986 -15.099 -22.213  0.00  0.00    +0.193 C 
ATOM      9  C   UNL     1      35.655 -18.358 -21.587  0.00  0.00    +0.038 C 
ATOM     10  C   UNL     1      35.102 -18.114 -23.926  0.00  0.00    +0.087 C 
ATOM     11  C   UNL     1      35.654 -18.863 -22.882  0.00  0.00    -0.005 C 
ATOM     12  C   UNL     1      33.500 -14.945 -24.418  0.00  0.00    +0.197 C 
ATOM     13  H   UNL     1      33.558 -13.639 -20.778  0.00  0.00    +0.145 HD
ATOM     14  H   UNL     1      34.334 -15.023 -20.153  0.00  0.00    +0.145 HD
ATOM     15  H   UNL     1      32.958 -14.585 -26.401  0.00  0.00    +0.156 HD
ATOM     16  H   UNL     1      32.557 -13.322 -25.329  0.00  0.00    +0.156 HD
ENDROOT
BRANCH   9  17
ATOM     17  N   UNL     1      36.211 -19.111 -20.533  0.00  0.00    -0.357 N 
ATOM     18  H   UNL     1      37.023 -18.793 -20.075  0.00  0.00    +0.142 HD
ATOM     19  H   UNL     1      35.788 -19.954 -20.254  0.00  0.00    +0.142 HD
ENDBRANCH   9  17
TORSDOF 1
ENDMDL
MODEL 9
REMARK VINA RESULT:      -7.0      5.318      7.886
REMARK  Name = 292661
REMARK  1 active torsions:
REMARK  status: ('A' for Active; 'I' for Inactive)
REMARK    1  A    between atoms: C_9  and  N_17
REMARK                            x       y       z     vdW  Elec       q    Type
REMARK                         _______ _______ _______ _____ _____    ______ ____
ROOT
ATOM      1  N   UNL     1      32.839 -14.048 -21.295  0.00  0.00    -0.332 NA
ATOM      2  N   UNL     1      32.398 -13.392 -23.571  0.00  0.00    -0.313 NA
ATOM      3  N   UNL     1      33.376 -14.556 -25.366  0.00  0.00    -0.332 N 
ATOM      4  N   UNL     1      31.428 -12.237 -21.778  0.00  0.00    -0.283 N 
ATOM      5  C   UNL     1      33.856 -15.261 -23.096  0.00  0.00    +0.072 C 
ATOM      6  C   UNL     1      33.636 -15.040 -21.727  0.00  0.00    +0.131 C 
ATOM      7  C   UNL     1      34.691 -16.302 -23.535  0.00  0.00    +0.020 C 
ATOM      8  C   UNL     1      33.203 -14.395 -23.969  0.00  0.00    +0.193 C 
ATOM      9  C   UNL     1      35.315 -17.132 -22.610  0.00  0.00    +0.038 C 
ATOM     10  C   UNL     1      34.272 -15.886 -20.822  0.00  0.00    +0.087 C 
ATOM     11  C   UNL     1      35.105 -16.924 -21.251  0.00  0.00    -0.005 C 
ATOM     12  C   UNL     1      32.263 -13.277 -22.240  0.00  0.00    +0.197 C 
ATOM     13  H   UNL     1      32.918 -13.948 -25.992  0.00  0.00    +0.145 HD
ATOM     14  H   UNL     1      33.954 -15.274 -25.711  0.00  0.00    +0.145 HD
ATOM     15  H   UNL     1      31.292 -12.105 -20.812  0.00  0.00    +0.156 HD
ATOM     16  H   UNL     1      30.980 -11.642 -22.423  0.00  0.00    +0.156 HD
ENDROOT
BRANCH   9  17
ATOM     17  N   UNL     1      36.154 -18.178 -23.045  0.00  0.00    -0.357 N 
ATOM     18  H   UNL     1      35.887 -18.736 -23.811  0.00  0.00    +0.142 HD
ATOM     19  H   UNL     1      37.005 -18.350 -22.584  0.00  0.00    +0.142 HD
ENDBRANCH   9  17
TORSDOF 1
ENDMDL
