MODEL 1
REMARK VINA RESULT:      -5.2      0.000      0.000
REMARK  Name = 5962
REMARK  8 active torsions:
REMARK  status: ('A' for Active; 'I' for Inactive)
REMARK    1  A    between atoms: CA_1  and  N_2
REMARK    2  A    between atoms: CA_1  and  C_7
REMARK    3  A    between atoms: CA_1  and  CB_10
REMARK    4  A    between atoms: C_7  and  O_8
REMARK    5  A    between atoms: CB_10  and  CG_11
REMARK    6  A    between atoms: CG_11  and  CD_12
REMARK    7  A    between atoms: CD_12  and  CE_13
REMARK    8  A    between atoms: CE_13  and  NZ_14
REMARK                            x       y       z     vdW  Elec       q    Type
REMARK                         _______ _______ _______ _____ _____    ______ ____
ROOT
ATOM      1  CA  LYS A   1      39.073 -25.194 -14.303  0.00  0.00    +0.036 C 
ENDROOT
BRANCH   1   2
ATOM      2  N   LYS A   1      38.588 -24.430 -15.454  0.00  0.00    +0.389 N 
ATOM      3  H1  LYS A   1      38.674 -23.432 -15.259  0.00  0.00    -0.088 HD
ATOM      4  H2  LYS A   1      37.609 -24.660 -15.625  0.00  0.00    -0.088 HD
ATOM      5  H3  LYS A   1      39.142 -24.665 -16.277  0.00  0.00    -0.088 HD
ENDBRANCH   1   2
BRANCH   1   7
ATOM      6  OXT LYS A   1      41.050 -26.538 -13.966  0.00  0.00    -0.253 OA
ATOM      7  C   LYS A   1      40.295 -25.971 -14.749  0.00  0.00    +0.293 C 
BRANCH   7   8
ATOM      8  O   LYS A   1      40.494 -25.971 -16.089  0.00  0.00    -0.482 OA
ATOM      9  H   LYS A   1      41.200 -26.466 -16.458  0.00  0.00    +0.295 HD
ENDBRANCH   7   8
ENDBRANCH   1   7
BRANCH   1  10
ATOM     10  CB  LYS A   1      37.972 -26.090 -13.722  0.00  0.00    -0.011 C 
BRANCH  10  11
ATOM     11  CG  LYS A   1      37.365 -25.587 -12.405  0.00  0.00    -0.004 C 
BRANCH  11  12
ATOM     12  CD  LYS A   1      37.952 -24.255 -11.930  0.00  0.00    -0.024 C 
BRANCH  12  13
ATOM     13  CE  LYS A   1      36.851 -23.217 -11.715  0.00  0.00    -0.086 C 
BRANCH  13  14
ATOM     14  NZ  LYS A   1      35.923 -23.223 -12.840  0.00  0.00    +0.380 N 
ATOM     15  HZ1 LYS A   1      36.080 -24.057 -13.405  0.00  0.00    -0.089 HD
ATOM     16  HZ2 LYS A   1      36.075 -22.392 -13.410  0.00  0.00    -0.089 HD
ATOM     17  HZ3 LYS A   1      34.965 -23.225 -12.490  0.00  0.00    -0.089 HD
ENDBRANCH  13  14
ENDBRANCH  12  13
ENDBRANCH  11  12
ENDBRANCH  10  11
ENDBRANCH   1  10
TORSDOF 8
ENDMDL
MODEL 2
REMARK VINA RESULT:      -5.1      3.709      4.789
REMARK  Name = 5962
REMARK  8 active torsions:
REMARK  status: ('A' for Active; 'I' for Inactive)
REMARK    1  A    between atoms: CA_1  and  N_2
REMARK    2  A    between atoms: CA_1  and  C_7
REMARK    3  A    between atoms: CA_1  and  CB_10
REMARK    4  A    between atoms: C_7  and  O_8
REMARK    5  A    between atoms: CB_10  and  CG_11
REMARK    6  A    between atoms: CG_11  and  CD_12
REMARK    7  A    between atoms: CD_12  and  CE_13
REMARK    8  A    between atoms: CE_13  and  NZ_14
REMARK                            x       y       z     vdW  Elec       q    Type
REMARK                         _______ _______ _______ _____ _____    ______ ____
ROOT
ATOM      1  CA  LYS A   1      36.787 -23.384 -11.794  0.00  0.00    +0.036 C 
ENDROOT
BRANCH   1   2
ATOM      2  N   LYS A   1      38.152 -23.892 -11.648  0.00  0.00    +0.389 N 
ATOM      3  H1  LYS A   1      38.783 -23.340 -12.231  0.00  0.00    -0.088 HD
ATOM      4  H2  LYS A   1      38.184 -24.869 -11.943  0.00  0.00    -0.088 HD
ATOM      5  H3  LYS A   1      38.440 -23.821 -10.673  0.00  0.00    -0.088 HD
ENDBRANCH   1   2
BRANCH   1   7
ATOM      6  OXT LYS A   1      35.910 -24.306  -9.742  0.00  0.00    -0.253 OA
ATOM      7  C   LYS A   1      35.876 -24.269 -10.968  0.00  0.00    +0.293 C 
BRANCH   7   8
ATOM      8  O   LYS A   1      35.030 -25.033 -11.700  0.00  0.00    -0.482 OA
ATOM      9  H   LYS A   1      34.437 -25.619 -11.271  0.00  0.00    +0.295 HD
ENDBRANCH   7   8
ENDBRANCH   1   7
BRANCH   1  10
ATOM     10  CB  LYS A   1      36.372 -23.307 -13.269  0.00  0.00    -0.011 C 
BRANCH  10  11
ATOM     11  CG  LYS A   1      37.278 -24.086 -14.231  0.00  0.00    -0.004 C 
BRANCH  11  12
ATOM     12  CD  LYS A   1      36.548 -25.189 -15.002  0.00  0.00    -0.024 C 
BRANCH  12  13
ATOM     13  CE  LYS A   1      37.169 -26.557 -14.722  0.00  0.00    -0.086 C 
BRANCH  13  14
ATOM     14  NZ  LYS A   1      37.068 -26.879 -13.303  0.00  0.00    +0.380 N 
ATOM     15  HZ1 LYS A   1      36.240 -26.431 -12.911  0.00  0.00    -0.089 HD
ATOM     16  HZ2 LYS A   1      37.899 -26.540 -12.819  0.00  0.00    -0.089 HD
ATOM     17  HZ3 LYS A   1      36.995 -27.889 -13.188  0.00  0.00    -0.089 HD
ENDBRANCH  13  14
ENDBRANCH  12  13
ENDBRANCH  11  12
ENDBRANCH  10  11
ENDBRANCH   1  10
TORSDOF 8
ENDMDL
MODEL 3
REMARK VINA RESULT:      -5.0     10.043     11.074
REMARK  Name = 5962
REMARK  8 active torsions:
REMARK  status: ('A' for Active; 'I' for Inactive)
REMARK    1  A    between atoms: CA_1  and  N_2
REMARK    2  A    between atoms: CA_1  and  C_7
REMARK    3  A    between atoms: CA_1  and  CB_10
REMARK    4  A    between atoms: C_7  and  O_8
REMARK    5  A    between atoms: CB_10  and  CG_11
REMARK    6  A    between atoms: CG_11  and  CD_12
REMARK    7  A    between atoms: CD_12  and  CE_13
REMARK    8  A    between atoms: CE_13  and  NZ_14
REMARK                            x       y       z     vdW  Elec       q    Type
REMARK                         _______ _______ _______ _____ _____    ______ ____
ROOT
ATOM      1  CA  LYS A   1      27.795 -23.029 -15.924  0.00  0.00    +0.036 C 
ENDROOT
BRANCH   1   2
ATOM      2  N   LYS A   1      28.084 -23.910 -17.056  0.00  0.00    +0.389 N 
ATOM      3  H1  LYS A   1      28.001 -23.383 -17.927  0.00  0.00    -0.088 HD
ATOM      4  H2  LYS A   1      27.419 -24.684 -17.063  0.00  0.00    -0.088 HD
ATOM      5  H3  LYS A   1      29.032 -24.276 -16.970  0.00  0.00    -0.088 HD
ENDBRANCH   1   2
BRANCH   1   7
ATOM      6  OXT LYS A   1      26.907 -21.271 -17.322  0.00  0.00    -0.253 OA
ATOM      7  C   LYS A   1      26.745 -22.033 -16.373  0.00  0.00    +0.293 C 
BRANCH   7   8
ATOM      8  O   LYS A   1      25.616 -22.040 -15.625  0.00  0.00    -0.482 OA
ATOM      9  H   LYS A   1      25.448 -22.751 -15.037  0.00  0.00    +0.295 HD
ENDBRANCH   7   8
ENDBRANCH   1   7
BRANCH   1  10
ATOM     10  CB  LYS A   1      29.070 -22.360 -15.395  0.00  0.00    -0.011 C 
BRANCH  10  11
ATOM     11  CG  LYS A   1      30.373 -22.895 -16.002  0.00  0.00    -0.004 C 
BRANCH  11  12
ATOM     12  CD  LYS A   1      31.294 -23.568 -14.979  0.00  0.00    -0.024 C 
BRANCH  12  13
ATOM     13  CE  LYS A   1      30.755 -24.940 -14.575  0.00  0.00    -0.086 C 
BRANCH  13  14
ATOM     14  NZ  LYS A   1      30.421 -24.954 -13.155  0.00  0.00    +0.380 N 
ATOM     15  HZ1 LYS A   1      29.820 -25.754 -12.955  0.00  0.00    -0.089 HD
ATOM     16  HZ2 LYS A   1      29.932 -24.093 -12.913  0.00  0.00    -0.089 HD
ATOM     17  HZ3 LYS A   1      31.276 -25.025 -12.605  0.00  0.00    -0.089 HD
ENDBRANCH  13  14
ENDBRANCH  12  13
ENDBRANCH  11  12
ENDBRANCH  10  11
ENDBRANCH   1  10
TORSDOF 8
ENDMDL
MODEL 4
REMARK VINA RESULT:      -5.0     11.238     11.807
REMARK  Name = 5962
REMARK  8 active torsions:
REMARK  status: ('A' for Active; 'I' for Inactive)
REMARK    1  A    between atoms: CA_1  and  N_2
REMARK    2  A    between atoms: CA_1  and  C_7
REMARK    3  A    between atoms: CA_1  and  CB_10
REMARK    4  A    between atoms: C_7  and  O_8
REMARK    5  A    between atoms: CB_10  and  CG_11
REMARK    6  A    between atoms: CG_11  and  CD_12
REMARK    7  A    between atoms: CD_12  and  CE_13
REMARK    8  A    between atoms: CE_13  and  NZ_14
REMARK                            x       y       z     vdW  Elec       q    Type
REMARK                         _______ _______ _______ _____ _____    ______ ____
ROOT
ATOM      1  CA  LYS A   1      35.488 -18.517 -23.572  0.00  0.00    +0.036 C 
ENDROOT
BRANCH   1   2
ATOM      2  N   LYS A   1      36.539 -18.123 -22.633  0.00  0.00    +0.389 N 
ATOM      3  H1  LYS A   1      37.279 -17.631 -23.137  0.00  0.00    -0.088 HD
ATOM      4  H2  LYS A   1      36.926 -18.955 -22.188  0.00  0.00    -0.088 HD
ATOM      5  H3  LYS A   1      36.147 -17.507 -21.920  0.00  0.00    -0.088 HD
ENDBRANCH   1   2
BRANCH   1   7
ATOM      6  OXT LYS A   1      34.465 -17.334 -25.412  0.00  0.00    -0.253 OA
ATOM      7  C   LYS A   1      35.085 -17.284 -24.355  0.00  0.00    +0.293 C 
BRANCH   7   8
ATOM      8  O   LYS A   1      35.485 -16.116 -23.796  0.00  0.00    -0.482 OA
ATOM      9  H   LYS A   1      36.391 -15.875 -23.810  0.00  0.00    +0.295 HD
ENDBRANCH   7   8
ENDBRANCH   1   7
BRANCH   1  10
ATOM     10  CB  LYS A   1      34.310 -19.180 -22.848  0.00  0.00    -0.011 C 
BRANCH  10  11
ATOM     11  CG  LYS A   1      34.414 -19.176 -21.318  0.00  0.00    -0.004 C 
BRANCH  11  12
ATOM     12  CD  LYS A   1      33.321 -19.997 -20.627  0.00  0.00    -0.024 C 
BRANCH  12  13
ATOM     13  CE  LYS A   1      33.928 -21.114 -19.779  0.00  0.00    -0.086 C 
BRANCH  13  14
ATOM     14  NZ  LYS A   1      32.886 -22.031 -19.330  0.00  0.00    +0.380 N 
ATOM     15  HZ1 LYS A   1      33.137 -22.410 -18.417  0.00  0.00    -0.089 HD
ATOM     16  HZ2 LYS A   1      32.792 -22.793 -20.001  0.00  0.00    -0.089 HD
ATOM     17  HZ3 LYS A   1      32.000 -21.531 -19.258  0.00  0.00    -0.089 HD
ENDBRANCH  13  14
ENDBRANCH  12  13
ENDBRANCH  11  12
ENDBRANCH  10  11
ENDBRANCH   1  10
TORSDOF 8
ENDMDL
MODEL 5
REMARK VINA RESULT:      -5.0      2.294      2.720
REMARK  Name = 5962
REMARK  8 active torsions:
REMARK  status: ('A' for Active; 'I' for Inactive)
REMARK    1  A    between atoms: CA_1  and  N_2
REMARK    2  A    between atoms: CA_1  and  C_7
REMARK    3  A    between atoms: CA_1  and  CB_10
REMARK    4  A    between atoms: C_7  and  O_8
REMARK    5  A    between atoms: CB_10  and  CG_11
REMARK    6  A    between atoms: CG_11  and  CD_12
REMARK    7  A    between atoms: CD_12  and  CE_13
REMARK    8  A    between atoms: CE_13  and  NZ_14
REMARK                            x       y       z     vdW  Elec       q    Type
REMARK                         _______ _______ _______ _____ _____    ______ ____
ROOT
ATOM      1  CA  LYS A   1      37.922 -26.097 -14.492  0.00  0.00    +0.036 C 
ENDROOT
BRANCH   1   2
ATOM      2  N   LYS A   1      38.437 -24.884 -15.129  0.00  0.00    +0.389 N 
ATOM      3  H1  LYS A   1      39.068 -25.141 -15.890  0.00  0.00    -0.088 HD
ATOM      4  H2  LYS A   1      38.945 -24.327 -14.440  0.00  0.00    -0.088 HD
ATOM      5  H3  LYS A   1      37.661 -24.338 -15.502  0.00  0.00    -0.088 HD
ENDBRANCH   1   2
BRANCH   1   7
ATOM      6  OXT LYS A   1      36.692 -27.313 -16.176  0.00  0.00    -0.253 OA
ATOM      7  C   LYS A   1      36.675 -26.516 -15.243  0.00  0.00    +0.293 C 
BRANCH   7   8
ATOM      8  O   LYS A   1      35.538 -25.922 -14.809  0.00  0.00    -0.482 OA
ATOM      9  H   LYS A   1      34.839 -25.750 -15.410  0.00  0.00    +0.295 HD
ENDBRANCH   7   8
ENDBRANCH   1   7
BRANCH   1  10
ATOM     10  CB  LYS A   1      37.675 -25.880 -12.993  0.00  0.00    -0.011 C 
BRANCH  10  11
ATOM     11  CG  LYS A   1      38.217 -24.556 -12.440  0.00  0.00    -0.004 C 
BRANCH  11  12
ATOM     12  CD  LYS A   1      37.162 -23.719 -11.711  0.00  0.00    -0.024 C 
BRANCH  12  13
ATOM     13  CE  LYS A   1      35.790 -24.389 -11.775  0.00  0.00    -0.086 C 
BRANCH  13  14
ATOM     14  NZ  LYS A   1      34.907 -23.649 -12.669  0.00  0.00    +0.380 N 
ATOM     15  HZ1 LYS A   1      34.589 -22.797 -12.206  0.00  0.00    -0.089 HD
ATOM     16  HZ2 LYS A   1      34.101 -24.228 -12.906  0.00  0.00    -0.089 HD
ATOM     17  HZ3 LYS A   1      35.412 -23.405 -13.520  0.00  0.00    -0.089 HD
ENDBRANCH  13  14
ENDBRANCH  12  13
ENDBRANCH  11  12
ENDBRANCH  10  11
ENDBRANCH   1  10
TORSDOF 8
ENDMDL
MODEL 6
REMARK VINA RESULT:      -4.9     10.217     10.778
REMARK  Name = 5962
REMARK  8 active torsions:
REMARK  status: ('A' for Active; 'I' for Inactive)
REMARK    1  A    between atoms: CA_1  and  N_2
REMARK    2  A    between atoms: CA_1  and  C_7
REMARK    3  A    between atoms: CA_1  and  CB_10
REMARK    4  A    between atoms: C_7  and  O_8
REMARK    5  A    between atoms: CB_10  and  CG_11
REMARK    6  A    between atoms: CG_11  and  CD_12
REMARK    7  A    between atoms: CD_12  and  CE_13
REMARK    8  A    between atoms: CE_13  and  NZ_14
REMARK                            x       y       z     vdW  Elec       q    Type
REMARK                         _______ _______ _______ _____ _____    ______ ____
ROOT
ATOM      1  CA  LYS A   1      35.721 -18.339 -21.562  0.00  0.00    +0.036 C 
ENDROOT
BRANCH   1   2
ATOM      2  N   LYS A   1      35.199 -17.242 -20.746  0.00  0.00    +0.389 N 
ATOM      3  H1  LYS A   1      35.039 -17.572 -19.794  0.00  0.00    -0.088 HD
ATOM      4  H2  LYS A   1      34.318 -16.913 -21.144  0.00  0.00    -0.088 HD
ATOM      5  H3  LYS A   1      35.872 -16.476 -20.732  0.00  0.00    -0.088 HD
ENDBRANCH   1   2
BRANCH   1   7
ATOM      6  OXT LYS A   1      35.342 -18.726 -23.915  0.00  0.00    -0.253 OA
ATOM      7  C   LYS A   1      35.595 -17.931 -23.016  0.00  0.00    +0.293 C 
BRANCH   7   8
ATOM      8  O   LYS A   1      35.803 -16.611 -23.243  0.00  0.00    -0.482 OA
ATOM      9  H   LYS A   1      36.630 -16.224 -23.030  0.00  0.00    +0.295 HD
ENDBRANCH   7   8
ENDBRANCH   1   7
BRANCH   1  10
ATOM     10  CB  LYS A   1      35.009 -19.660 -21.246  0.00  0.00    -0.011 C 
BRANCH  10  11
ATOM     11  CG  LYS A   1      33.511 -19.524 -20.942  0.00  0.00    -0.004 C 
BRANCH  11  12
ATOM     12  CD  LYS A   1      32.977 -20.605 -19.998  0.00  0.00    -0.024 C 
BRANCH  12  13
ATOM     13  CE  LYS A   1      34.096 -21.545 -19.550  0.00  0.00    -0.086 C 
BRANCH  13  14
ATOM     14  NZ  LYS A   1      33.539 -22.810 -19.085  0.00  0.00    +0.380 N 
ATOM     15  HZ1 LYS A   1      34.082 -23.583 -19.470  0.00  0.00    -0.089 HD
ATOM     16  HZ2 LYS A   1      32.570 -22.888 -19.393  0.00  0.00    -0.089 HD
ATOM     17  HZ3 LYS A   1      33.576 -22.843 -18.066  0.00  0.00    -0.089 HD
ENDBRANCH  13  14
ENDBRANCH  12  13
ENDBRANCH  11  12
ENDBRANCH  10  11
ENDBRANCH   1  10
TORSDOF 8
ENDMDL
MODEL 7
REMARK VINA RESULT:      -4.9     11.300     11.844
REMARK  Name = 5962
REMARK  8 active torsions:
REMARK  status: ('A' for Active; 'I' for Inactive)
REMARK    1  A    between atoms: CA_1  and  N_2
REMARK    2  A    between atoms: CA_1  and  C_7
REMARK    3  A    between atoms: CA_1  and  CB_10
REMARK    4  A    between atoms: C_7  and  O_8
REMARK    5  A    between atoms: CB_10  and  CG_11
REMARK    6  A    between atoms: CG_11  and  CD_12
REMARK    7  A    between atoms: CD_12  and  CE_13
REMARK    8  A    between atoms: CE_13  and  NZ_14
REMARK                            x       y       z     vdW  Elec       q    Type
REMARK                         _______ _______ _______ _____ _____    ______ ____
ROOT
ATOM      1  CA  LYS A   1      34.838 -16.938 -22.545  0.00  0.00    +0.036 C 
ENDROOT
BRANCH   1   2
ATOM      2  N   LYS A   1      35.362 -16.219 -23.708  0.00  0.00    +0.389 N 
ATOM      3  H1  LYS A   1      36.357 -16.034 -23.572  0.00  0.00    -0.088 HD
ATOM      4  H2  LYS A   1      34.863 -15.336 -23.814  0.00  0.00    -0.088 HD
ATOM      5  H3  LYS A   1      35.233 -16.786 -24.546  0.00  0.00    -0.088 HD
ENDBRANCH   1   2
BRANCH   1   7
ATOM      6  OXT LYS A   1      35.077 -16.292 -20.231  0.00  0.00    -0.253 OA
ATOM      7  C   LYS A   1      34.804 -15.967 -21.382  0.00  0.00    +0.293 C 
BRANCH   7   8
ATOM      8  O   LYS A   1      34.429 -14.710 -21.719  0.00  0.00    -0.482 OA
ATOM      9  H   LYS A   1      33.523 -14.514 -21.865  0.00  0.00    +0.295 HD
ENDBRANCH   7   8
ENDBRANCH   1   7
BRANCH   1  10
ATOM     10  CB  LYS A   1      35.657 -18.200 -22.250  0.00  0.00    -0.011 C 
BRANCH  10  11
ATOM     11  CG  LYS A   1      34.840 -19.497 -22.197  0.00  0.00    -0.004 C 
BRANCH  11  12
ATOM     12  CD  LYS A   1      34.474 -19.933 -20.776  0.00  0.00    -0.024 C 
BRANCH  12  13
ATOM     13  CE  LYS A   1      32.959 -20.043 -20.608  0.00  0.00    -0.086 C 
BRANCH  13  14
ATOM     14  NZ  LYS A   1      32.635 -20.916 -19.486  0.00  0.00    +0.380 N 
ATOM     15  HZ1 LYS A   1      31.624 -21.032 -19.425  0.00  0.00    -0.089 HD
ATOM     16  HZ2 LYS A   1      32.982 -20.501 -18.622  0.00  0.00    -0.089 HD
ATOM     17  HZ3 LYS A   1      33.074 -21.826 -19.625  0.00  0.00    -0.089 HD
ENDBRANCH  13  14
ENDBRANCH  12  13
ENDBRANCH  11  12
ENDBRANCH  10  11
ENDBRANCH   1  10
TORSDOF 8
ENDMDL
MODEL 8
REMARK VINA RESULT:      -4.9     12.700     13.309
REMARK  Name = 5962
REMARK  8 active torsions:
REMARK  status: ('A' for Active; 'I' for Inactive)
REMARK    1  A    between atoms: CA_1  and  N_2
REMARK    2  A    between atoms: CA_1  and  C_7
REMARK    3  A    between atoms: CA_1  and  CB_10
REMARK    4  A    between atoms: C_7  and  O_8
REMARK    5  A    between atoms: CB_10  and  CG_11
REMARK    6  A    between atoms: CG_11  and  CD_12
REMARK    7  A    between atoms: CD_12  and  CE_13
REMARK    8  A    between atoms: CE_13  and  NZ_14
REMARK                            x       y       z     vdW  Elec       q    Type
REMARK                         _______ _______ _______ _____ _____    ______ ____
ROOT
ATOM      1  CA  LYS A   1      34.720 -17.206 -21.573  0.00  0.00    +0.036 C 
ENDROOT
BRANCH   1   2
ATOM      2  N   LYS A   1      35.567 -18.065 -20.743  0.00  0.00    +0.389 N 
ATOM      3  H1  LYS A   1      36.380 -17.535 -20.425  0.00  0.00    -0.088 HD
ATOM      4  H2  LYS A   1      35.878 -18.867 -21.292  0.00  0.00    -0.088 HD
ATOM      5  H3  LYS A   1      35.036 -18.390 -19.936  0.00  0.00    -0.088 HD
ENDBRANCH   1   2
BRANCH   1   7
ATOM      6  OXT LYS A   1      35.493 -18.216 -23.625  0.00  0.00    -0.253 OA
ATOM      7  C   LYS A   1      35.305 -17.196 -22.970  0.00  0.00    +0.293 C 
BRANCH   7   8
ATOM      8  O   LYS A   1      35.621 -15.961 -23.431  0.00  0.00    -0.482 OA
ATOM      9  H   LYS A   1      35.436 -15.732 -24.321  0.00  0.00    +0.295 HD
ENDBRANCH   7   8
ENDBRANCH   1   7
BRANCH   1  10
ATOM     10  CB  LYS A   1      34.583 -15.803 -20.969  0.00  0.00    -0.011 C 
BRANCH  10  11
ATOM     11  CG  LYS A   1      33.139 -15.353 -20.713  0.00  0.00    -0.004 C 
BRANCH  11  12
ATOM     12  CD  LYS A   1      32.809 -13.982 -21.309  0.00  0.00    -0.024 C 
BRANCH  12  13
ATOM     13  CE  LYS A   1      32.873 -14.018 -22.836  0.00  0.00    -0.086 C 
BRANCH  13  14
ATOM     14  NZ  LYS A   1      34.046 -13.291 -23.310  0.00  0.00    +0.380 N 
ATOM     15  HZ1 LYS A   1      34.550 -13.864 -23.987  0.00  0.00    -0.089 HD
ATOM     16  HZ2 LYS A   1      34.657 -13.081 -22.521  0.00  0.00    -0.089 HD
ATOM     17  HZ3 LYS A   1      33.751 -12.422 -23.753  0.00  0.00    -0.089 HD
ENDBRANCH  13  14
ENDBRANCH  12  13
ENDBRANCH  11  12
ENDBRANCH  10  11
ENDBRANCH   1  10
TORSDOF 8
ENDMDL
MODEL 9
REMARK VINA RESULT:      -4.9      9.072     10.070
REMARK  Name = 5962
REMARK  8 active torsions:
REMARK  status: ('A' for Active; 'I' for Inactive)
REMARK    1  A    between atoms: CA_1  and  N_2
REMARK    2  A    between atoms: CA_1  and  C_7
REMARK    3  A    between atoms: CA_1  and  CB_10
REMARK    4  A    between atoms: C_7  and  O_8
REMARK    5  A    between atoms: CB_10  and  CG_11
REMARK    6  A    between atoms: CG_11  and  CD_12
REMARK    7  A    between atoms: CD_12  and  CE_13
REMARK    8  A    between atoms: CE_13  and  NZ_14
REMARK                            x       y       z     vdW  Elec       q    Type
REMARK                         _______ _______ _______ _____ _____    ______ ____
ROOT
ATOM      1  CA  LYS A   1      28.736 -23.174 -15.834  0.00  0.00    +0.036 C 
ENDROOT
BRANCH   1   2
ATOM      2  N   LYS A   1      28.577 -24.627 -15.753  0.00  0.00    +0.389 N 
ATOM      3  H1  LYS A   1      29.079 -24.979 -14.936  0.00  0.00    -0.088 HD
ATOM      4  H2  LYS A   1      28.957 -25.058 -16.597  0.00  0.00    -0.088 HD
ATOM      5  H3  LYS A   1      27.587 -24.859 -15.670  0.00  0.00    -0.088 HD
ENDBRANCH   1   2
BRANCH   1   7
ATOM      6  OXT LYS A   1      27.496 -21.518 -17.078  0.00  0.00    -0.253 OA
ATOM      7  C   LYS A   1      27.871 -22.681 -16.976  0.00  0.00    +0.293 C 
BRANCH   7   8
ATOM      8  O   LYS A   1      27.532 -23.641 -17.871  0.00  0.00    -0.482 OA
ATOM      9  H   LYS A   1      28.197 -24.171 -18.265  0.00  0.00    +0.295 HD
ENDBRANCH   7   8
ENDBRANCH   1   7
BRANCH   1  10
ATOM     10  CB  LYS A   1      30.210 -22.780 -15.984  0.00  0.00    -0.011 C 
BRANCH  10  11
ATOM     11  CG  LYS A   1      31.014 -22.799 -14.677  0.00  0.00    -0.004 C 
BRANCH  11  12
ATOM     12  CD  LYS A   1      32.166 -23.808 -14.682  0.00  0.00    -0.024 C 
BRANCH  12  13
ATOM     13  CE  LYS A   1      31.809 -25.053 -13.871  0.00  0.00    -0.086 C 
BRANCH  13  14
ATOM     14  NZ  LYS A   1      30.610 -24.812 -13.076  0.00  0.00    +0.380 N 
ATOM     15  HZ1 LYS A   1      30.866 -24.719 -12.093  0.00  0.00    -0.089 HD
ATOM     16  HZ2 LYS A   1      29.966 -25.596 -13.187  0.00  0.00    -0.089 HD
ATOM     17  HZ3 LYS A   1      30.158 -23.955 -13.392  0.00  0.00    -0.089 HD
ENDBRANCH  13  14
ENDBRANCH  12  13
ENDBRANCH  11  12
ENDBRANCH  10  11
ENDBRANCH   1  10
TORSDOF 8
ENDMDL
