MODEL 1
REMARK VINA RESULT:      -9.7      0.000      0.000
REMARK  Name = 4440
REMARK  5 active torsions:
REMARK  status: ('A' for Active; 'I' for Inactive)
REMARK    1  A    between atoms: C_2  and  C_12
REMARK    2  A    between atoms: C_7  and  C_19
REMARK    3  A    between atoms: C_19  and  C_20
REMARK    4  A    between atoms: C_20  and  S_21
REMARK    5  A    between atoms: S_21  and  N_24
REMARK                            x       y       z     vdW  Elec       q    Type
REMARK                         _______ _______ _______ _____ _____    ______ ____
ROOT
ATOM      1  N   UNL     1      35.344 -17.735 -24.085  0.00  0.00    -0.312 N 
ATOM      2  C   UNL     1      34.688 -18.411 -22.081  0.00  0.00    -0.007 C 
ATOM      3  C   UNL     1      34.285 -17.059 -22.242  0.00  0.00    +0.010 C 
ATOM      4  C   UNL     1      35.337 -18.801 -23.226  0.00  0.00    +0.058 C 
ATOM      5  C   UNL     1      34.709 -16.657 -23.511  0.00  0.00    +0.048 C 
ATOM      6  C   UNL     1      33.598 -16.133 -21.432  0.00  0.00    -0.003 C 
ATOM      7  C   UNL     1      33.362 -14.843 -21.920  0.00  0.00    -0.020 C 
ATOM      8  C   UNL     1      34.480 -15.371 -24.011  0.00  0.00    +0.014 C 
ATOM      9  C   UNL     1      33.797 -14.470 -23.190  0.00  0.00    -0.003 C 
ATOM     10  H   UNL     1      35.746 -17.738 -24.985  0.00  0.00    +0.152 HD
ENDROOT
BRANCH   2  12
ATOM     11  N   UNL     1      33.869 -21.834 -19.550  0.00  0.00    +0.386 N 
ATOM     12  C   UNL     1      34.451 -19.279 -20.866  0.00  0.00    +0.019 C 
ATOM     13  C   UNL     1      35.504 -20.389 -20.716  0.00  0.00    -0.018 C 
ATOM     14  C   UNL     1      33.041 -19.890 -20.838  0.00  0.00    -0.018 C 
ATOM     15  C   UNL     1      35.219 -21.262 -19.490  0.00  0.00    -0.077 C 
ATOM     16  C   UNL     1      32.846 -20.781 -19.608  0.00  0.00    -0.077 C 
ATOM     17  C   UNL     1      33.633 -22.710 -18.402  0.00  0.00    -0.101 C 
ATOM     18  H   UNL     1      33.799 -22.388 -20.403  0.00  0.00    -0.080 HD
ENDBRANCH   2  12
BRANCH   7  19
ATOM     19  C   UNL     1      32.635 -13.857 -21.067  0.00  0.00    +0.053 C 
BRANCH  19  20
ATOM     20  C   UNL     1      32.238 -12.572 -21.798  0.00  0.00    +0.173 C 
BRANCH  20  21
ATOM     21  S   UNL     1      31.398 -11.427 -20.748  0.00  0.00    +0.041 S 
ATOM     22  O   UNL     1      29.983 -11.452 -21.082  0.00  0.00    -0.157 OA
ATOM     23  O   UNL     1      31.833 -11.673 -19.383  0.00  0.00    -0.157 OA
BRANCH  21  24
ATOM     24  N   UNL     1      32.081  -9.947 -21.267  0.00  0.00    -0.182 NA
ATOM     25  C   UNL     1      32.215  -8.844 -20.300  0.00  0.00    +0.110 C 
ATOM     26  H   UNL     1      31.502  -9.605 -22.034  0.00  0.00    +0.148 HD
ENDBRANCH  21  24
ENDBRANCH  20  21
ENDBRANCH  19  20
ENDBRANCH   7  19
TORSDOF 5
ENDMDL
MODEL 2
REMARK VINA RESULT:      -9.6      6.403      9.601
REMARK  Name = 4440
REMARK  5 active torsions:
REMARK  status: ('A' for Active; 'I' for Inactive)
REMARK    1  A    between atoms: C_2  and  C_12
REMARK    2  A    between atoms: C_7  and  C_19
REMARK    3  A    between atoms: C_19  and  C_20
REMARK    4  A    between atoms: C_20  and  S_21
REMARK    5  A    between atoms: S_21  and  N_24
REMARK                            x       y       z     vdW  Elec       q    Type
REMARK                         _______ _______ _______ _____ _____    ______ ____
ROOT
ATOM      1  N   UNL     1      35.620 -23.262 -15.412  0.00  0.00    -0.312 N 
ATOM      2  C   UNL     1      34.805 -22.644 -17.376  0.00  0.00    -0.007 C 
ATOM      3  C   UNL     1      33.727 -23.116 -16.582  0.00  0.00    +0.010 C 
ATOM      4  C   UNL     1      35.955 -22.745 -16.634  0.00  0.00    +0.058 C 
ATOM      5  C   UNL     1      34.266 -23.499 -15.352  0.00  0.00    +0.048 C 
ATOM      6  C   UNL     1      32.340 -23.257 -16.788  0.00  0.00    -0.003 C 
ATOM      7  C   UNL     1      31.546 -23.774 -15.758  0.00  0.00    -0.020 C 
ATOM      8  C   UNL     1      33.484 -24.017 -14.313  0.00  0.00    +0.014 C 
ATOM      9  C   UNL     1      32.111 -24.148 -14.541  0.00  0.00    -0.003 C 
ATOM     10  H   UNL     1      36.256 -23.439 -14.681  0.00  0.00    +0.152 HD
ENDROOT
BRANCH   2  12
ATOM     11  N   UNL     1      34.529 -19.970 -20.778  0.00  0.00    +0.386 N 
ATOM     12  C   UNL     1      34.714 -22.119 -18.791  0.00  0.00    +0.019 C 
ATOM     13  C   UNL     1      35.919 -21.247 -19.178  0.00  0.00    -0.018 C 
ATOM     14  C   UNL     1      33.409 -21.354 -19.059  0.00  0.00    -0.018 C 
ATOM     15  C   UNL     1      35.783 -20.715 -20.608  0.00  0.00    -0.077 C 
ATOM     16  C   UNL     1      33.363 -20.818 -20.493  0.00  0.00    -0.077 C 
ATOM     17  C   UNL     1      34.441 -19.420 -22.131  0.00  0.00    -0.101 C 
ATOM     18  H   UNL     1      34.527 -19.199 -20.111  0.00  0.00    -0.080 HD
ENDBRANCH   2  12
BRANCH   7  19
ATOM     19  C   UNL     1      30.076 -23.926 -15.970  0.00  0.00    +0.053 C 
BRANCH  19  20
ATOM     20  C   UNL     1      29.375 -22.645 -16.428  0.00  0.00    +0.173 C 
BRANCH  20  21
ATOM     21  S   UNL     1      27.647 -22.879 -16.704  0.00  0.00    +0.041 S 
ATOM     22  O   UNL     1      27.480 -23.896 -17.730  0.00  0.00    -0.157 OA
ATOM     23  O   UNL     1      27.006 -23.034 -15.409  0.00  0.00    -0.157 OA
BRANCH  21  24
ATOM     24  N   UNL     1      27.208 -21.353 -17.338  0.00  0.00    -0.182 NA
ATOM     25  C   UNL     1      25.961 -21.232 -18.113  0.00  0.00    +0.110 C 
ATOM     26  H   UNL     1      27.969 -21.053 -17.947  0.00  0.00    +0.148 HD
ENDBRANCH  21  24
ENDBRANCH  20  21
ENDBRANCH  19  20
ENDBRANCH   7  19
TORSDOF 5
ENDMDL
MODEL 3
REMARK VINA RESULT:      -9.3      7.837     11.687
REMARK  Name = 4440
REMARK  5 active torsions:
REMARK  status: ('A' for Active; 'I' for Inactive)
REMARK    1  A    between atoms: C_2  and  C_12
REMARK    2  A    between atoms: C_7  and  C_19
REMARK    3  A    between atoms: C_19  and  C_20
REMARK    4  A    between atoms: C_20  and  S_21
REMARK    5  A    between atoms: S_21  and  N_24
REMARK                            x       y       z     vdW  Elec       q    Type
REMARK                         _______ _______ _______ _____ _____    ______ ____
ROOT
ATOM      1  N   UNL     1      31.638 -23.606 -15.930  0.00  0.00    -0.312 N 
ATOM      2  C   UNL     1      33.188 -22.901 -17.346  0.00  0.00    -0.007 C 
ATOM      3  C   UNL     1      33.835 -23.285 -16.141  0.00  0.00    +0.010 C 
ATOM      4  C   UNL     1      31.840 -23.109 -17.189  0.00  0.00    +0.058 C 
ATOM      5  C   UNL     1      32.838 -23.724 -15.267  0.00  0.00    +0.048 C 
ATOM      6  C   UNL     1      35.175 -23.301 -15.706  0.00  0.00    -0.003 C 
ATOM      7  C   UNL     1      35.467 -23.756 -14.415  0.00  0.00    -0.020 C 
ATOM      8  C   UNL     1      33.116 -24.181 -13.974  0.00  0.00    +0.014 C 
ATOM      9  C   UNL     1      34.452 -24.188 -13.564  0.00  0.00    -0.003 C 
ATOM     10  H   UNL     1      30.760 -23.846 -15.553  0.00  0.00    +0.152 HD
ENDROOT
BRANCH   2  12
ATOM     11  N   UNL     1      35.131 -20.237 -20.161  0.00  0.00    +0.386 N 
ATOM     12  C   UNL     1      33.855 -22.360 -18.589  0.00  0.00    +0.019 C 
ATOM     13  C   UNL     1      35.299 -21.898 -18.334  0.00  0.00    -0.018 C 
ATOM     14  C   UNL     1      33.054 -21.226 -19.248  0.00  0.00    -0.018 C 
ATOM     15  C   UNL     1      35.935 -21.335 -19.609  0.00  0.00    -0.077 C 
ATOM     16  C   UNL     1      33.771 -20.687 -20.489  0.00  0.00    -0.077 C 
ATOM     17  C   UNL     1      35.781 -19.673 -21.344  0.00  0.00    -0.101 C 
ATOM     18  H   UNL     1      35.059 -19.511 -19.450  0.00  0.00    -0.080 HD
ENDBRANCH   2  12
BRANCH   7  19
ATOM     19  C   UNL     1      36.885 -23.776 -13.946  0.00  0.00    +0.053 C 
BRANCH  19  20
ATOM     20  C   UNL     1      37.829 -24.573 -14.849  0.00  0.00    +0.173 C 
BRANCH  20  21
ATOM     21  S   UNL     1      37.692 -26.316 -14.604  0.00  0.00    +0.041 S 
ATOM     22  O   UNL     1      37.203 -26.552 -13.255  0.00  0.00    -0.157 OA
ATOM     23  O   UNL     1      36.986 -26.872 -15.746  0.00  0.00    -0.157 OA
BRANCH  21  24
ATOM     24  N   UNL     1      39.332 -26.789 -14.707  0.00  0.00    -0.182 NA
ATOM     25  C   UNL     1      40.380 -25.755 -14.651  0.00  0.00    +0.110 C 
ATOM     26  H   UNL     1      39.445 -27.281 -15.593  0.00  0.00    +0.148 HD
ENDBRANCH  21  24
ENDBRANCH  20  21
ENDBRANCH  19  20
ENDBRANCH   7  19
TORSDOF 5
ENDMDL
MODEL 4
REMARK VINA RESULT:      -9.3      4.320      8.168
REMARK  Name = 4440
REMARK  5 active torsions:
REMARK  status: ('A' for Active; 'I' for Inactive)
REMARK    1  A    between atoms: C_2  and  C_12
REMARK    2  A    between atoms: C_7  and  C_19
REMARK    3  A    between atoms: C_19  and  C_20
REMARK    4  A    between atoms: C_20  and  S_21
REMARK    5  A    between atoms: S_21  and  N_24
REMARK                            x       y       z     vdW  Elec       q    Type
REMARK                         _______ _______ _______ _____ _____    ______ ____
ROOT
ATOM      1  N   UNL     1      35.342 -16.587 -24.260  0.00  0.00    -0.312 N 
ATOM      2  C   UNL     1      33.840 -15.751 -22.865  0.00  0.00    -0.007 C 
ATOM      3  C   UNL     1      34.118 -17.084 -22.463  0.00  0.00    +0.010 C 
ATOM      4  C   UNL     1      34.605 -15.471 -23.970  0.00  0.00    +0.058 C 
ATOM      5  C   UNL     1      35.065 -17.588 -23.357  0.00  0.00    +0.048 C 
ATOM      6  C   UNL     1      33.655 -17.916 -21.424  0.00  0.00    -0.003 C 
ATOM      7  C   UNL     1      34.156 -19.218 -21.318  0.00  0.00    -0.020 C 
ATOM      8  C   UNL     1      35.575 -18.888 -23.263  0.00  0.00    +0.014 C 
ATOM      9  C   UNL     1      35.101 -19.694 -22.224  0.00  0.00    -0.003 C 
ATOM     10  H   UNL     1      35.980 -16.664 -25.008  0.00  0.00    +0.152 HD
ENDROOT
BRANCH   2  12
ATOM     11  N   UNL     1      32.185 -12.268 -20.881  0.00  0.00    +0.386 N 
ATOM     12  C   UNL     1      32.875 -14.796 -22.200  0.00  0.00    +0.019 C 
ATOM     13  C   UNL     1      32.718 -13.477 -22.974  0.00  0.00    -0.018 C 
ATOM     14  C   UNL     1      33.242 -14.502 -20.737  0.00  0.00    -0.018 C 
ATOM     15  C   UNL     1      31.752 -12.526 -22.260  0.00  0.00    -0.077 C 
ATOM     16  C   UNL     1      32.257 -13.514 -20.105  0.00  0.00    -0.077 C 
ATOM     17  C   UNL     1      31.285 -11.315 -20.233  0.00  0.00    -0.101 C 
ATOM     18  H   UNL     1      33.120 -11.864 -20.915  0.00  0.00    -0.080 HD
ENDBRANCH   2  12
BRANCH   7  19
ATOM     19  C   UNL     1      33.670 -20.105 -20.220  0.00  0.00    +0.053 C 
BRANCH  19  20
ATOM     20  C   UNL     1      34.675 -21.177 -19.792  0.00  0.00    +0.173 C 
BRANCH  20  21
ATOM     21  S   UNL     1      33.906 -22.538 -18.971  0.00  0.00    +0.041 S 
ATOM     22  O   UNL     1      32.574 -22.129 -18.554  0.00  0.00    -0.157 OA
ATOM     23  O   UNL     1      34.083 -23.717 -19.803  0.00  0.00    -0.157 OA
BRANCH  21  24
ATOM     24  N   UNL     1      34.910 -22.699 -17.597  0.00  0.00    -0.182 NA
ATOM     25  C   UNL     1      34.328 -23.207 -16.342  0.00  0.00    +0.110 C 
ATOM     26  H   UNL     1      35.292 -21.775 -17.397  0.00  0.00    +0.148 HD
ENDBRANCH  21  24
ENDBRANCH  20  21
ENDBRANCH  19  20
ENDBRANCH   7  19
TORSDOF 5
ENDMDL
MODEL 5
REMARK VINA RESULT:      -9.2      5.435     10.687
REMARK  Name = 4440
REMARK  5 active torsions:
REMARK  status: ('A' for Active; 'I' for Inactive)
REMARK    1  A    between atoms: C_2  and  C_12
REMARK    2  A    between atoms: C_7  and  C_19
REMARK    3  A    between atoms: C_19  and  C_20
REMARK    4  A    between atoms: C_20  and  S_21
REMARK    5  A    between atoms: S_21  and  N_24
REMARK                            x       y       z     vdW  Elec       q    Type
REMARK                         _______ _______ _______ _____ _____    ______ ____
ROOT
ATOM      1  N   UNL     1      32.058  -7.965 -19.450  0.00  0.00    -0.312 N 
ATOM      2  C   UNL     1      31.999  -7.763 -21.654  0.00  0.00    -0.007 C 
ATOM      3  C   UNL     1      31.911  -9.144 -21.338  0.00  0.00    +0.010 C 
ATOM      4  C   UNL     1      32.088  -7.062 -20.478  0.00  0.00    +0.058 C 
ATOM      5  C   UNL     1      31.950  -9.245 -19.946  0.00  0.00    +0.048 C 
ATOM      6  C   UNL     1      31.802 -10.324 -22.101  0.00  0.00    -0.003 C 
ATOM      7  C   UNL     1      31.736 -11.558 -21.443  0.00  0.00    -0.020 C 
ATOM      8  C   UNL     1      31.885 -10.471 -19.275  0.00  0.00    +0.014 C 
ATOM      9  C   UNL     1      31.777 -11.628 -20.053  0.00  0.00    -0.003 C 
ATOM     10  H   UNL     1      32.106  -7.734 -18.493  0.00  0.00    +0.152 HD
ENDROOT
BRANCH   2  12
ATOM     11  N   UNL     1      32.505  -4.991 -24.950  0.00  0.00    +0.386 N 
ATOM     12  C   UNL     1      31.996  -7.158 -23.039  0.00  0.00    +0.019 C 
ATOM     13  C   UNL     1      33.408  -6.813 -23.540  0.00  0.00    -0.018 C 
ATOM     14  C   UNL     1      31.088  -5.922 -23.147  0.00  0.00    -0.018 C 
ATOM     15  C   UNL     1      33.364  -6.182 -24.935  0.00  0.00    -0.077 C 
ATOM     16  C   UNL     1      31.128  -5.323 -24.555  0.00  0.00    -0.077 C 
ATOM     17  C   UNL     1      32.519  -4.368 -26.274  0.00  0.00    -0.101 C 
ATOM     18  H   UNL     1      32.875  -4.327 -24.272  0.00  0.00    -0.080 HD
ENDBRANCH   2  12
BRANCH   7  19
ATOM     19  C   UNL     1      31.621 -12.812 -22.245  0.00  0.00    +0.053 C 
BRANCH  19  20
ATOM     20  C   UNL     1      32.797 -13.776 -22.069  0.00  0.00    +0.173 C 
BRANCH  20  21
ATOM     21  S   UNL     1      33.737 -13.975 -23.550  0.00  0.00    +0.041 S 
ATOM     22  O   UNL     1      34.895 -14.802 -23.251  0.00  0.00    -0.157 OA
ATOM     23  O   UNL     1      32.820 -14.355 -24.612  0.00  0.00    -0.157 OA
BRANCH  21  24
ATOM     24  N   UNL     1      34.243 -12.366 -23.833  0.00  0.00    -0.182 NA
ATOM     25  C   UNL     1      33.906 -11.726 -25.117  0.00  0.00    +0.110 C 
ATOM     26  H   UNL     1      35.259 -12.354 -23.751  0.00  0.00    +0.148 HD
ENDBRANCH  21  24
ENDBRANCH  20  21
ENDBRANCH  19  20
ENDBRANCH   7  19
TORSDOF 5
ENDMDL
MODEL 6
REMARK VINA RESULT:      -9.1      4.734      8.416
REMARK  Name = 4440
REMARK  5 active torsions:
REMARK  status: ('A' for Active; 'I' for Inactive)
REMARK    1  A    between atoms: C_2  and  C_12
REMARK    2  A    between atoms: C_7  and  C_19
REMARK    3  A    between atoms: C_19  and  C_20
REMARK    4  A    between atoms: C_20  and  S_21
REMARK    5  A    between atoms: S_21  and  N_24
REMARK                            x       y       z     vdW  Elec       q    Type
REMARK                         _______ _______ _______ _____ _____    ______ ____
ROOT
ATOM      1  N   UNL     1      36.392 -22.915 -14.606  0.00  0.00    -0.312 N 
ATOM      2  C   UNL     1      34.389 -23.561 -15.297  0.00  0.00    -0.007 C 
ATOM      3  C   UNL     1      35.032 -22.897 -16.374  0.00  0.00    +0.010 C 
ATOM      4  C   UNL     1      35.245 -23.559 -14.223  0.00  0.00    +0.058 C 
ATOM      5  C   UNL     1      36.290 -22.500 -15.914  0.00  0.00    +0.048 C 
ATOM      6  C   UNL     1      34.668 -22.591 -17.701  0.00  0.00    -0.003 C 
ATOM      7  C   UNL     1      35.573 -21.903 -18.516  0.00  0.00    -0.020 C 
ATOM      8  C   UNL     1      37.205 -21.811 -16.717  0.00  0.00    +0.014 C 
ATOM      9  C   UNL     1      36.822 -21.519 -18.030  0.00  0.00    -0.003 C 
ATOM     10  H   UNL     1      37.176 -22.770 -14.028  0.00  0.00    +0.152 HD
ENDROOT
BRANCH   2  12
ATOM     11  N   UNL     1      30.164 -24.231 -14.592  0.00  0.00    +0.386 N 
ATOM     12  C   UNL     1      33.006 -24.170 -15.315  0.00  0.00    +0.019 C 
ATOM     13  C   UNL     1      31.965 -23.255 -15.981  0.00  0.00    -0.018 C 
ATOM     14  C   UNL     1      32.519 -24.584 -13.917  0.00  0.00    -0.018 C 
ATOM     15  C   UNL     1      30.572 -23.894 -15.961  0.00  0.00    -0.077 C 
ATOM     16  C   UNL     1      31.107 -25.173 -13.973  0.00  0.00    -0.077 C 
ATOM     17  C   UNL     1      28.810 -24.786 -14.584  0.00  0.00    -0.101 C 
ATOM     18  H   UNL     1      30.169 -23.374 -14.041  0.00  0.00    -0.080 HD
ENDBRANCH   2  12
BRANCH   7  19
ATOM     19  C   UNL     1      35.194 -21.576 -19.922  0.00  0.00    +0.053 C 
BRANCH  19  20
ATOM     20  C   UNL     1      35.898 -20.340 -20.488  0.00  0.00    +0.173 C 
BRANCH  20  21
ATOM     21  S   UNL     1      34.787 -19.245 -21.314  0.00  0.00    +0.041 S 
ATOM     22  O   UNL     1      35.025 -19.344 -22.745  0.00  0.00    -0.157 OA
ATOM     23  O   UNL     1      33.456 -19.473 -20.776  0.00  0.00    -0.157 OA
BRANCH  21  24
ATOM     24  N   UNL     1      35.340 -17.730 -20.747  0.00  0.00    -0.182 NA
ATOM     25  C   UNL     1      34.791 -16.500 -21.343  0.00  0.00    +0.110 C 
ATOM     26  H   UNL     1      36.350 -17.708 -20.891  0.00  0.00    +0.148 HD
ENDBRANCH  21  24
ENDBRANCH  20  21
ENDBRANCH  19  20
ENDBRANCH   7  19
TORSDOF 5
ENDMDL
MODEL 7
REMARK VINA RESULT:      -9.1      3.561     10.473
REMARK  Name = 4440
REMARK  5 active torsions:
REMARK  status: ('A' for Active; 'I' for Inactive)
REMARK    1  A    between atoms: C_2  and  C_12
REMARK    2  A    between atoms: C_7  and  C_19
REMARK    3  A    between atoms: C_19  and  C_20
REMARK    4  A    between atoms: C_20  and  S_21
REMARK    5  A    between atoms: S_21  and  N_24
REMARK                            x       y       z     vdW  Elec       q    Type
REMARK                         _______ _______ _______ _____ _____    ______ ____
ROOT
ATOM      1  N   UNL     1      31.954  -8.104 -19.507  0.00  0.00    -0.312 N 
ATOM      2  C   UNL     1      32.290  -8.092 -21.696  0.00  0.00    -0.007 C 
ATOM      3  C   UNL     1      32.145  -9.442 -21.281  0.00  0.00    +0.010 C 
ATOM      4  C   UNL     1      32.169  -7.291 -20.587  0.00  0.00    +0.058 C 
ATOM      5  C   UNL     1      31.935  -9.423 -19.901  0.00  0.00    +0.048 C 
ATOM      6  C   UNL     1      32.172 -10.685 -21.946  0.00  0.00    -0.003 C 
ATOM      7  C   UNL     1      31.987 -11.858 -21.206  0.00  0.00    -0.020 C 
ATOM      8  C   UNL     1      31.749 -10.588 -19.149  0.00  0.00    +0.014 C 
ATOM      9  C   UNL     1      31.780 -11.808 -19.829  0.00  0.00    -0.003 C 
ATOM     10  H   UNL     1      31.831  -7.791 -18.581  0.00  0.00    +0.152 HD
ENDROOT
BRANCH   2  12
ATOM     11  N   UNL     1      33.386  -5.609 -25.077  0.00  0.00    +0.386 N 
ATOM     12  C   UNL     1      32.534  -7.608 -23.107  0.00  0.00    +0.019 C 
ATOM     13  C   UNL     1      34.015  -7.295 -23.378  0.00  0.00    -0.018 C 
ATOM     14  C   UNL     1      31.668  -6.394 -23.478  0.00  0.00    -0.018 C 
ATOM     15  C   UNL     1      34.221  -6.786 -24.808  0.00  0.00    -0.077 C 
ATOM     16  C   UNL     1      31.959  -5.918 -24.903  0.00  0.00    -0.077 C 
ATOM     17  C   UNL     1      33.637  -5.101 -26.426  0.00  0.00    -0.101 C 
ATOM     18  H   UNL     1      33.634  -4.885 -24.403  0.00  0.00    -0.080 HD
ENDBRANCH   2  12
BRANCH   7  19
ATOM     19  C   UNL     1      32.015 -13.178 -21.904  0.00  0.00    +0.053 C 
BRANCH  19  20
ATOM     20  C   UNL     1      32.516 -14.333 -21.034  0.00  0.00    +0.173 C 
BRANCH  20  21
ATOM     21  S   UNL     1      34.147 -14.851 -21.469  0.00  0.00    +0.041 S 
ATOM     22  O   UNL     1      34.474 -14.293 -22.771  0.00  0.00    -0.157 OA
ATOM     23  O   UNL     1      35.012 -14.601 -20.327  0.00  0.00    -0.157 OA
BRANCH  21  24
ATOM     24  N   UNL     1      33.926 -16.541 -21.612  0.00  0.00    -0.182 NA
ATOM     25  C   UNL     1      35.054 -17.437 -21.306  0.00  0.00    +0.110 C 
ATOM     26  H   UNL     1      33.650 -16.725 -22.576  0.00  0.00    +0.148 HD
ENDBRANCH  21  24
ENDBRANCH  20  21
ENDBRANCH  19  20
ENDBRANCH   7  19
TORSDOF 5
ENDMDL
MODEL 8
REMARK VINA RESULT:      -9.1      4.128      8.179
REMARK  Name = 4440
REMARK  5 active torsions:
REMARK  status: ('A' for Active; 'I' for Inactive)
REMARK    1  A    between atoms: C_2  and  C_12
REMARK    2  A    between atoms: C_7  and  C_19
REMARK    3  A    between atoms: C_19  and  C_20
REMARK    4  A    between atoms: C_20  and  S_21
REMARK    5  A    between atoms: S_21  and  N_24
REMARK                            x       y       z     vdW  Elec       q    Type
REMARK                         _______ _______ _______ _____ _____    ______ ____
ROOT
ATOM      1  N   UNL     1      33.758 -16.368 -25.860  0.00  0.00    -0.312 N 
ATOM      2  C   UNL     1      33.766 -14.854 -24.245  0.00  0.00    -0.007 C 
ATOM      3  C   UNL     1      34.272 -16.068 -23.711  0.00  0.00    +0.010 C 
ATOM      4  C   UNL     1      33.458 -15.066 -25.566  0.00  0.00    +0.058 C 
ATOM      5  C   UNL     1      34.257 -17.004 -24.746  0.00  0.00    +0.048 C 
ATOM      6  C   UNL     1      34.743 -16.464 -22.443  0.00  0.00    -0.003 C 
ATOM      7  C   UNL     1      35.182 -17.781 -22.260  0.00  0.00    -0.020 C 
ATOM      8  C   UNL     1      34.692 -18.324 -24.577  0.00  0.00    +0.014 C 
ATOM      9  C   UNL     1      35.155 -18.694 -23.311  0.00  0.00    -0.003 C 
ATOM     10  H   UNL     1      33.636 -16.790 -26.742  0.00  0.00    +0.152 HD
ENDROOT
BRANCH   2  12
ATOM     11  N   UNL     1      32.188 -11.043 -22.905  0.00  0.00    +0.386 N 
ATOM     12  C   UNL     1      33.592 -13.549 -23.501  0.00  0.00    +0.019 C 
ATOM     13  C   UNL     1      32.296 -13.505 -22.676  0.00  0.00    -0.018 C 
ATOM     14  C   UNL     1      33.664 -12.323 -24.425  0.00  0.00    -0.018 C 
ATOM     15  C   UNL     1      32.142 -12.162 -21.955  0.00  0.00    -0.077 C 
ATOM     16  C   UNL     1      33.460 -11.024 -23.641  0.00  0.00    -0.077 C 
ATOM     17  C   UNL     1      31.983  -9.773 -22.209  0.00  0.00    -0.101 C 
ATOM     18  H   UNL     1      31.436 -11.172 -23.580  0.00  0.00    -0.080 HD
ENDBRANCH   2  12
BRANCH   7  19
ATOM     19  C   UNL     1      35.682 -18.208 -20.919  0.00  0.00    +0.053 C 
BRANCH  19  20
ATOM     20  C   UNL     1      36.663 -19.382 -20.965  0.00  0.00    +0.173 C 
BRANCH  20  21
ATOM     21  S   UNL     1      36.139 -20.743 -19.969  0.00  0.00    +0.041 S 
ATOM     22  O   UNL     1      36.467 -21.975 -20.667  0.00  0.00    -0.157 OA
ATOM     23  O   UNL     1      36.622 -20.516 -18.617  0.00  0.00    -0.157 OA
BRANCH  21  24
ATOM     24  N   UNL     1      34.444 -20.517 -19.976  0.00  0.00    -0.182 NA
ATOM     25  C   UNL     1      33.576 -21.606 -19.493  0.00  0.00    +0.110 C 
ATOM     26  H   UNL     1      34.173 -20.323 -20.939  0.00  0.00    +0.148 HD
ENDBRANCH  21  24
ENDBRANCH  20  21
ENDBRANCH  19  20
ENDBRANCH   7  19
TORSDOF 5
ENDMDL
MODEL 9
REMARK VINA RESULT:      -8.8      1.753      2.109
REMARK  Name = 4440
REMARK  5 active torsions:
REMARK  status: ('A' for Active; 'I' for Inactive)
REMARK    1  A    between atoms: C_2  and  C_12
REMARK    2  A    between atoms: C_7  and  C_19
REMARK    3  A    between atoms: C_19  and  C_20
REMARK    4  A    between atoms: C_20  and  S_21
REMARK    5  A    between atoms: S_21  and  N_24
REMARK                            x       y       z     vdW  Elec       q    Type
REMARK                         _______ _______ _______ _____ _____    ______ ____
ROOT
ATOM      1  N   UNL     1      34.483 -16.775 -25.294  0.00  0.00    -0.312 N 
ATOM      2  C   UNL     1      34.634 -17.360 -23.163  0.00  0.00    -0.007 C 
ATOM      3  C   UNL     1      34.001 -16.091 -23.227  0.00  0.00    +0.010 C 
ATOM      4  C   UNL     1      34.920 -17.757 -24.446  0.00  0.00    +0.058 C 
ATOM      5  C   UNL     1      33.918 -15.745 -24.577  0.00  0.00    +0.048 C 
ATOM      6  C   UNL     1      33.488 -15.198 -22.265  0.00  0.00    -0.003 C 
ATOM      7  C   UNL     1      32.912 -13.995 -22.689  0.00  0.00    -0.020 C 
ATOM      8  C   UNL     1      33.346 -14.546 -25.015  0.00  0.00    +0.014 C 
ATOM      9  C   UNL     1      32.844 -13.676 -24.043  0.00  0.00    -0.003 C 
ATOM     10  H   UNL     1      34.562 -16.801 -26.276  0.00  0.00    +0.152 HD
ENDROOT
BRANCH   2  12
ATOM     11  N   UNL     1      35.809 -20.558 -20.481  0.00  0.00    +0.386 N 
ATOM     12  C   UNL     1      34.944 -18.147 -21.910  0.00  0.00    +0.019 C 
ATOM     13  C   UNL     1      36.419 -18.572 -21.827  0.00  0.00    -0.018 C 
ATOM     14  C   UNL     1      34.036 -19.376 -21.740  0.00  0.00    -0.018 C 
ATOM     15  C   UNL     1      36.690 -19.386 -20.558  0.00  0.00    -0.077 C 
ATOM     16  C   UNL     1      34.394 -20.160 -20.475  0.00  0.00    -0.077 C 
ATOM     17  C   UNL     1      36.120 -21.355 -19.295  0.00  0.00    -0.101 C 
ATOM     18  H   UNL     1      35.971 -21.129 -21.310  0.00  0.00    -0.080 HD
ENDBRANCH   2  12
BRANCH   7  19
ATOM     19  C   UNL     1      32.367 -13.043 -21.675  0.00  0.00    +0.053 C 
BRANCH  19  20
ATOM     20  C   UNL     1      31.432 -11.980 -22.257  0.00  0.00    +0.173 C 
BRANCH  20  21
ATOM     21  S   UNL     1      32.113 -10.354 -22.159  0.00  0.00    +0.041 S 
ATOM     22  O   UNL     1      32.179  -9.967 -20.759  0.00  0.00    -0.157 OA
ATOM     23  O   UNL     1      33.308 -10.321 -22.985  0.00  0.00    -0.157 OA
BRANCH  21  24
ATOM     24  N   UNL     1      30.896  -9.444 -22.945  0.00  0.00    -0.182 NA
ATOM     25  C   UNL     1      31.207  -8.077 -23.399  0.00  0.00    +0.110 C 
ATOM     26  H   UNL     1      30.112  -9.374 -22.298  0.00  0.00    +0.148 HD
ENDBRANCH  21  24
ENDBRANCH  20  21
ENDBRANCH  19  20
ENDBRANCH   7  19
TORSDOF 5
ENDMDL
