MODEL 1
REMARK VINA RESULT:      -6.3      0.000      0.000
REMARK  Name = 117765
REMARK  8 active torsions:
REMARK  status: ('A' for Active; 'I' for Inactive)
REMARK    1  A    between atoms: N_1  and  C_3
REMARK    2  A    between atoms: N_1  and  C_9
REMARK    3  A    between atoms: N_1  and  C_14
REMARK    4  A    between atoms: C_3  and  C_6
REMARK    5  A    between atoms: C_9  and  C_11
REMARK    6  A    between atoms: C_11  and  O_12
REMARK    7  A    between atoms: C_14  and  C_16
REMARK    8  A    between atoms: C_16  and  O_17
REMARK                            x       y       z     vdW  Elec       q    Type
REMARK                         _______ _______ _______ _____ _____    ______ ____
ROOT
ATOM      1  N   UNL     1      37.959 -25.449 -13.531  0.00  0.00    +0.407 N 
ATOM      2  H   UNL     1      37.752 -24.713 -14.207  0.00  0.00    -0.077 HD
ENDROOT
BRANCH   1   3
ATOM      3  C   UNL     1      37.511 -25.006 -12.211  0.00  0.00    +0.011 C 
BRANCH   3   6
ATOM      4  O   UNL     1      37.507 -22.792 -11.251  0.00  0.00    -0.278 OA
ATOM      5  N   UNL     1      37.049 -23.014 -13.491  0.00  0.00    -0.330 N 
ATOM      6  C   UNL     1      37.367 -23.503 -12.243  0.00  0.00    +0.198 C 
ATOM      7  H   UNL     1      36.932 -22.045 -13.625  0.00  0.00    +0.145 HD
ATOM      8  H   UNL     1      36.939 -23.632 -14.249  0.00  0.00    +0.145 HD
ENDBRANCH   3   6
ENDBRANCH   1   3
BRANCH   1   9
ATOM      9  C   UNL     1      37.246 -26.660 -13.934  0.00  0.00    +0.036 C 
BRANCH   9  11
ATOM     10  O   UNL     1      36.623 -27.391 -16.145  0.00  0.00    -0.253 OA
ATOM     11  C   UNL     1      36.739 -26.477 -15.337  0.00  0.00    +0.293 C 
BRANCH  11  12
ATOM     12  O   UNL     1      36.461 -25.182 -15.636  0.00  0.00    -0.482 OA
ATOM     13  H   UNL     1      37.154 -24.552 -15.676  0.00  0.00    +0.295 HD
ENDBRANCH  11  12
ENDBRANCH   9  11
ENDBRANCH   1   9
BRANCH   1  14
ATOM     14  C   UNL     1      39.402 -25.683 -13.529  0.00  0.00    +0.036 C 
BRANCH  14  16
ATOM     15  O   UNL     1      40.845 -25.953 -15.441  0.00  0.00    -0.253 OA
ATOM     16  C   UNL     1      39.949 -25.331 -14.884  0.00  0.00    +0.293 C 
BRANCH  16  17
ATOM     17  O   UNL     1      39.374 -24.222 -15.415  0.00  0.00    -0.482 OA
ATOM     18  H   UNL     1      39.732 -23.376 -15.232  0.00  0.00    +0.295 HD
ENDBRANCH  16  17
ENDBRANCH  14  16
ENDBRANCH   1  14
TORSDOF 8
ENDMDL
MODEL 2
REMARK VINA RESULT:      -6.3      1.029      3.764
REMARK  Name = 117765
REMARK  8 active torsions:
REMARK  status: ('A' for Active; 'I' for Inactive)
REMARK    1  A    between atoms: N_1  and  C_3
REMARK    2  A    between atoms: N_1  and  C_9
REMARK    3  A    between atoms: N_1  and  C_14
REMARK    4  A    between atoms: C_3  and  C_6
REMARK    5  A    between atoms: C_9  and  C_11
REMARK    6  A    between atoms: C_11  and  O_12
REMARK    7  A    between atoms: C_14  and  C_16
REMARK    8  A    between atoms: C_16  and  O_17
REMARK                            x       y       z     vdW  Elec       q    Type
REMARK                         _______ _______ _______ _____ _____    ______ ____
ROOT
ATOM      1  N   UNL     1      38.161 -25.420 -13.485  0.00  0.00    +0.407 N 
ATOM      2  H   UNL     1      37.891 -24.696 -14.150  0.00  0.00    -0.077 HD
ENDROOT
BRANCH   1   3
ATOM      3  C   UNL     1      37.299 -26.584 -13.691  0.00  0.00    +0.011 C 
BRANCH   3   6
ATOM      4  O   UNL     1      36.536 -26.941 -15.953  0.00  0.00    -0.278 OA
ATOM      5  N   UNL     1      35.524 -25.300 -14.702  0.00  0.00    -0.330 N 
ATOM      6  C   UNL     1      36.431 -26.318 -14.898  0.00  0.00    +0.198 C 
ATOM      7  H   UNL     1      34.908 -25.044 -15.426  0.00  0.00    +0.145 HD
ATOM      8  H   UNL     1      35.493 -24.829 -13.838  0.00  0.00    +0.145 HD
ENDBRANCH   3   6
ENDBRANCH   1   3
BRANCH   1   9
ATOM      9  C   UNL     1      39.560 -25.771 -13.727  0.00  0.00    +0.036 C 
BRANCH   9  11
ATOM     10  O   UNL     1      40.695 -25.988 -15.842  0.00  0.00    -0.253 OA
ATOM     11  C   UNL     1      39.924 -25.360 -15.126  0.00  0.00    +0.293 C 
BRANCH  11  12
ATOM     12  O   UNL     1      39.343 -24.193 -15.504  0.00  0.00    -0.482 OA
ATOM     13  H   UNL     1      38.429 -24.169 -15.707  0.00  0.00    +0.295 HD
ENDBRANCH  11  12
ENDBRANCH   9  11
ENDBRANCH   1   9
BRANCH   1  14
ATOM     14  C   UNL     1      37.993 -24.893 -12.131  0.00  0.00    +0.036 C 
BRANCH  14  16
ATOM     15  O   UNL     1      37.478 -22.709 -11.250  0.00  0.00    -0.253 OA
ATOM     16  C   UNL     1      37.642 -23.434 -12.223  0.00  0.00    +0.293 C 
BRANCH  16  17
ATOM     17  O   UNL     1      37.484 -23.008 -13.503  0.00  0.00    -0.482 OA
ATOM     18  H   UNL     1      37.550 -23.617 -14.211  0.00  0.00    +0.295 HD
ENDBRANCH  16  17
ENDBRANCH  14  16
ENDBRANCH   1  14
TORSDOF 8
ENDMDL
MODEL 3
REMARK VINA RESULT:      -6.2      1.357      3.916
REMARK  Name = 117765
REMARK  8 active torsions:
REMARK  status: ('A' for Active; 'I' for Inactive)
REMARK    1  A    between atoms: N_1  and  C_3
REMARK    2  A    between atoms: N_1  and  C_9
REMARK    3  A    between atoms: N_1  and  C_14
REMARK    4  A    between atoms: C_3  and  C_6
REMARK    5  A    between atoms: C_9  and  C_11
REMARK    6  A    between atoms: C_11  and  O_12
REMARK    7  A    between atoms: C_14  and  C_16
REMARK    8  A    between atoms: C_16  and  O_17
REMARK                            x       y       z     vdW  Elec       q    Type
REMARK                         _______ _______ _______ _____ _____    ______ ____
ROOT
ATOM      1  N   UNL     1      37.751 -24.704 -14.273  0.00  0.00    +0.407 N 
ATOM      2  H   UNL     1      38.140 -25.457 -13.706  0.00  0.00    -0.077 HD
ENDROOT
BRANCH   1   3
ATOM      3  C   UNL     1      36.607 -25.229 -15.019  0.00  0.00    +0.011 C 
BRANCH   3   6
ATOM      4  O   UNL     1      36.669 -27.330 -16.206  0.00  0.00    -0.278 OA
ATOM      5  N   UNL     1      37.038 -27.343 -13.938  0.00  0.00    -0.330 N 
ATOM      6  C   UNL     1      36.774 -26.726 -15.141  0.00  0.00    +0.198 C 
ATOM      7  H   UNL     1      37.164 -28.319 -13.903  0.00  0.00    +0.145 HD
ATOM      8  H   UNL     1      37.100 -26.809 -13.114  0.00  0.00    +0.145 HD
ENDBRANCH   3   6
ENDBRANCH   1   3
BRANCH   1   9
ATOM      9  C   UNL     1      37.328 -23.625 -13.382  0.00  0.00    +0.036 C 
BRANCH   9  11
ATOM     10  O   UNL     1      38.870 -23.006 -11.635  0.00  0.00    -0.253 OA
ATOM     11  C   UNL     1      38.028 -23.788 -12.062  0.00  0.00    +0.293 C 
BRANCH  11  12
ATOM     12  O   UNL     1      37.664 -24.918 -11.404  0.00  0.00    -0.482 OA
ATOM     13  H   UNL     1      36.872 -24.934 -10.903  0.00  0.00    +0.295 HD
ENDBRANCH  11  12
ENDBRANCH   9  11
ENDBRANCH   1   9
BRANCH   1  14
ATOM     14  C   UNL     1      38.787 -24.232 -15.191  0.00  0.00    +0.036 C 
BRANCH  14  16
ATOM     15  O   UNL     1      40.748 -24.990 -14.013  0.00  0.00    -0.253 OA
ATOM     16  C   UNL     1      40.021 -25.068 -14.994  0.00  0.00    +0.293 C 
BRANCH  16  17
ATOM     17  O   UNL     1      40.273 -25.895 -16.041  0.00  0.00    -0.482 OA
ATOM     18  H   UNL     1      40.595 -25.545 -16.848  0.00  0.00    +0.295 HD
ENDBRANCH  16  17
ENDBRANCH  14  16
ENDBRANCH   1  14
TORSDOF 8
ENDMDL
MODEL 4
REMARK VINA RESULT:      -6.2      1.301      3.723
REMARK  Name = 117765
REMARK  8 active torsions:
REMARK  status: ('A' for Active; 'I' for Inactive)
REMARK    1  A    between atoms: N_1  and  C_3
REMARK    2  A    between atoms: N_1  and  C_9
REMARK    3  A    between atoms: N_1  and  C_14
REMARK    4  A    between atoms: C_3  and  C_6
REMARK    5  A    between atoms: C_9  and  C_11
REMARK    6  A    between atoms: C_11  and  O_12
REMARK    7  A    between atoms: C_14  and  C_16
REMARK    8  A    between atoms: C_16  and  O_17
REMARK                            x       y       z     vdW  Elec       q    Type
REMARK                         _______ _______ _______ _____ _____    ______ ____
ROOT
ATOM      1  N   UNL     1      37.807 -24.702 -14.243  0.00  0.00    +0.407 N 
ATOM      2  H   UNL     1      38.038 -25.448 -13.587  0.00  0.00    -0.077 HD
ENDROOT
BRANCH   1   3
ATOM      3  C   UNL     1      38.989 -24.419 -15.057  0.00  0.00    +0.011 C 
BRANCH   3   6
ATOM      4  O   UNL     1      40.680 -25.963 -15.824  0.00  0.00    -0.278 OA
ATOM      5  N   UNL     1      39.902 -26.170 -13.671  0.00  0.00    -0.330 N 
ATOM      6  C   UNL     1      39.947 -25.579 -14.915  0.00  0.00    +0.198 C 
ATOM      7  H   UNL     1      40.486 -26.938 -13.470  0.00  0.00    +0.145 HD
ATOM      8  H   UNL     1      39.287 -25.827 -12.984  0.00  0.00    +0.145 HD
ENDBRANCH   3   6
ENDBRANCH   1   3
BRANCH   1   9
ATOM      9  C   UNL     1      36.702 -25.154 -15.087  0.00  0.00    +0.036 C 
BRANCH   9  11
ATOM     10  O   UNL     1      36.601 -27.308 -16.164  0.00  0.00    -0.253 OA
ATOM     11  C   UNL     1      36.714 -26.656 -15.132  0.00  0.00    +0.293 C 
BRANCH  11  12
ATOM     12  O   UNL     1      36.821 -27.223 -13.904  0.00  0.00    -0.482 OA
ATOM     13  H   UNL     1      37.445 -27.906 -13.756  0.00  0.00    +0.295 HD
ENDBRANCH  11  12
ENDBRANCH   9  11
ENDBRANCH   1   9
BRANCH   1  14
ATOM     14  C   UNL     1      37.417 -23.517 -13.480  0.00  0.00    +0.036 C 
BRANCH  14  16
ATOM     15  O   UNL     1      37.568 -22.963 -11.139  0.00  0.00    -0.253 OA
ATOM     16  C   UNL     1      37.565 -23.819 -12.014  0.00  0.00    +0.293 C 
BRANCH  16  17
ATOM     17  O   UNL     1      37.739 -25.141 -11.761  0.00  0.00    -0.482 OA
ATOM     18  H   UNL     1      37.153 -25.770 -12.133  0.00  0.00    +0.295 HD
ENDBRANCH  16  17
ENDBRANCH  14  16
ENDBRANCH   1  14
TORSDOF 8
ENDMDL
MODEL 5
REMARK VINA RESULT:      -6.1      2.337      4.070
REMARK  Name = 117765
REMARK  8 active torsions:
REMARK  status: ('A' for Active; 'I' for Inactive)
REMARK    1  A    between atoms: N_1  and  C_3
REMARK    2  A    between atoms: N_1  and  C_9
REMARK    3  A    between atoms: N_1  and  C_14
REMARK    4  A    between atoms: C_3  and  C_6
REMARK    5  A    between atoms: C_9  and  C_11
REMARK    6  A    between atoms: C_11  and  O_12
REMARK    7  A    between atoms: C_14  and  C_16
REMARK    8  A    between atoms: C_16  and  O_17
REMARK                            x       y       z     vdW  Elec       q    Type
REMARK                         _______ _______ _______ _____ _____    ______ ____
ROOT
ATOM      1  N   UNL     1      36.676 -24.225 -13.265  0.00  0.00    +0.407 N 
ATOM      2  H   UNL     1      35.993 -24.977 -13.177  0.00  0.00    -0.077 HD
ENDROOT
BRANCH   1   3
ATOM      3  C   UNL     1      36.281 -23.369 -14.384  0.00  0.00    +0.011 C 
BRANCH   3   6
ATOM      4  O   UNL     1      34.983 -23.875 -16.356  0.00  0.00    -0.278 OA
ATOM      5  N   UNL     1      34.485 -24.980 -14.404  0.00  0.00    -0.330 N 
ATOM      6  C   UNL     1      35.203 -24.084 -15.165  0.00  0.00    +0.198 C 
ATOM      7  H   UNL     1      33.757 -25.501 -14.814  0.00  0.00    +0.145 HD
ATOM      8  H   UNL     1      34.699 -25.099 -13.451  0.00  0.00    +0.145 HD
ENDBRANCH   3   6
ENDBRANCH   1   3
BRANCH   1   9
ATOM      9  C   UNL     1      36.686 -23.462 -12.018  0.00  0.00    +0.036 C 
BRANCH   9  11
ATOM     10  O   UNL     1      36.108 -24.127  -9.774  0.00  0.00    -0.253 OA
ATOM     11  C   UNL     1      35.912 -24.226 -10.980  0.00  0.00    +0.293 C 
BRANCH  11  12
ATOM     12  O   UNL     1      34.998 -25.073 -11.517  0.00  0.00    -0.482 OA
ATOM     13  H   UNL     1      34.259 -25.347 -11.011  0.00  0.00    +0.295 HD
ENDBRANCH  11  12
ENDBRANCH   9  11
ENDBRANCH   1   9
BRANCH   1  14
ATOM     14  C   UNL     1      37.990 -24.817 -13.513  0.00  0.00    +0.036 C 
BRANCH  14  16
ATOM     15  O   UNL     1      38.505 -26.901 -14.610  0.00  0.00    -0.253 OA
ATOM     16  C   UNL     1      37.809 -26.278 -13.819  0.00  0.00    +0.293 C 
BRANCH  16  17
ATOM     17  O   UNL     1      36.762 -26.832 -13.155  0.00  0.00    -0.482 OA
ATOM     18  H   UNL     1      36.167 -26.286 -12.680  0.00  0.00    +0.295 HD
ENDBRANCH  16  17
ENDBRANCH  14  16
ENDBRANCH   1  14
TORSDOF 8
ENDMDL
MODEL 6
REMARK VINA RESULT:      -6.0      2.091      4.250
REMARK  Name = 117765
REMARK  8 active torsions:
REMARK  status: ('A' for Active; 'I' for Inactive)
REMARK    1  A    between atoms: N_1  and  C_3
REMARK    2  A    between atoms: N_1  and  C_9
REMARK    3  A    between atoms: N_1  and  C_14
REMARK    4  A    between atoms: C_3  and  C_6
REMARK    5  A    between atoms: C_9  and  C_11
REMARK    6  A    between atoms: C_11  and  O_12
REMARK    7  A    between atoms: C_14  and  C_16
REMARK    8  A    between atoms: C_16  and  O_17
REMARK                            x       y       z     vdW  Elec       q    Type
REMARK                         _______ _______ _______ _____ _____    ______ ____
ROOT
ATOM      1  N   UNL     1      36.761 -24.239 -13.348  0.00  0.00    +0.407 N 
ATOM      2  H   UNL     1      36.133 -25.039 -13.272  0.00  0.00    -0.077 HD
ENDROOT
BRANCH   1   3
ATOM      3  C   UNL     1      38.134 -24.734 -13.436  0.00  0.00    +0.011 C 
BRANCH   3   6
ATOM      4  O   UNL     1      38.893 -26.657 -14.683  0.00  0.00    -0.278 OA
ATOM      5  N   UNL     1      37.041 -26.883 -13.342  0.00  0.00    -0.330 N 
ATOM      6  C   UNL     1      38.086 -26.174 -13.891  0.00  0.00    +0.198 C 
ATOM      7  H   UNL     1      36.916 -27.832 -13.572  0.00  0.00    +0.145 HD
ATOM      8  H   UNL     1      36.419 -26.441 -12.721  0.00  0.00    +0.145 HD
ENDBRANCH   3   6
ENDBRANCH   1   3
BRANCH   1   9
ATOM      9  C   UNL     1      36.410 -23.488 -14.553  0.00  0.00    +0.036 C 
BRANCH   9  11
ATOM     10  O   UNL     1      34.838 -23.865 -16.341  0.00  0.00    -0.253 OA
ATOM     11  C   UNL     1      35.270 -24.187 -15.240  0.00  0.00    +0.293 C 
BRANCH  11  12
ATOM     12  O   UNL     1      34.736 -25.189 -14.497  0.00  0.00    -0.482 OA
ATOM     13  H   UNL     1      35.134 -26.038 -14.500  0.00  0.00    +0.295 HD
ENDBRANCH  11  12
ENDBRANCH   9  11
ENDBRANCH   1   9
BRANCH   1  14
ATOM     14  C   UNL     1      36.593 -23.404 -12.159  0.00  0.00    +0.036 C 
BRANCH  14  16
ATOM     15  O   UNL     1      36.143 -24.114  -9.900  0.00  0.00    -0.253 OA
ATOM     16  C   UNL     1      35.904 -24.214 -11.096  0.00  0.00    +0.293 C 
BRANCH  16  17
ATOM     17  O   UNL     1      35.012 -25.103 -11.604  0.00  0.00    -0.482 OA
ATOM     18  H   UNL     1      35.027 -25.312 -12.516  0.00  0.00    +0.295 HD
ENDBRANCH  16  17
ENDBRANCH  14  16
ENDBRANCH   1  14
TORSDOF 8
ENDMDL
MODEL 7
REMARK VINA RESULT:      -5.9      1.260      3.135
REMARK  Name = 117765
REMARK  8 active torsions:
REMARK  status: ('A' for Active; 'I' for Inactive)
REMARK    1  A    between atoms: N_1  and  C_3
REMARK    2  A    between atoms: N_1  and  C_9
REMARK    3  A    between atoms: N_1  and  C_14
REMARK    4  A    between atoms: C_3  and  C_6
REMARK    5  A    between atoms: C_9  and  C_11
REMARK    6  A    between atoms: C_11  and  O_12
REMARK    7  A    between atoms: C_14  and  C_16
REMARK    8  A    between atoms: C_16  and  O_17
REMARK                            x       y       z     vdW  Elec       q    Type
REMARK                         _______ _______ _______ _____ _____    ______ ____
ROOT
ATOM      1  N   UNL     1      37.766 -24.616 -14.255  0.00  0.00    +0.407 N 
ATOM      2  H   UNL     1      37.990 -25.316 -13.548  0.00  0.00    -0.077 HD
ENDROOT
BRANCH   1   3
ATOM      3  C   UNL     1      37.375 -23.380 -13.576  0.00  0.00    +0.011 C 
BRANCH   3   6
ATOM      4  O   UNL     1      37.626 -22.623 -11.298  0.00  0.00    -0.278 OA
ATOM      5  N   UNL     1      37.863 -24.866 -11.739  0.00  0.00    -0.330 N 
ATOM      6  C   UNL     1      37.624 -23.557 -12.097  0.00  0.00    +0.198 C 
ATOM      7  H   UNL     1      38.038 -25.095 -10.797  0.00  0.00    +0.145 HD
ATOM      8  H   UNL     1      37.859 -25.572 -12.424  0.00  0.00    +0.145 HD
ENDBRANCH   3   6
ENDBRANCH   1   3
BRANCH   1   9
ATOM      9  C   UNL     1      38.954 -24.393 -15.078  0.00  0.00    +0.036 C 
BRANCH   9  11
ATOM     10  O   UNL     1      40.656 -25.966 -15.741  0.00  0.00    -0.253 OA
ATOM     11  C   UNL     1      39.903 -25.541 -14.873  0.00  0.00    +0.293 C 
BRANCH  11  12
ATOM     12  O   UNL     1      39.813 -26.089 -13.634  0.00  0.00    -0.482 OA
ATOM     13  H   UNL     1      40.335 -25.751 -12.933  0.00  0.00    +0.295 HD
ENDBRANCH  11  12
ENDBRANCH   9  11
ENDBRANCH   1   9
BRANCH   1  14
ATOM     14  C   UNL     1      36.664 -25.120 -15.073  0.00  0.00    +0.036 C 
BRANCH  14  16
ATOM     15  O   UNL     1      36.619 -27.297 -16.107  0.00  0.00    -0.253 OA
ATOM     16  C   UNL     1      36.726 -26.622 -15.091  0.00  0.00    +0.293 C 
BRANCH  16  17
ATOM     17  O   UNL     1      36.872 -27.160 -13.853  0.00  0.00    -0.482 OA
ATOM     18  H   UNL     1      37.709 -27.472 -13.574  0.00  0.00    +0.295 HD
ENDBRANCH  16  17
ENDBRANCH  14  16
ENDBRANCH   1  14
TORSDOF 8
ENDMDL
MODEL 8
REMARK VINA RESULT:      -5.9      2.357      4.244
REMARK  Name = 117765
REMARK  8 active torsions:
REMARK  status: ('A' for Active; 'I' for Inactive)
REMARK    1  A    between atoms: N_1  and  C_3
REMARK    2  A    between atoms: N_1  and  C_9
REMARK    3  A    between atoms: N_1  and  C_14
REMARK    4  A    between atoms: C_3  and  C_6
REMARK    5  A    between atoms: C_9  and  C_11
REMARK    6  A    between atoms: C_11  and  O_12
REMARK    7  A    between atoms: C_14  and  C_16
REMARK    8  A    between atoms: C_16  and  O_17
REMARK                            x       y       z     vdW  Elec       q    Type
REMARK                         _______ _______ _______ _____ _____    ______ ____
ROOT
ATOM      1  N   UNL     1      36.411 -24.238 -13.734  0.00  0.00    +0.407 N 
ATOM      2  H   UNL     1      36.287 -24.943 -13.007  0.00  0.00    -0.077 HD
ENDROOT
BRANCH   1   3
ATOM      3  C   UNL     1      37.086 -24.862 -14.873  0.00  0.00    +0.011 C 
BRANCH   3   6
ATOM      4  O   UNL     1      36.469 -26.979 -15.854  0.00  0.00    -0.278 OA
ATOM      5  N   UNL     1      36.857 -26.893 -13.591  0.00  0.00    -0.330 N 
ATOM      6  C   UNL     1      36.776 -26.340 -14.850  0.00  0.00    +0.198 C 
ATOM      7  H   UNL     1      36.674 -27.852 -13.462  0.00  0.00    +0.145 HD
ATOM      8  H   UNL     1      37.097 -26.330 -12.821  0.00  0.00    +0.145 HD
ENDBRANCH   3   6
ENDBRANCH   1   3
BRANCH   1   9
ATOM      9  C   UNL     1      35.094 -23.743 -14.129  0.00  0.00    +0.036 C 
BRANCH   9  11
ATOM     10  O   UNL     1      32.898 -23.899 -13.147  0.00  0.00    -0.253 OA
ATOM     11  C   UNL     1      34.079 -24.224 -13.129  0.00  0.00    +0.293 C 
BRANCH  11  12
ATOM     12  O   UNL     1      34.615 -25.025 -12.173  0.00  0.00    -0.482 OA
ATOM     13  H   UNL     1      34.890 -24.659 -11.355  0.00  0.00    +0.295 HD
ENDBRANCH  11  12
ENDBRANCH   9  11
ENDBRANCH   1   9
BRANCH   1  14
ATOM     14  C   UNL     1      37.224 -23.151 -13.192  0.00  0.00    +0.036 C 
BRANCH  14  16
ATOM     15  O   UNL     1      39.063 -23.235 -11.635  0.00  0.00    -0.253 OA
ATOM     16  C   UNL     1      37.971 -23.661 -11.991  0.00  0.00    +0.293 C 
BRANCH  16  17
ATOM     17  O   UNL     1      37.329 -24.678 -11.361  0.00  0.00    -0.482 OA
ATOM     18  H   UNL     1      36.567 -25.061 -11.747  0.00  0.00    +0.295 HD
ENDBRANCH  16  17
ENDBRANCH  14  16
ENDBRANCH   1  14
TORSDOF 8
ENDMDL
MODEL 9
REMARK VINA RESULT:      -5.9      1.862      3.675
REMARK  Name = 117765
REMARK  8 active torsions:
REMARK  status: ('A' for Active; 'I' for Inactive)
REMARK    1  A    between atoms: N_1  and  C_3
REMARK    2  A    between atoms: N_1  and  C_9
REMARK    3  A    between atoms: N_1  and  C_14
REMARK    4  A    between atoms: C_3  and  C_6
REMARK    5  A    between atoms: C_9  and  C_11
REMARK    6  A    between atoms: C_11  and  O_12
REMARK    7  A    between atoms: C_14  and  C_16
REMARK    8  A    between atoms: C_16  and  O_17
REMARK                            x       y       z     vdW  Elec       q    Type
REMARK                         _______ _______ _______ _____ _____    ______ ____
ROOT
ATOM      1  N   UNL     1      37.992 -24.890 -13.888  0.00  0.00    +0.407 N 
ATOM      2  H   UNL     1      38.568 -24.052 -13.803  0.00  0.00    -0.077 HD
ENDROOT
BRANCH   1   3
ATOM      3  C   UNL     1      36.979 -24.652 -14.917  0.00  0.00    +0.011 C 
BRANCH   3   6
ATOM      4  O   UNL     1      37.646 -22.379 -15.382  0.00  0.00    -0.278 OA
ATOM      5  N   UNL     1      35.491 -22.767 -14.685  0.00  0.00    -0.330 N 
ATOM      6  C   UNL     1      36.765 -23.161 -15.030  0.00  0.00    +0.198 C 
ATOM      7  H   UNL     1      35.243 -21.814 -14.722  0.00  0.00    +0.145 HD
ATOM      8  H   UNL     1      34.829 -23.437 -14.399  0.00  0.00    +0.145 HD
ENDBRANCH   3   6
ENDBRANCH   1   3
BRANCH   1   9
ATOM      9  C   UNL     1      38.854 -26.007 -14.268  0.00  0.00    +0.036 C 
BRANCH   9  11
ATOM     10  O   UNL     1      40.837 -24.638 -14.257  0.00  0.00    -0.253 OA
ATOM     11  C   UNL     1      40.134 -25.458 -14.834  0.00  0.00    +0.293 C 
BRANCH  11  12
ATOM     12  O   UNL     1      40.411 -25.932 -16.075  0.00  0.00    -0.482 OA
ATOM     13  H   UNL     1      40.035 -25.521 -16.829  0.00  0.00    +0.295 HD
ENDBRANCH  11  12
ENDBRANCH   9  11
ENDBRANCH   1   9
BRANCH   1  14
ATOM     14  C   UNL     1      37.357 -25.149 -12.597  0.00  0.00    +0.036 C 
BRANCH  14  16
ATOM     15  O   UNL     1      38.708 -23.327 -11.782  0.00  0.00    -0.253 OA
ATOM     16  C   UNL     1      37.722 -24.040 -11.650  0.00  0.00    +0.293 C 
BRANCH  16  17
ATOM     17  O   UNL     1      36.864 -23.935 -10.603  0.00  0.00    -0.482 OA
ATOM     18  H   UNL     1      37.196 -23.810  -9.736  0.00  0.00    +0.295 HD
ENDBRANCH  16  17
ENDBRANCH  14  16
ENDBRANCH   1  14
TORSDOF 8
ENDMDL
