MODEL 1
REMARK VINA RESULT:      -5.2      0.000      0.000
REMARK  Name = 3387240
REMARK  0 active torsions:
REMARK  status: ('A' for Active; 'I' for Inactive)
REMARK                            x       y       z     vdW  Elec       q    Type
REMARK                         _______ _______ _______ _____ _____    ______ ____
ROOT
ATOM      1  N   UNL     1      37.424 -25.014 -12.293  0.00  0.00    -0.141 N 
ATOM      2  N   UNL     1      36.197 -25.108 -11.730  0.00  0.00    -0.147 NA
ATOM      3  N   UNL     1      37.027 -27.085 -13.446  0.00  0.00    -0.373 N 
ATOM      4  N   UNL     1      39.109 -25.923 -13.746  0.00  0.00    -0.331 N 
ATOM      5  N   UNL     1      37.257 -23.212 -11.029  0.00  0.00    -0.203 NA
ATOM      6  C   UNL     1      37.854 -26.007 -13.162  0.00  0.00    +0.178 C 
ATOM      7  C   UNL     1      38.037 -23.835 -11.834  0.00  0.00    +0.193 C 
ATOM      8  C   UNL     1      36.141 -24.033 -10.998  0.00  0.00    +0.219 C 
ATOM      9  H   UNL     1      36.136 -27.145 -13.032  0.00  0.00    +0.158 HD
ATOM     10  H   UNL     1      37.332 -27.789 -14.062  0.00  0.00    +0.158 HD
ATOM     11  H   UNL     1      39.695 -25.158 -13.544  0.00  0.00    +0.145 HD
ATOM     12  H   UNL     1      39.413 -26.627 -14.362  0.00  0.00    +0.145 HD
ENDROOT
TORSDOF 0
ENDMDL
MODEL 2
REMARK VINA RESULT:      -5.0      2.494      3.408
REMARK  Name = 3387240
REMARK  0 active torsions:
REMARK  status: ('A' for Active; 'I' for Inactive)
REMARK                            x       y       z     vdW  Elec       q    Type
REMARK                         _______ _______ _______ _____ _____    ______ ____
ROOT
ATOM      1  N   UNL     1      37.820 -25.756 -14.467  0.00  0.00    -0.141 N 
ATOM      2  N   UNL     1      38.935 -26.453 -14.787  0.00  0.00    -0.147 NA
ATOM      3  N   UNL     1      36.518 -27.273 -15.801  0.00  0.00    -0.373 N 
ATOM      4  N   UNL     1      35.444 -25.454 -14.654  0.00  0.00    -0.331 N 
ATOM      5  N   UNL     1      39.451 -24.702 -13.417  0.00  0.00    -0.203 NA
ATOM      6  C   UNL     1      36.594 -26.160 -14.974  0.00  0.00    +0.178 C 
ATOM      7  C   UNL     1      38.186 -24.690 -13.625  0.00  0.00    +0.193 C 
ATOM      8  C   UNL     1      39.866 -25.802 -14.151  0.00  0.00    +0.219 C 
ATOM      9  H   UNL     1      37.334 -27.774 -16.027  0.00  0.00    +0.158 HD
ATOM     10  H   UNL     1      35.648 -27.560 -16.160  0.00  0.00    +0.158 HD
ATOM     11  H   UNL     1      35.498 -24.665 -14.068  0.00  0.00    +0.145 HD
ATOM     12  H   UNL     1      34.574 -25.742 -15.014  0.00  0.00    +0.145 HD
ENDROOT
TORSDOF 0
ENDMDL
MODEL 3
REMARK VINA RESULT:      -5.0      1.926      2.344
REMARK  Name = 3387240
REMARK  0 active torsions:
REMARK  status: ('A' for Active; 'I' for Inactive)
REMARK                            x       y       z     vdW  Elec       q    Type
REMARK                         _______ _______ _______ _____ _____    ______ ____
ROOT
ATOM      1  N   UNL     1      37.737 -24.265 -13.464  0.00  0.00    -0.141 N 
ATOM      2  N   UNL     1      37.588 -22.980 -13.067  0.00  0.00    -0.147 NA
ATOM      3  N   UNL     1      37.895 -23.518 -15.742  0.00  0.00    -0.373 N 
ATOM      4  N   UNL     1      38.046 -25.861 -15.233  0.00  0.00    -0.331 N 
ATOM      5  N   UNL     1      37.533 -24.385 -11.269  0.00  0.00    -0.203 NA
ATOM      6  C   UNL     1      37.893 -24.548 -14.813  0.00  0.00    +0.178 C 
ATOM      7  C   UNL     1      37.696 -25.092 -12.327  0.00  0.00    +0.193 C 
ATOM      8  C   UNL     1      37.472 -23.096 -11.776  0.00  0.00    +0.219 C 
ATOM      9  H   UNL     1      37.787 -22.585 -15.444  0.00  0.00    +0.158 HD
ATOM     10  H   UNL     1      38.006 -23.719 -16.699  0.00  0.00    +0.158 HD
ATOM     11  H   UNL     1      38.044 -26.592 -14.574  0.00  0.00    +0.145 HD
ATOM     12  H   UNL     1      38.157 -26.061 -16.190  0.00  0.00    +0.145 HD
ENDROOT
TORSDOF 0
ENDMDL
MODEL 4
REMARK VINA RESULT:      -4.9      1.384      3.790
REMARK  Name = 3387240
REMARK  0 active torsions:
REMARK  status: ('A' for Active; 'I' for Inactive)
REMARK                            x       y       z     vdW  Elec       q    Type
REMARK                         _______ _______ _______ _____ _____    ______ ____
ROOT
ATOM      1  N   UNL     1      38.184 -25.309 -13.291  0.00  0.00    -0.141 N 
ATOM      2  N   UNL     1      39.462 -24.875 -13.370  0.00  0.00    -0.147 NA
ATOM      3  N   UNL     1      37.774 -23.713 -11.542  0.00  0.00    -0.373 N 
ATOM      4  N   UNL     1      36.008 -25.166 -12.280  0.00  0.00    -0.331 N 
ATOM      5  N   UNL     1      39.089 -26.545 -14.881  0.00  0.00    -0.203 NA
ATOM      6  C   UNL     1      37.322 -24.730 -12.371  0.00  0.00    +0.178 C 
ATOM      7  C   UNL     1      38.001 -26.335 -14.237  0.00  0.00    +0.193 C 
ATOM      8  C   UNL     1      39.956 -25.625 -14.313  0.00  0.00    +0.219 C 
ATOM      9  H   UNL     1      38.707 -23.403 -11.607  0.00  0.00    +0.158 HD
ATOM     10  H   UNL     1      37.163 -23.302 -10.889  0.00  0.00    +0.158 HD
ATOM     11  H   UNL     1      35.688 -25.888 -12.868  0.00  0.00    +0.145 HD
ATOM     12  H   UNL     1      35.398 -24.755 -11.627  0.00  0.00    +0.145 HD
ENDROOT
TORSDOF 0
ENDMDL
MODEL 5
REMARK VINA RESULT:      -4.9      3.075      3.294
REMARK  Name = 3387240
REMARK  0 active torsions:
REMARK  status: ('A' for Active; 'I' for Inactive)
REMARK                            x       y       z     vdW  Elec       q    Type
REMARK                         _______ _______ _______ _____ _____    ______ ____
ROOT
ATOM      1  N   UNL     1      37.061 -24.855 -15.136  0.00  0.00    -0.141 N 
ATOM      2  N   UNL     1      35.955 -24.308 -15.690  0.00  0.00    -0.147 NA
ATOM      3  N   UNL     1      35.983 -27.002 -15.155  0.00  0.00    -0.373 N 
ATOM      4  N   UNL     1      38.216 -26.786 -14.294  0.00  0.00    -0.331 N 
ATOM      5  N   UNL     1      37.552 -22.713 -15.354  0.00  0.00    -0.203 NA
ATOM      6  C   UNL     1      37.087 -26.214 -14.862  0.00  0.00    +0.178 C 
ATOM      7  C   UNL     1      38.015 -23.838 -14.948  0.00  0.00    +0.193 C 
ATOM      8  C   UNL     1      36.285 -23.054 -15.800  0.00  0.00    +0.219 C 
ATOM      9  H   UNL     1      35.182 -26.595 -15.558  0.00  0.00    +0.158 HD
ATOM     10  H   UNL     1      36.001 -27.966 -14.961  0.00  0.00    +0.158 HD
ATOM     11  H   UNL     1      38.999 -26.227 -14.086  0.00  0.00    +0.145 HD
ATOM     12  H   UNL     1      38.234 -27.751 -14.100  0.00  0.00    +0.145 HD
ENDROOT
TORSDOF 0
ENDMDL
MODEL 6
REMARK VINA RESULT:      -4.9      2.629      3.520
REMARK  Name = 3387240
REMARK  0 active torsions:
REMARK  status: ('A' for Active; 'I' for Inactive)
REMARK                            x       y       z     vdW  Elec       q    Type
REMARK                         _______ _______ _______ _____ _____    ______ ____
ROOT
ATOM      1  N   UNL     1      37.469 -24.903 -14.683  0.00  0.00    -0.141 N 
ATOM      2  N   UNL     1      38.305 -23.891 -15.013  0.00  0.00    -0.147 NA
ATOM      3  N   UNL     1      39.279 -25.994 -13.539  0.00  0.00    -0.373 N 
ATOM      4  N   UNL     1      37.103 -27.013 -13.593  0.00  0.00    -0.331 N 
ATOM      5  N   UNL     1      36.213 -23.503 -15.841  0.00  0.00    -0.203 NA
ATOM      6  C   UNL     1      37.950 -25.970 -13.938  0.00  0.00    +0.178 C 
ATOM      7  C   UNL     1      36.197 -24.621 -15.212  0.00  0.00    +0.193 C 
ATOM      8  C   UNL     1      37.530 -23.095 -15.690  0.00  0.00    +0.219 C 
ATOM      9  H   UNL     1      39.880 -25.253 -13.784  0.00  0.00    +0.158 HD
ATOM     10  H   UNL     1      39.620 -26.751 -13.011  0.00  0.00    +0.158 HD
ATOM     11  H   UNL     1      36.161 -26.995 -13.877  0.00  0.00    +0.145 HD
ATOM     12  H   UNL     1      37.445 -27.769 -13.065  0.00  0.00    +0.145 HD
ENDROOT
TORSDOF 0
ENDMDL
MODEL 7
REMARK VINA RESULT:      -4.8     14.700     14.979
REMARK  Name = 3387240
REMARK  0 active torsions:
REMARK  status: ('A' for Active; 'I' for Inactive)
REMARK                            x       y       z     vdW  Elec       q    Type
REMARK                         _______ _______ _______ _____ _____    ______ ____
ROOT
ATOM      1  N   UNL     1      34.641 -16.423 -23.915  0.00  0.00    -0.141 N 
ATOM      2  N   UNL     1      33.793 -15.373 -23.831  0.00  0.00    -0.147 NA
ATOM      3  N   UNL     1      34.963 -16.323 -21.536  0.00  0.00    -0.373 N 
ATOM      4  N   UNL     1      36.111 -17.987 -22.835  0.00  0.00    -0.331 N 
ATOM      5  N   UNL     1      33.995 -16.067 -25.997  0.00  0.00    -0.203 NA
ATOM      6  C   UNL     1      35.239 -16.911 -22.762  0.00  0.00    +0.178 C 
ATOM      7  C   UNL     1      34.735 -16.816 -25.263  0.00  0.00    +0.193 C 
ATOM      8  C   UNL     1      33.438 -15.198 -25.071  0.00  0.00    +0.219 C 
ATOM      9  H   UNL     1      34.344 -15.559 -21.485  0.00  0.00    +0.158 HD
ATOM     10  H   UNL     1      35.387 -16.669 -20.718  0.00  0.00    +0.158 HD
ATOM     11  H   UNL     1      36.306 -18.405 -23.705  0.00  0.00    +0.145 HD
ATOM     12  H   UNL     1      36.534 -18.333 -22.016  0.00  0.00    +0.145 HD
ENDROOT
TORSDOF 0
ENDMDL
MODEL 8
REMARK VINA RESULT:      -4.8      9.873     10.116
REMARK  Name = 3387240
REMARK  0 active torsions:
REMARK  status: ('A' for Active; 'I' for Inactive)
REMARK                            x       y       z     vdW  Elec       q    Type
REMARK                         _______ _______ _______ _____ _____    ______ ____
ROOT
ATOM      1  N   UNL     1      34.602 -20.288 -20.369  0.00  0.00    -0.141 N 
ATOM      2  N   UNL     1      35.857 -19.782 -20.359  0.00  0.00    -0.147 NA
ATOM      3  N   UNL     1      35.302 -21.995 -18.830  0.00  0.00    -0.373 N 
ATOM      4  N   UNL     1      33.028 -21.934 -19.602  0.00  0.00    -0.331 N 
ATOM      5  N   UNL     1      34.510 -18.555 -21.734  0.00  0.00    -0.203 NA
ATOM      6  C   UNL     1      34.310 -21.405 -19.601  0.00  0.00    +0.178 C 
ATOM      7  C   UNL     1      33.810 -19.503 -21.227  0.00  0.00    +0.193 C 
ATOM      8  C   UNL     1      35.758 -18.770 -21.171  0.00  0.00    +0.219 C 
ATOM      9  H   UNL     1      36.213 -21.620 -18.829  0.00  0.00    +0.158 HD
ATOM     10  H   UNL     1      35.095 -22.788 -18.285  0.00  0.00    +0.158 HD
ATOM     11  H   UNL     1      32.324 -21.515 -20.149  0.00  0.00    +0.145 HD
ATOM     12  H   UNL     1      32.822 -22.727 -19.057  0.00  0.00    +0.145 HD
ENDROOT
TORSDOF 0
ENDMDL
MODEL 9
REMARK VINA RESULT:      -4.8     12.648     12.863
REMARK  Name = 3387240
REMARK  0 active torsions:
REMARK  status: ('A' for Active; 'I' for Inactive)
REMARK                            x       y       z     vdW  Elec       q    Type
REMARK                         _______ _______ _______ _____ _____    ______ ____
ROOT
ATOM      1  N   UNL     1      35.161 -16.622 -21.697  0.00  0.00    -0.141 N 
ATOM      2  N   UNL     1      34.932 -16.199 -20.433  0.00  0.00    -0.147 NA
ATOM      3  N   UNL     1      36.030 -18.686 -20.824  0.00  0.00    -0.373 N 
ATOM      4  N   UNL     1      35.954 -18.323 -23.198  0.00  0.00    -0.331 N 
ATOM      5  N   UNL     1      34.291 -14.607 -21.938  0.00  0.00    -0.203 NA
ATOM      6  C   UNL     1      35.715 -17.877 -21.907  0.00  0.00    +0.178 C 
ATOM      7  C   UNL     1      34.752 -15.613 -22.587  0.00  0.00    +0.193 C 
ATOM      8  C   UNL     1      34.424 -15.016 -20.620  0.00  0.00    +0.219 C 
ATOM      9  H   UNL     1      35.860 -18.369 -19.907  0.00  0.00    +0.158 HD
ATOM     10  H   UNL     1      36.423 -19.576 -20.972  0.00  0.00    +0.158 HD
ATOM     11  H   UNL     1      35.731 -17.749 -23.966  0.00  0.00    +0.145 HD
ATOM     12  H   UNL     1      36.347 -19.213 -23.346  0.00  0.00    +0.145 HD
ENDROOT
TORSDOF 0
ENDMDL
