MODEL 1
REMARK VINA RESULT:      -5.7      0.000      0.000
REMARK  Name = 38
REMARK  5 active torsions:
REMARK  status: ('A' for Active; 'I' for Inactive)
REMARK    1  A    between atoms: C_1  and  C_5
REMARK    2  A    between atoms: C_1  and  C_10
REMARK    3  A    between atoms: C_5  and  C_7
REMARK    4  A    between atoms: C_7  and  O_8
REMARK    5  A    between atoms: C_10  and  O_11
REMARK                            x       y       z     vdW  Elec       q    Type
REMARK                         _______ _______ _______ _____ _____    ______ ____
ROOT
ATOM      1  C   UNL     1      37.396 -25.145 -14.368  0.00  0.00    +0.089 C 
ATOM      2  C   UNL     1      36.143 -25.757 -15.011  0.00  0.00    +0.010 C 
ATOM      3  C   UNL     1      37.661 -23.755 -14.965  0.00  0.00    +0.010 C 
ENDROOT
BRANCH   1   5
ATOM      4  O   UNL     1      38.483 -27.324 -14.662  0.00  0.00    -0.284 OA
ATOM      5  C   UNL     1      38.567 -26.103 -14.613  0.00  0.00    +0.249 C 
BRANCH   5   7
ATOM      6  O   UNL     1      40.543 -24.935 -13.986  0.00  0.00    -0.242 OA
ATOM      7  C   UNL     1      39.933 -25.529 -14.852  0.00  0.00    +0.373 C 
BRANCH   7   8
ATOM      8  O   UNL     1      40.340 -25.829 -16.091  0.00  0.00    -0.475 OA
ATOM      9  H   UNL     1      39.774 -25.671 -16.821  0.00  0.00    +0.295 HD
ENDBRANCH   7   8
ENDBRANCH   5   7
ENDBRANCH   1   5
BRANCH   1  10
ATOM     10  C   UNL     1      37.164 -25.024 -12.847  0.00  0.00    +0.144 C 
BRANCH  10  11
ATOM     11  O   UNL     1      36.859 -26.294 -12.283  0.00  0.00    -0.382 OA
ATOM     12  H   UNL     1      37.552 -26.929 -12.521  0.00  0.00    +0.210 HD
ENDBRANCH  10  11
ENDBRANCH   1  10
TORSDOF 5
ENDMDL
MODEL 2
REMARK VINA RESULT:      -5.5      1.658      2.443
REMARK  Name = 38
REMARK  5 active torsions:
REMARK  status: ('A' for Active; 'I' for Inactive)
REMARK    1  A    between atoms: C_1  and  C_5
REMARK    2  A    between atoms: C_1  and  C_10
REMARK    3  A    between atoms: C_5  and  C_7
REMARK    4  A    between atoms: C_7  and  O_8
REMARK    5  A    between atoms: C_10  and  O_11
REMARK                            x       y       z     vdW  Elec       q    Type
REMARK                         _______ _______ _______ _____ _____    ______ ____
ROOT
ATOM      1  C   UNL     1      37.868 -25.597 -14.169  0.00  0.00    +0.089 C 
ATOM      2  C   UNL     1      37.172 -25.655 -12.802  0.00  0.00    +0.010 C 
ATOM      3  C   UNL     1      37.680 -26.931 -14.906  0.00  0.00    +0.010 C 
ENDROOT
BRANCH   1   5
ATOM      4  O   UNL     1      39.778 -24.465 -13.124  0.00  0.00    -0.284 OA
ATOM      5  C   UNL     1      39.349 -25.281 -13.932  0.00  0.00    +0.249 C 
BRANCH   5   7
ATOM      6  O   UNL     1      41.128 -26.841 -14.178  0.00  0.00    -0.242 OA
ATOM      7  C   UNL     1      40.385 -26.041 -14.708  0.00  0.00    +0.373 C 
BRANCH   7   8
ATOM      8  O   UNL     1      40.293 -25.733 -16.008  0.00  0.00    -0.475 OA
ATOM      9  H   UNL     1      39.680 -25.085 -16.293  0.00  0.00    +0.295 HD
ENDBRANCH   7   8
ENDBRANCH   5   7
ENDBRANCH   1   5
BRANCH   1  10
ATOM     10  C   UNL     1      37.243 -24.452 -14.995  0.00  0.00    +0.144 C 
BRANCH  10  11
ATOM     11  O   UNL     1      38.256 -23.621 -15.549  0.00  0.00    -0.382 OA
ATOM     12  H   UNL     1      38.372 -23.834 -16.488  0.00  0.00    +0.210 HD
ENDBRANCH  10  11
ENDBRANCH   1  10
TORSDOF 5
ENDMDL
MODEL 3
REMARK VINA RESULT:      -5.4      1.830      2.856
REMARK  Name = 38
REMARK  5 active torsions:
REMARK  status: ('A' for Active; 'I' for Inactive)
REMARK    1  A    between atoms: C_1  and  C_5
REMARK    2  A    between atoms: C_1  and  C_10
REMARK    3  A    between atoms: C_5  and  C_7
REMARK    4  A    between atoms: C_7  and  O_8
REMARK    5  A    between atoms: C_10  and  O_11
REMARK                            x       y       z     vdW  Elec       q    Type
REMARK                         _______ _______ _______ _____ _____    ______ ____
ROOT
ATOM      1  C   UNL     1      36.870 -24.405 -13.073  0.00  0.00    +0.089 C 
ATOM      2  C   UNL     1      37.387 -23.945 -14.443  0.00  0.00    +0.010 C 
ATOM      3  C   UNL     1      37.620 -23.662 -11.957  0.00  0.00    +0.010 C 
ENDROOT
BRANCH   1   5
ATOM      4  O   UNL     1      37.035 -26.576 -11.944  0.00  0.00    -0.284 OA
ATOM      5  C   UNL     1      37.066 -25.922 -12.979  0.00  0.00    +0.249 C 
BRANCH   5   7
ATOM      6  O   UNL     1      38.382 -27.056 -14.606  0.00  0.00    -0.242 OA
ATOM      7  C   UNL     1      37.278 -26.704 -14.243  0.00  0.00    +0.373 C 
BRANCH   7   8
ATOM      8  O   UNL     1      36.097 -26.967 -14.816  0.00  0.00    -0.475 OA
ATOM      9  H   UNL     1      35.498 -27.559 -14.403  0.00  0.00    +0.295 HD
ENDBRANCH   7   8
ENDBRANCH   5   7
ENDBRANCH   1   5
BRANCH   1  10
ATOM     10  C   UNL     1      35.361 -24.094 -12.983  0.00  0.00    +0.144 C 
BRANCH  10  11
ATOM     11  O   UNL     1      34.729 -24.941 -12.030  0.00  0.00    -0.382 OA
ATOM     12  H   UNL     1      35.365 -25.600 -11.711  0.00  0.00    +0.210 HD
ENDBRANCH  10  11
ENDBRANCH   1  10
TORSDOF 5
ENDMDL
MODEL 4
REMARK VINA RESULT:      -5.4      1.845      2.737
REMARK  Name = 38
REMARK  5 active torsions:
REMARK  status: ('A' for Active; 'I' for Inactive)
REMARK    1  A    between atoms: C_1  and  C_5
REMARK    2  A    between atoms: C_1  and  C_10
REMARK    3  A    between atoms: C_5  and  C_7
REMARK    4  A    between atoms: C_7  and  O_8
REMARK    5  A    between atoms: C_10  and  O_11
REMARK                            x       y       z     vdW  Elec       q    Type
REMARK                         _______ _______ _______ _____ _____    ______ ____
ROOT
ATOM      1  C   UNL     1      36.908 -24.405 -13.130  0.00  0.00    +0.089 C 
ATOM      2  C   UNL     1      35.414 -24.077 -13.000  0.00  0.00    +0.010 C 
ATOM      3  C   UNL     1      37.444 -23.872 -14.467  0.00  0.00    +0.010 C 
ENDROOT
BRANCH   1   5
ATOM      4  O   UNL     1      37.016 -26.566 -11.974  0.00  0.00    -0.284 OA
ATOM      5  C   UNL     1      37.069 -25.925 -13.017  0.00  0.00    +0.249 C 
BRANCH   5   7
ATOM      6  O   UNL     1      38.371 -27.106 -14.620  0.00  0.00    -0.242 OA
ATOM      7  C   UNL     1      37.273 -26.726 -14.270  0.00  0.00    +0.373 C 
BRANCH   7   8
ATOM      8  O   UNL     1      36.090 -26.971 -14.848  0.00  0.00    -0.475 OA
ATOM      9  H   UNL     1      36.043 -27.119 -15.772  0.00  0.00    +0.295 HD
ENDBRANCH   7   8
ENDBRANCH   5   7
ENDBRANCH   1   5
BRANCH   1  10
ATOM     10  C   UNL     1      37.665 -23.738 -11.962  0.00  0.00    +0.144 C 
BRANCH  10  11
ATOM     11  O   UNL     1      36.997 -23.977 -10.729  0.00  0.00    -0.382 OA
ATOM     12  H   UNL     1      37.141 -23.227 -10.132  0.00  0.00    +0.210 HD
ENDBRANCH  10  11
ENDBRANCH   1  10
TORSDOF 5
ENDMDL
MODEL 5
REMARK VINA RESULT:      -5.3     10.283     11.796
REMARK  Name = 38
REMARK  5 active torsions:
REMARK  status: ('A' for Active; 'I' for Inactive)
REMARK    1  A    between atoms: C_1  and  C_5
REMARK    2  A    between atoms: C_1  and  C_10
REMARK    3  A    between atoms: C_5  and  C_7
REMARK    4  A    between atoms: C_7  and  O_8
REMARK    5  A    between atoms: C_10  and  O_11
REMARK                            x       y       z     vdW  Elec       q    Type
REMARK                         _______ _______ _______ _____ _____    ______ ____
ROOT
ATOM      1  C   UNL     1      42.427 -14.713 -17.147  0.00  0.00    +0.089 C 
ATOM      2  C   UNL     1      41.134 -14.193 -17.791  0.00  0.00    +0.010 C 
ATOM      3  C   UNL     1      43.329 -15.339 -18.222  0.00  0.00    +0.010 C 
ENDROOT
BRANCH   1   5
ATOM      4  O   UNL     1      42.659 -16.754 -15.807  0.00  0.00    -0.284 OA
ATOM      5  C   UNL     1      42.041 -15.729 -16.066  0.00  0.00    +0.249 C 
BRANCH   5   7
ATOM      6  O   UNL     1      40.764 -14.477 -14.497  0.00  0.00    -0.242 OA
ATOM      7  C   UNL     1      40.837 -15.455 -15.213  0.00  0.00    +0.373 C 
BRANCH   7   8
ATOM      8  O   UNL     1      39.908 -16.395 -15.426  0.00  0.00    -0.475 OA
ATOM      9  H   UNL     1      40.165 -17.285 -15.561  0.00  0.00    +0.295 HD
ENDBRANCH   7   8
ENDBRANCH   5   7
ENDBRANCH   1   5
BRANCH   1  10
ATOM     10  C   UNL     1      43.158 -13.530 -16.477  0.00  0.00    +0.144 C 
BRANCH  10  11
ATOM     11  O   UNL     1      42.241 -12.493 -16.150  0.00  0.00    -0.382 OA
ATOM     12  H   UNL     1      42.658 -11.877 -15.528  0.00  0.00    +0.210 HD
ENDBRANCH  10  11
ENDBRANCH   1  10
TORSDOF 5
ENDMDL
MODEL 6
REMARK VINA RESULT:      -5.2      1.513      3.198
REMARK  Name = 38
REMARK  5 active torsions:
REMARK  status: ('A' for Active; 'I' for Inactive)
REMARK    1  A    between atoms: C_1  and  C_5
REMARK    2  A    between atoms: C_1  and  C_10
REMARK    3  A    between atoms: C_5  and  C_7
REMARK    4  A    between atoms: C_7  and  O_8
REMARK    5  A    between atoms: C_10  and  O_11
REMARK                            x       y       z     vdW  Elec       q    Type
REMARK                         _______ _______ _______ _____ _____    ______ ____
ROOT
ATOM      1  C   UNL     1      38.429 -25.028 -14.018  0.00  0.00    +0.089 C 
ATOM      2  C   UNL     1      38.411 -24.474 -12.586  0.00  0.00    +0.010 C 
ATOM      3  C   UNL     1      38.058 -23.916 -15.011  0.00  0.00    +0.010 C 
ENDROOT
BRANCH   1   5
ATOM      4  O   UNL     1      37.263 -27.021 -13.191  0.00  0.00    -0.284 OA
ATOM      5  C   UNL     1      37.444 -26.201 -14.083  0.00  0.00    +0.249 C 
BRANCH   5   7
ATOM      6  O   UNL     1      35.536 -25.778 -15.438  0.00  0.00    -0.242 OA
ATOM      7  C   UNL     1      36.592 -26.362 -15.307  0.00  0.00    +0.373 C 
BRANCH   7   8
ATOM      8  O   UNL     1      37.205 -27.168 -16.183  0.00  0.00    -0.475 OA
ATOM      9  H   UNL     1      37.702 -27.900 -15.877  0.00  0.00    +0.295 HD
ENDBRANCH   7   8
ENDBRANCH   5   7
ENDBRANCH   1   5
BRANCH   1  10
ATOM     10  C   UNL     1      39.846 -25.553 -14.329  0.00  0.00    +0.144 C 
BRANCH  10  11
ATOM     11  O   UNL     1      39.975 -25.863 -15.711  0.00  0.00    -0.382 OA
ATOM     12  H   UNL     1      40.423 -26.718 -15.811  0.00  0.00    +0.210 HD
ENDBRANCH  10  11
ENDBRANCH   1  10
TORSDOF 5
ENDMDL
MODEL 7
REMARK VINA RESULT:      -5.2      2.206      3.431
REMARK  Name = 38
REMARK  5 active torsions:
REMARK  status: ('A' for Active; 'I' for Inactive)
REMARK    1  A    between atoms: C_1  and  C_5
REMARK    2  A    between atoms: C_1  and  C_10
REMARK    3  A    between atoms: C_5  and  C_7
REMARK    4  A    between atoms: C_7  and  O_8
REMARK    5  A    between atoms: C_10  and  O_11
REMARK                            x       y       z     vdW  Elec       q    Type
REMARK                         _______ _______ _______ _____ _____    ______ ____
ROOT
ATOM      1  C   UNL     1      38.025 -25.306 -13.926  0.00  0.00    +0.089 C 
ATOM      2  C   UNL     1      39.525 -25.532 -13.685  0.00  0.00    +0.010 C 
ATOM      3  C   UNL     1      37.826 -24.145 -14.913  0.00  0.00    +0.010 C 
ENDROOT
BRANCH   1   5
ATOM      4  O   UNL     1      36.869 -25.866 -11.837  0.00  0.00    -0.284 OA
ATOM      5  C   UNL     1      37.366 -25.022 -12.572  0.00  0.00    +0.249 C 
BRANCH   5   7
ATOM      6  O   UNL     1      38.347 -23.066 -11.637  0.00  0.00    -0.242 OA
ATOM      7  C   UNL     1      37.347 -23.612 -12.059  0.00  0.00    +0.373 C 
BRANCH   7   8
ATOM      8  O   UNL     1      36.121 -23.094 -12.201  0.00  0.00    -0.475 OA
ATOM      9  H   UNL     1      35.939 -22.508 -12.909  0.00  0.00    +0.295 HD
ENDBRANCH   7   8
ENDBRANCH   5   7
ENDBRANCH   1   5
BRANCH   1  10
ATOM     10  C   UNL     1      37.417 -26.598 -14.512  0.00  0.00    +0.144 C 
BRANCH  10  11
ATOM     11  O   UNL     1      36.010 -26.463 -14.671  0.00  0.00    -0.382 OA
ATOM     12  H   UNL     1      35.686 -25.750 -14.099  0.00  0.00    +0.210 HD
ENDBRANCH  10  11
ENDBRANCH   1  10
TORSDOF 5
ENDMDL
MODEL 8
REMARK VINA RESULT:      -5.2      2.564      4.106
REMARK  Name = 38
REMARK  5 active torsions:
REMARK  status: ('A' for Active; 'I' for Inactive)
REMARK    1  A    between atoms: C_1  and  C_5
REMARK    2  A    between atoms: C_1  and  C_10
REMARK    3  A    between atoms: C_5  and  C_7
REMARK    4  A    between atoms: C_7  and  O_8
REMARK    5  A    between atoms: C_10  and  O_11
REMARK                            x       y       z     vdW  Elec       q    Type
REMARK                         _______ _______ _______ _____ _____    ______ ____
ROOT
ATOM      1  C   UNL     1      37.489 -24.550 -13.132  0.00  0.00    +0.089 C 
ATOM      2  C   UNL     1      36.676 -24.628 -14.433  0.00  0.00    +0.010 C 
ATOM      3  C   UNL     1      38.926 -25.030 -13.386  0.00  0.00    +0.010 C 
ENDROOT
BRANCH   1   5
ATOM      4  O   UNL     1      37.004 -26.594 -11.866  0.00  0.00    -0.284 OA
ATOM      5  C   UNL     1      36.779 -25.409 -12.080  0.00  0.00    +0.249 C 
BRANCH   5   7
ATOM      6  O   UNL     1      36.038 -24.255 -10.136  0.00  0.00    -0.242 OA
ATOM      7  C   UNL     1      35.748 -24.768 -11.198  0.00  0.00    +0.373 C 
BRANCH   7   8
ATOM      8  O   UNL     1      34.550 -24.815 -11.793  0.00  0.00    -0.475 OA
ATOM      9  H   UNL     1      33.927 -25.467 -11.541  0.00  0.00    +0.295 HD
ENDBRANCH   7   8
ENDBRANCH   5   7
ENDBRANCH   1   5
BRANCH   1  10
ATOM     10  C   UNL     1      37.507 -23.086 -12.646  0.00  0.00    +0.144 C 
BRANCH  10  11
ATOM     11  O   UNL     1      38.466 -22.912 -11.610  0.00  0.00    -0.382 OA
ATOM     12  H   UNL     1      38.351 -23.607 -10.943  0.00  0.00    +0.210 HD
ENDBRANCH  10  11
ENDBRANCH   1  10
TORSDOF 5
ENDMDL
MODEL 9
REMARK VINA RESULT:      -5.2      9.986     11.238
REMARK  Name = 38
REMARK  5 active torsions:
REMARK  status: ('A' for Active; 'I' for Inactive)
REMARK    1  A    between atoms: C_1  and  C_5
REMARK    2  A    between atoms: C_1  and  C_10
REMARK    3  A    between atoms: C_5  and  C_7
REMARK    4  A    between atoms: C_7  and  O_8
REMARK    5  A    between atoms: C_10  and  O_11
REMARK                            x       y       z     vdW  Elec       q    Type
REMARK                         _______ _______ _______ _____ _____    ______ ____
ROOT
ATOM      1  C   UNL     1      41.956 -14.380 -16.735  0.00  0.00    +0.089 C 
ATOM      2  C   UNL     1      41.062 -14.189 -17.968  0.00  0.00    +0.010 C 
ATOM      3  C   UNL     1      42.972 -13.231 -16.646  0.00  0.00    +0.010 C 
ENDROOT
BRANCH   1   5
ATOM      4  O   UNL     1      43.567 -16.135 -16.152  0.00  0.00    -0.284 OA
ATOM      5  C   UNL     1      42.647 -15.742 -16.859  0.00  0.00    +0.249 C 
BRANCH   5   7
ATOM      6  O   UNL     1      42.457 -16.613 -19.065  0.00  0.00    -0.242 OA
ATOM      7  C   UNL     1      42.154 -16.712 -17.893  0.00  0.00    +0.373 C 
BRANCH   7   8
ATOM      8  O   UNL     1      41.421 -17.666 -17.307  0.00  0.00    -0.475 OA
ATOM      9  H   UNL     1      40.529 -17.496 -17.077  0.00  0.00    +0.295 HD
ENDBRANCH   7   8
ENDBRANCH   5   7
ENDBRANCH   1   5
BRANCH   1  10
ATOM     10  C   UNL     1      41.067 -14.388 -15.474  0.00  0.00    +0.144 C 
BRANCH  10  11
ATOM     11  O   UNL     1      40.660 -15.713 -15.154  0.00  0.00    -0.382 OA
ATOM     12  H   UNL     1      40.623 -15.817 -14.191  0.00  0.00    +0.210 HD
ENDBRANCH  10  11
ENDBRANCH   1  10
TORSDOF 5
ENDMDL
