MODEL 1
REMARK VINA RESULT:     -11.0      0.000      0.000
REMARK  Name = 5288133
REMARK  11 active torsions:
REMARK  status: ('A' for Active; 'I' for Inactive)
REMARK    1  A    between atoms: C_2  and  C_24
REMARK    2  A    between atoms: C_9  and  O_16
REMARK    3  A    between atoms: C_12  and  O_18
REMARK    4  A    between atoms: C_13  and  C_20
REMARK    5  A    between atoms: C_20  and  C_22
REMARK    6  A    between atoms: C_24  and  O_25
REMARK    7  A    between atoms: C_24  and  C_28
REMARK    8  A    between atoms: C_28  and  C_29
REMARK    9  A    between atoms: C_29  and  O_30
REMARK   10  A    between atoms: C_29  and  C_32
REMARK   11  A    between atoms: C_32  and  O_34
REMARK                            x       y       z     vdW  Elec       q    Type
REMARK                         _______ _______ _______ _____ _____    ______ ____
ROOT
ATOM      1  O   UNL     1      32.508 -23.717 -16.509  0.00  0.00    -0.291 OA
ATOM      2  C   UNL     1      35.844 -24.603 -15.386  0.00  0.00    +0.047 C 
ATOM      3  C   UNL     1      36.590 -23.327 -15.785  0.00  0.00    +0.030 C 
ATOM      4  C   UNL     1      34.373 -24.284 -15.123  0.00  0.00    +0.072 C 
ATOM      5  C   UNL     1      35.932 -22.656 -16.962  0.00  0.00    -0.016 C 
ATOM      6  C   UNL     1      34.562 -22.794 -17.213  0.00  0.00    +0.064 C 
ATOM      7  C   UNL     1      33.717 -23.621 -16.315  0.00  0.00    +0.176 C 
ATOM      8  C   UNL     1      36.699 -21.839 -17.805  0.00  0.00    -0.004 C 
ATOM      9  C   UNL     1      33.973 -22.145 -18.306  0.00  0.00    +0.139 C 
ATOM     10  C   UNL     1      34.742 -21.338 -19.160  0.00  0.00    +0.067 C 
ATOM     11  C   UNL     1      36.123 -21.181 -18.904  0.00  0.00    +0.006 C 
ATOM     12  C   UNL     1      34.168 -20.680 -20.260  0.00  0.00    +0.132 C 
ATOM     13  C   UNL     1      34.946 -19.878 -21.096  0.00  0.00    +0.011 C 
ATOM     14  C   UNL     1      36.891 -20.369 -19.755  0.00  0.00    -0.000 C 
ATOM     15  C   UNL     1      36.305 -19.723 -20.844  0.00  0.00    -0.001 C 
ENDROOT
BRANCH   9  16
ATOM     16  O   UNL     1      32.635 -22.303 -18.541  0.00  0.00    -0.505 OA
ATOM     17  H   UNL     1      32.166 -23.003 -18.129  0.00  0.00    +0.292 HD
ENDBRANCH   9  16
BRANCH  12  18
ATOM     18  O   UNL     1      32.839 -20.786 -20.564  0.00  0.00    -0.506 OA
ATOM     19  H   UNL     1      32.193 -20.555 -19.927  0.00  0.00    +0.292 HD
ENDBRANCH  12  18
BRANCH  13  20
ATOM     20  C   UNL     1      34.344 -19.176 -22.269  0.00  0.00    +0.025 C 
ATOM     21  C   UNL     1      35.139 -19.449 -23.561  0.00  0.00    +0.005 C 
BRANCH  20  22
ATOM     22  C   UNL     1      34.206 -17.639 -22.089  0.00  0.00    +0.004 C 
ATOM     23  C   UNL     1      35.220 -16.856 -22.912  0.00  0.00    +0.000 C 
ENDBRANCH  20  22
ENDBRANCH  13  20
BRANCH   2  24
ATOM     24  C   UNL     1      36.487 -25.245 -14.157  0.00  0.00    +0.175 C 
BRANCH  24  25
ATOM     25  O   UNL     1      36.568 -24.247 -13.156  0.00  0.00    -0.346 OA
ATOM     26  C   UNL     1      35.935 -24.658 -11.950  0.00  0.00    +0.175 C 
ENDBRANCH  24  25
BRANCH  24  28
ATOM     27  O   UNL     1      38.051 -26.919 -14.865  0.00  0.00    -0.291 OA
ATOM     28  C   UNL     1      37.883 -25.765 -14.464  0.00  0.00    +0.206 C 
BRANCH  28  29
ATOM     29  C   UNL     1      39.069 -24.816 -14.275  0.00  0.00    +0.197 C 
BRANCH  29  30
ATOM     30  O   UNL     1      39.220 -24.558 -12.885  0.00  0.00    -0.375 OA
ATOM     31  H   UNL     1      39.777 -23.774 -12.760  0.00  0.00    +0.211 HD
ENDBRANCH  29  30
BRANCH  29  32
ATOM     32  C   UNL     1      40.376 -25.389 -14.832  0.00  0.00    +0.145 C 
ATOM     33  C   UNL     1      40.888 -26.564 -14.006  0.00  0.00    +0.035 C 
BRANCH  32  34
ATOM     34  O   UNL     1      40.156 -25.838 -16.170  0.00  0.00    -0.382 OA
ATOM     35  H   UNL     1      39.211 -25.773 -16.382  0.00  0.00    +0.210 HD
ENDBRANCH  32  34
ENDBRANCH  29  32
ENDBRANCH  28  29
ENDBRANCH  24  28
ENDBRANCH   2  24
TORSDOF 11
ENDMDL
MODEL 2
REMARK VINA RESULT:     -10.5      1.322      1.658
REMARK  Name = 5288133
REMARK  11 active torsions:
REMARK  status: ('A' for Active; 'I' for Inactive)
REMARK    1  A    between atoms: C_2  and  C_24
REMARK    2  A    between atoms: C_9  and  O_16
REMARK    3  A    between atoms: C_12  and  O_18
REMARK    4  A    between atoms: C_13  and  C_20
REMARK    5  A    between atoms: C_20  and  C_22
REMARK    6  A    between atoms: C_24  and  O_25
REMARK    7  A    between atoms: C_24  and  C_28
REMARK    8  A    between atoms: C_28  and  C_29
REMARK    9  A    between atoms: C_29  and  O_30
REMARK   10  A    between atoms: C_29  and  C_32
REMARK   11  A    between atoms: C_32  and  O_34
REMARK                            x       y       z     vdW  Elec       q    Type
REMARK                         _______ _______ _______ _____ _____    ______ ____
ROOT
ATOM      1  O   UNL     1      31.921 -23.014 -17.541  0.00  0.00    -0.291 OA
ATOM      2  C   UNL     1      35.038 -24.193 -16.102  0.00  0.00    +0.047 C 
ATOM      3  C   UNL     1      35.924 -22.979 -16.396  0.00  0.00    +0.030 C 
ATOM      4  C   UNL     1      33.579 -23.755 -15.984  0.00  0.00    +0.072 C 
ATOM      5  C   UNL     1      35.449 -22.241 -17.619  0.00  0.00    -0.016 C 
ATOM      6  C   UNL     1      34.105 -22.259 -18.012  0.00  0.00    +0.064 C 
ATOM      7  C   UNL     1      33.106 -23.023 -17.222  0.00  0.00    +0.176 C 
ATOM      8  C   UNL     1      36.364 -21.480 -18.363  0.00  0.00    -0.004 C 
ATOM      9  C   UNL     1      33.688 -21.549 -19.145  0.00  0.00    +0.139 C 
ATOM     10  C   UNL     1      34.606 -20.799 -19.899  0.00  0.00    +0.067 C 
ATOM     11  C   UNL     1      35.961 -20.762 -19.501  0.00  0.00    +0.006 C 
ATOM     12  C   UNL     1      34.205 -20.081 -21.038  0.00  0.00    +0.132 C 
ATOM     13  C   UNL     1      35.129 -19.338 -21.773  0.00  0.00    +0.011 C 
ATOM     14  C   UNL     1      36.878 -20.008 -20.252  0.00  0.00    -0.000 C 
ATOM     15  C   UNL     1      36.463 -19.301 -21.381  0.00  0.00    -0.001 C 
ENDROOT
BRANCH   9  16
ATOM     16  O   UNL     1      32.373 -21.591 -19.519  0.00  0.00    -0.505 OA
ATOM     17  H   UNL     1      31.732 -21.950 -18.937  0.00  0.00    +0.292 HD
ENDBRANCH   9  16
BRANCH  12  18
ATOM     18  O   UNL     1      32.910 -20.072 -21.478  0.00  0.00    -0.506 OA
ATOM     19  H   UNL     1      32.710 -19.764 -22.339  0.00  0.00    +0.292 HD
ENDBRANCH  12  18
BRANCH  13  20
ATOM     20  C   UNL     1      34.711 -18.572 -22.986  0.00  0.00    +0.025 C 
ATOM     21  C   UNL     1      35.020 -19.351 -24.281  0.00  0.00    +0.005 C 
BRANCH  20  22
ATOM     22  C   UNL     1      35.344 -17.159 -23.097  0.00  0.00    +0.004 C 
ATOM     23  C   UNL     1      34.814 -16.367 -24.285  0.00  0.00    +0.000 C 
ENDBRANCH  20  22
ENDBRANCH  13  20
BRANCH   2  24
ATOM     24  C   UNL     1      35.495 -24.902 -14.829  0.00  0.00    +0.175 C 
BRANCH  24  25
ATOM     25  O   UNL     1      35.908 -23.901 -13.916  0.00  0.00    -0.346 OA
ATOM     26  C   UNL     1      35.041 -23.822 -12.791  0.00  0.00    +0.175 C 
ENDBRANCH  24  25
BRANCH  24  28
ATOM     27  O   UNL     1      36.501 -26.848 -15.803  0.00  0.00    -0.291 OA
ATOM     28  C   UNL     1      36.656 -25.847 -15.100  0.00  0.00    +0.206 C 
BRANCH  28  29
ATOM     29  C   UNL     1      38.020 -25.515 -14.489  0.00  0.00    +0.197 C 
BRANCH  29  30
ATOM     30  O   UNL     1      38.213 -24.108 -14.562  0.00  0.00    -0.375 OA
ATOM     31  H   UNL     1      38.788 -23.822 -13.835  0.00  0.00    +0.211 HD
ENDBRANCH  29  30
BRANCH  29  32
ATOM     32  C   UNL     1      38.139 -25.972 -13.033  0.00  0.00    +0.145 C 
ATOM     33  C   UNL     1      38.371 -24.805 -12.079  0.00  0.00    +0.035 C 
BRANCH  32  34
ATOM     34  O   UNL     1      36.934 -26.635 -12.651  0.00  0.00    -0.382 OA
ATOM     35  H   UNL     1      36.334 -25.999 -12.230  0.00  0.00    +0.210 HD
ENDBRANCH  32  34
ENDBRANCH  29  32
ENDBRANCH  28  29
ENDBRANCH  24  28
ENDBRANCH   2  24
TORSDOF 11
ENDMDL
MODEL 3
REMARK VINA RESULT:     -10.2      2.263      3.355
REMARK  Name = 5288133
REMARK  11 active torsions:
REMARK  status: ('A' for Active; 'I' for Inactive)
REMARK    1  A    between atoms: C_2  and  C_24
REMARK    2  A    between atoms: C_9  and  O_16
REMARK    3  A    between atoms: C_12  and  O_18
REMARK    4  A    between atoms: C_13  and  C_20
REMARK    5  A    between atoms: C_20  and  C_22
REMARK    6  A    between atoms: C_24  and  O_25
REMARK    7  A    between atoms: C_24  and  C_28
REMARK    8  A    between atoms: C_28  and  C_29
REMARK    9  A    between atoms: C_29  and  O_30
REMARK   10  A    between atoms: C_29  and  C_32
REMARK   11  A    between atoms: C_32  and  O_34
REMARK                            x       y       z     vdW  Elec       q    Type
REMARK                         _______ _______ _______ _____ _____    ______ ____
ROOT
ATOM      1  O   UNL     1      37.635 -22.077 -17.099  0.00  0.00    -0.291 OA
ATOM      2  C   UNL     1      34.422 -23.206 -15.839  0.00  0.00    +0.047 C 
ATOM      3  C   UNL     1      33.639 -23.248 -17.154  0.00  0.00    +0.030 C 
ATOM      4  C   UNL     1      35.911 -23.413 -16.116  0.00  0.00    +0.072 C 
ATOM      5  C   UNL     1      34.180 -22.250 -18.143  0.00  0.00    -0.016 C 
ATOM      6  C   UNL     1      35.521 -21.847 -18.121  0.00  0.00    +0.064 C 
ATOM      7  C   UNL     1      36.450 -22.399 -17.102  0.00  0.00    +0.176 C 
ATOM      8  C   UNL     1      33.335 -21.740 -19.140  0.00  0.00    -0.004 C 
ATOM      9  C   UNL     1      36.002 -20.930 -19.065  0.00  0.00    +0.139 C 
ATOM     10  C   UNL     1      35.153 -20.408 -20.054  0.00  0.00    +0.067 C 
ATOM     11  C   UNL     1      33.802 -20.821 -20.094  0.00  0.00    +0.006 C 
ATOM     12  C   UNL     1      35.618 -19.488 -21.007  0.00  0.00    +0.132 C 
ATOM     13  C   UNL     1      34.762 -18.982 -21.986  0.00  0.00    +0.011 C 
ATOM     14  C   UNL     1      32.954 -20.303 -21.087  0.00  0.00    -0.000 C 
ATOM     15  C   UNL     1      33.432 -19.389 -22.026  0.00  0.00    -0.001 C 
ENDROOT
BRANCH   9  16
ATOM     16  O   UNL     1      37.312 -20.540 -19.016  0.00  0.00    -0.505 OA
ATOM     17  H   UNL     1      37.545 -19.655 -19.221  0.00  0.00    +0.292 HD
ENDBRANCH   9  16
BRANCH  12  18
ATOM     18  O   UNL     1      36.912 -19.047 -21.028  0.00  0.00    -0.506 OA
ATOM     19  H   UNL     1      37.586 -19.554 -20.622  0.00  0.00    +0.292 HD
ENDBRANCH  12  18
BRANCH  13  20
ATOM     20  C   UNL     1      35.248 -18.002 -23.004  0.00  0.00    +0.025 C 
ATOM     21  C   UNL     1      34.905 -16.553 -22.603  0.00  0.00    +0.005 C 
BRANCH  20  22
ATOM     22  C   UNL     1      34.716 -18.257 -24.440  0.00  0.00    +0.004 C 
ATOM     23  C   UNL     1      34.472 -16.969 -25.216  0.00  0.00    +0.000 C 
ENDBRANCH  20  22
ENDBRANCH  13  20
BRANCH   2  24
ATOM     24  C   UNL     1      33.901 -24.260 -14.864  0.00  0.00    +0.175 C 
BRANCH  24  25
ATOM     25  O   UNL     1      33.244 -23.573 -13.815  0.00  0.00    -0.346 OA
ATOM     26  C   UNL     1      31.834 -23.762 -13.863  0.00  0.00    +0.175 C 
ENDBRANCH  24  25
BRANCH  24  28
ATOM     27  O   UNL     1      35.441 -26.098 -14.881  0.00  0.00    -0.291 OA
ATOM     28  C   UNL     1      35.033 -25.097 -14.288  0.00  0.00    +0.206 C 
BRANCH  28  29
ATOM     29  C   UNL     1      35.659 -24.657 -12.962  0.00  0.00    +0.197 C 
BRANCH  29  30
ATOM     30  O   UNL     1      34.779 -25.024 -11.908  0.00  0.00    -0.375 OA
ATOM     31  H   UNL     1      34.052 -24.384 -11.855  0.00  0.00    +0.211 HD
ENDBRANCH  29  30
BRANCH  29  32
ATOM     32  C   UNL     1      37.033 -25.287 -12.722  0.00  0.00    +0.145 C 
ATOM     33  C   UNL     1      37.966 -24.361 -11.949  0.00  0.00    +0.035 C 
BRANCH  32  34
ATOM     34  O   UNL     1      36.872 -26.492 -11.974  0.00  0.00    -0.382 OA
ATOM     35  H   UNL     1      37.435 -26.461 -11.184  0.00  0.00    +0.210 HD
ENDBRANCH  32  34
ENDBRANCH  29  32
ENDBRANCH  28  29
ENDBRANCH  24  28
ENDBRANCH   2  24
TORSDOF 11
ENDMDL
MODEL 4
REMARK VINA RESULT:     -10.0      1.856      2.739
REMARK  Name = 5288133
REMARK  11 active torsions:
REMARK  status: ('A' for Active; 'I' for Inactive)
REMARK    1  A    between atoms: C_2  and  C_24
REMARK    2  A    between atoms: C_9  and  O_16
REMARK    3  A    between atoms: C_12  and  O_18
REMARK    4  A    between atoms: C_13  and  C_20
REMARK    5  A    between atoms: C_20  and  C_22
REMARK    6  A    between atoms: C_24  and  O_25
REMARK    7  A    between atoms: C_24  and  C_28
REMARK    8  A    between atoms: C_28  and  C_29
REMARK    9  A    between atoms: C_29  and  O_30
REMARK   10  A    between atoms: C_29  and  C_32
REMARK   11  A    between atoms: C_32  and  O_34
REMARK                            x       y       z     vdW  Elec       q    Type
REMARK                         _______ _______ _______ _____ _____    ______ ____
ROOT
ATOM      1  O   UNL     1      32.136 -22.953 -17.768  0.00  0.00    -0.291 OA
ATOM      2  C   UNL     1      35.306 -24.068 -16.396  0.00  0.00    +0.047 C 
ATOM      3  C   UNL     1      36.151 -22.821 -16.673  0.00  0.00    +0.030 C 
ATOM      4  C   UNL     1      33.837 -23.677 -16.249  0.00  0.00    +0.072 C 
ATOM      5  C   UNL     1      35.638 -22.070 -17.873  0.00  0.00    -0.016 C 
ATOM      6  C   UNL     1      34.290 -22.121 -18.249  0.00  0.00    +0.064 C 
ATOM      7  C   UNL     1      33.325 -22.933 -17.464  0.00  0.00    +0.176 C 
ATOM      8  C   UNL     1      36.519 -21.266 -18.610  0.00  0.00    -0.004 C 
ATOM      9  C   UNL     1      33.837 -21.399 -19.361  0.00  0.00    +0.139 C 
ATOM     10  C   UNL     1      34.721 -20.605 -20.108  0.00  0.00    +0.067 C 
ATOM     11  C   UNL     1      36.080 -20.535 -19.727  0.00  0.00    +0.006 C 
ATOM     12  C   UNL     1      34.284 -19.874 -21.225  0.00  0.00    +0.132 C 
ATOM     13  C   UNL     1      35.174 -19.086 -21.955  0.00  0.00    +0.011 C 
ATOM     14  C   UNL     1      36.963 -19.736 -20.472  0.00  0.00    -0.000 C 
ATOM     15  C   UNL     1      36.512 -19.017 -21.579  0.00  0.00    -0.001 C 
ENDROOT
BRANCH   9  16
ATOM     16  O   UNL     1      32.519 -21.473 -19.719  0.00  0.00    -0.505 OA
ATOM     17  H   UNL     1      32.164 -22.281 -20.035  0.00  0.00    +0.292 HD
ENDBRANCH   9  16
BRANCH  12  18
ATOM     18  O   UNL     1      32.983 -19.894 -21.649  0.00  0.00    -0.506 OA
ATOM     19  H   UNL     1      32.448 -19.132 -21.555  0.00  0.00    +0.292 HD
ENDBRANCH  12  18
BRANCH  13  20
ATOM     20  C   UNL     1      34.718 -18.307 -23.145  0.00  0.00    +0.025 C 
ATOM     21  C   UNL     1      34.971 -19.077 -24.457  0.00  0.00    +0.005 C 
BRANCH  20  22
ATOM     22  C   UNL     1      35.358 -16.898 -23.268  0.00  0.00    +0.004 C 
ATOM     23  C   UNL     1      34.569 -15.970 -24.183  0.00  0.00    +0.000 C 
ENDBRANCH  20  22
ENDBRANCH  13  20
BRANCH   2  24
ATOM     24  C   UNL     1      35.802 -24.790 -15.144  0.00  0.00    +0.175 C 
BRANCH  24  25
ATOM     25  O   UNL     1      35.841 -26.173 -15.445  0.00  0.00    -0.346 OA
ATOM     26  C   UNL     1      37.076 -26.762 -15.053  0.00  0.00    +0.175 C 
ENDBRANCH  24  25
BRANCH  24  28
ATOM     27  O   UNL     1      33.701 -24.937 -13.997  0.00  0.00    -0.291 OA
ATOM     28  C   UNL     1      34.873 -24.558 -13.961  0.00  0.00    +0.206 C 
BRANCH  28  29
ATOM     29  C   UNL     1      35.438 -23.856 -12.723  0.00  0.00    +0.197 C 
BRANCH  29  30
ATOM     30  O   UNL     1      34.354 -23.513 -11.870  0.00  0.00    -0.375 OA
ATOM     31  H   UNL     1      33.968 -22.671 -12.159  0.00  0.00    +0.211 HD
ENDBRANCH  29  30
BRANCH  29  32
ATOM     32  C   UNL     1      36.434 -24.729 -11.955  0.00  0.00    +0.145 C 
ATOM     33  C   UNL     1      37.775 -24.031 -11.752  0.00  0.00    +0.035 C 
BRANCH  32  34
ATOM     34  O   UNL     1      35.890 -25.044 -10.673  0.00  0.00    -0.382 OA
ATOM     35  H   UNL     1      36.580 -24.946  -9.997  0.00  0.00    +0.210 HD
ENDBRANCH  32  34
ENDBRANCH  29  32
ENDBRANCH  28  29
ENDBRANCH  24  28
ENDBRANCH   2  24
TORSDOF 11
ENDMDL
MODEL 5
REMARK VINA RESULT:     -10.0      1.213      2.478
REMARK  Name = 5288133
REMARK  11 active torsions:
REMARK  status: ('A' for Active; 'I' for Inactive)
REMARK    1  A    between atoms: C_2  and  C_24
REMARK    2  A    between atoms: C_9  and  O_16
REMARK    3  A    between atoms: C_12  and  O_18
REMARK    4  A    between atoms: C_13  and  C_20
REMARK    5  A    between atoms: C_20  and  C_22
REMARK    6  A    between atoms: C_24  and  O_25
REMARK    7  A    between atoms: C_24  and  C_28
REMARK    8  A    between atoms: C_28  and  C_29
REMARK    9  A    between atoms: C_29  and  O_30
REMARK   10  A    between atoms: C_29  and  C_32
REMARK   11  A    between atoms: C_32  and  O_34
REMARK                            x       y       z     vdW  Elec       q    Type
REMARK                         _______ _______ _______ _____ _____    ______ ____
ROOT
ATOM      1  O   UNL     1      33.201 -23.245 -17.092  0.00  0.00    -0.291 OA
ATOM      2  C   UNL     1      36.641 -23.657 -16.010  0.00  0.00    +0.047 C 
ATOM      3  C   UNL     1      37.213 -22.317 -16.479  0.00  0.00    +0.030 C 
ATOM      4  C   UNL     1      35.147 -23.513 -15.727  0.00  0.00    +0.072 C 
ATOM      5  C   UNL     1      36.456 -21.787 -17.668  0.00  0.00    -0.016 C 
ATOM      6  C   UNL     1      35.109 -22.105 -17.881  0.00  0.00    +0.064 C 
ATOM      7  C   UNL     1      34.391 -22.991 -16.930  0.00  0.00    +0.176 C 
ATOM      8  C   UNL     1      37.098 -20.918 -18.562  0.00  0.00    -0.004 C 
ATOM      9  C   UNL     1      34.424 -21.584 -18.987  0.00  0.00    +0.139 C 
ATOM     10  C   UNL     1      35.071 -20.726 -19.891  0.00  0.00    +0.067 C 
ATOM     11  C   UNL     1      36.425 -20.387 -19.675  0.00  0.00    +0.006 C 
ATOM     12  C   UNL     1      34.399 -20.195 -21.004  0.00  0.00    +0.132 C 
ATOM     13  C   UNL     1      35.055 -19.340 -21.891  0.00  0.00    +0.011 C 
ATOM     14  C   UNL     1      37.070 -19.524 -20.577  0.00  0.00    -0.000 C 
ATOM     15  C   UNL     1      36.388 -19.006 -21.678  0.00  0.00    -0.001 C 
ENDROOT
BRANCH   9  16
ATOM     16  O   UNL     1      33.113 -21.919 -19.184  0.00  0.00    -0.505 OA
ATOM     17  H   UNL     1      32.763 -22.694 -18.790  0.00  0.00    +0.292 HD
ENDBRANCH   9  16
BRANCH  12  18
ATOM     18  O   UNL     1      33.089 -20.480 -21.273  0.00  0.00    -0.506 OA
ATOM     19  H   UNL     1      32.555 -20.887 -20.621  0.00  0.00    +0.292 HD
ENDBRANCH  12  18
BRANCH  13  20
ATOM     20  C   UNL     1      34.348 -18.772 -23.078  0.00  0.00    +0.025 C 
ATOM     21  C   UNL     1      34.673 -19.562 -24.362  0.00  0.00    +0.005 C 
BRANCH  20  22
ATOM     22  C   UNL     1      34.644 -17.269 -23.335  0.00  0.00    +0.004 C 
ATOM     23  C   UNL     1      34.684 -16.921 -24.818  0.00  0.00    +0.000 C 
ENDBRANCH  20  22
ENDBRANCH  13  20
BRANCH   2  24
ATOM     24  C   UNL     1      37.381 -24.158 -14.771  0.00  0.00    +0.175 C 
BRANCH  24  25
ATOM     25  O   UNL     1      38.745 -24.299 -15.124  0.00  0.00    -0.346 OA
ATOM     26  C   UNL     1      39.465 -25.055 -14.157  0.00  0.00    +0.175 C 
ENDBRANCH  24  25
BRANCH  24  28
ATOM     27  O   UNL     1      36.802 -26.466 -15.068  0.00  0.00    -0.291 OA
ATOM     28  C   UNL     1      36.841 -25.501 -14.302  0.00  0.00    +0.206 C 
BRANCH  28  29
ATOM     29  C   UNL     1      36.361 -25.624 -12.853  0.00  0.00    +0.197 C 
BRANCH  29  30
ATOM     30  O   UNL     1      37.183 -26.574 -12.188  0.00  0.00    -0.375 OA
ATOM     31  H   UNL     1      37.699 -27.071 -12.843  0.00  0.00    +0.211 HD
ENDBRANCH  29  30
BRANCH  29  32
ATOM     32  C   UNL     1      36.413 -24.291 -12.102  0.00  0.00    +0.145 C 
ATOM     33  C   UNL     1      35.023 -23.707 -11.869  0.00  0.00    +0.035 C 
BRANCH  32  34
ATOM     34  O   UNL     1      37.037 -24.492 -10.834  0.00  0.00    -0.382 OA
ATOM     35  H   UNL     1      37.174 -25.442 -10.688  0.00  0.00    +0.210 HD
ENDBRANCH  32  34
ENDBRANCH  29  32
ENDBRANCH  28  29
ENDBRANCH  24  28
ENDBRANCH   2  24
TORSDOF 11
ENDMDL
MODEL 6
REMARK VINA RESULT:      -9.2      5.693     10.600
REMARK  Name = 5288133
REMARK  11 active torsions:
REMARK  status: ('A' for Active; 'I' for Inactive)
REMARK    1  A    between atoms: C_2  and  C_24
REMARK    2  A    between atoms: C_9  and  O_16
REMARK    3  A    between atoms: C_12  and  O_18
REMARK    4  A    between atoms: C_13  and  C_20
REMARK    5  A    between atoms: C_20  and  C_22
REMARK    6  A    between atoms: C_24  and  O_25
REMARK    7  A    between atoms: C_24  and  C_28
REMARK    8  A    between atoms: C_28  and  C_29
REMARK    9  A    between atoms: C_29  and  O_30
REMARK   10  A    between atoms: C_29  and  C_32
REMARK   11  A    between atoms: C_32  and  O_34
REMARK                            x       y       z     vdW  Elec       q    Type
REMARK                         _______ _______ _______ _____ _____    ______ ____
ROOT
ATOM      1  O   UNL     1      32.428 -15.170 -19.876  0.00  0.00    -0.291 OA
ATOM      2  C   UNL     1      33.974 -16.747 -22.758  0.00  0.00    +0.047 C 
ATOM      3  C   UNL     1      34.685 -15.530 -23.357  0.00  0.00    +0.030 C 
ATOM      4  C   UNL     1      33.807 -16.560 -21.251  0.00  0.00    +0.072 C 
ATOM      5  C   UNL     1      33.963 -14.254 -23.017  0.00  0.00    -0.016 C 
ATOM      6  C   UNL     1      33.196 -14.133 -21.852  0.00  0.00    +0.064 C 
ATOM      7  C   UNL     1      33.071 -15.281 -20.917  0.00  0.00    +0.176 C 
ATOM      8  C   UNL     1      34.094 -13.142 -23.862  0.00  0.00    -0.004 C 
ATOM      9  C   UNL     1      32.548 -12.927 -21.551  0.00  0.00    +0.139 C 
ATOM     10  C   UNL     1      32.667 -11.819 -22.404  0.00  0.00    +0.067 C 
ATOM     11  C   UNL     1      33.452 -11.927 -23.574  0.00  0.00    +0.006 C 
ATOM     12  C   UNL     1      32.025 -10.603 -22.118  0.00  0.00    +0.132 C 
ATOM     13  C   UNL     1      32.156  -9.509 -22.974  0.00  0.00    +0.011 C 
ATOM     14  C   UNL     1      33.574 -10.815 -24.424  0.00  0.00    -0.000 C 
ATOM     15  C   UNL     1      32.929  -9.615 -24.125  0.00  0.00    -0.001 C 
ENDROOT
BRANCH   9  16
ATOM     16  O   UNL     1      31.793 -12.835 -20.415  0.00  0.00    -0.505 OA
ATOM     17  H   UNL     1      31.838 -13.511 -19.766  0.00  0.00    +0.292 HD
ENDBRANCH   9  16
BRANCH  12  18
ATOM     18  O   UNL     1      31.252 -10.428 -21.003  0.00  0.00    -0.506 OA
ATOM     19  H   UNL     1      30.616  -9.742 -20.977  0.00  0.00    +0.292 HD
ENDBRANCH  12  18
BRANCH  13  20
ATOM     20  C   UNL     1      31.475  -8.212 -22.678  0.00  0.00    +0.025 C 
ATOM     21  C   UNL     1      30.853  -7.597 -23.947  0.00  0.00    +0.005 C 
BRANCH  20  22
ATOM     22  C   UNL     1      32.391  -7.150 -22.011  0.00  0.00    +0.004 C 
ATOM     23  C   UNL     1      32.557  -7.372 -20.513  0.00  0.00    +0.000 C 
ENDBRANCH  20  22
ENDBRANCH  13  20
BRANCH   2  24
ATOM     24  C   UNL     1      34.745 -18.030 -23.063  0.00  0.00    +0.175 C 
BRANCH  24  25
ATOM     25  O   UNL     1      34.291 -18.505 -24.317  0.00  0.00    -0.346 OA
ATOM     26  C   UNL     1      35.001 -19.668 -24.728  0.00  0.00    +0.175 C 
ENDBRANCH  24  25
BRANCH  24  28
ATOM     27  O   UNL     1      33.363 -19.510 -21.779  0.00  0.00    -0.291 OA
ATOM     28  C   UNL     1      34.502 -19.094 -22.002  0.00  0.00    +0.206 C 
BRANCH  28  29
ATOM     29  C   UNL     1      35.707 -19.639 -21.232  0.00  0.00    +0.197 C 
BRANCH  29  30
ATOM     30  O   UNL     1      36.158 -18.633 -20.335  0.00  0.00    -0.375 OA
ATOM     31  H   UNL     1      36.750 -19.029 -19.676  0.00  0.00    +0.211 HD
ENDBRANCH  29  30
BRANCH  29  32
ATOM     32  C   UNL     1      35.376 -20.912 -20.448  0.00  0.00    +0.145 C 
ATOM     33  C   UNL     1      36.507 -21.322 -19.511  0.00  0.00    +0.035 C 
BRANCH  32  34
ATOM     34  O   UNL     1      34.201 -20.688 -19.667  0.00  0.00    -0.382 OA
ATOM     35  H   UNL     1      34.403 -20.836 -18.729  0.00  0.00    +0.210 HD
ENDBRANCH  32  34
ENDBRANCH  29  32
ENDBRANCH  28  29
ENDBRANCH  24  28
ENDBRANCH   2  24
TORSDOF 11
ENDMDL
MODEL 7
REMARK VINA RESULT:      -9.1      2.521      4.827
REMARK  Name = 5288133
REMARK  11 active torsions:
REMARK  status: ('A' for Active; 'I' for Inactive)
REMARK    1  A    between atoms: C_2  and  C_24
REMARK    2  A    between atoms: C_9  and  O_16
REMARK    3  A    between atoms: C_12  and  O_18
REMARK    4  A    between atoms: C_13  and  C_20
REMARK    5  A    between atoms: C_20  and  C_22
REMARK    6  A    between atoms: C_24  and  O_25
REMARK    7  A    between atoms: C_24  and  C_28
REMARK    8  A    between atoms: C_28  and  C_29
REMARK    9  A    between atoms: C_29  and  O_30
REMARK   10  A    between atoms: C_29  and  C_32
REMARK   11  A    between atoms: C_32  and  O_34
REMARK                            x       y       z     vdW  Elec       q    Type
REMARK                         _______ _______ _______ _____ _____    ______ ____
ROOT
ATOM      1  O   UNL     1      37.884 -22.006 -16.745  0.00  0.00    -0.291 OA
ATOM      2  C   UNL     1      34.781 -23.244 -15.323  0.00  0.00    +0.047 C 
ATOM      3  C   UNL     1      33.966 -23.410 -16.609  0.00  0.00    +0.030 C 
ATOM      4  C   UNL     1      36.271 -23.380 -15.633  0.00  0.00    +0.072 C 
ATOM      5  C   UNL     1      34.419 -22.443 -17.670  0.00  0.00    -0.016 C 
ATOM      6  C   UNL     1      35.732 -21.962 -17.712  0.00  0.00    +0.064 C 
ATOM      7  C   UNL     1      36.721 -22.397 -16.693  0.00  0.00    +0.176 C 
ATOM      8  C   UNL     1      33.517 -22.044 -18.668  0.00  0.00    -0.004 C 
ATOM      9  C   UNL     1      36.131 -21.075 -18.722  0.00  0.00    +0.139 C 
ATOM     10  C   UNL     1      35.225 -20.664 -19.713  0.00  0.00    +0.067 C 
ATOM     11  C   UNL     1      33.901 -21.157 -19.687  0.00  0.00    +0.006 C 
ATOM     12  C   UNL     1      35.607 -19.777 -20.732  0.00  0.00    +0.132 C 
ATOM     13  C   UNL     1      34.696 -19.381 -21.711  0.00  0.00    +0.011 C 
ATOM     14  C   UNL     1      32.997 -20.750 -20.682  0.00  0.00    -0.000 C 
ATOM     15  C   UNL     1      33.393 -19.867 -21.686  0.00  0.00    -0.001 C 
ENDROOT
BRANCH   9  16
ATOM     16  O   UNL     1      37.416 -20.607 -18.737  0.00  0.00    -0.505 OA
ATOM     17  H   UNL     1      37.580 -19.686 -18.672  0.00  0.00    +0.292 HD
ENDBRANCH   9  16
BRANCH  12  18
ATOM     18  O   UNL     1      36.872 -19.263 -20.818  0.00  0.00    -0.506 OA
ATOM     19  H   UNL     1      37.606 -19.837 -20.899  0.00  0.00    +0.292 HD
ENDBRANCH  12  18
BRANCH  13  20
ATOM     20  C   UNL     1      35.094 -18.437 -22.798  0.00  0.00    +0.025 C 
ATOM     21  C   UNL     1      34.593 -17.006 -22.516  0.00  0.00    +0.005 C 
BRANCH  20  22
ATOM     22  C   UNL     1      34.616 -18.857 -24.215  0.00  0.00    +0.004 C 
ATOM     23  C   UNL     1      34.463 -17.674 -25.161  0.00  0.00    +0.000 C 
ENDBRANCH  20  22
ENDBRANCH  13  20
BRANCH   2  24
ATOM     24  C   UNL     1      34.352 -24.267 -14.273  0.00  0.00    +0.175 C 
BRANCH  24  25
ATOM     25  O   UNL     1      34.397 -25.542 -14.886  0.00  0.00    -0.346 OA
ATOM     26  C   UNL     1      35.688 -26.133 -14.778  0.00  0.00    +0.175 C 
ENDBRANCH  24  25
BRANCH  24  28
ATOM     27  O   UNL     1      32.691 -22.996 -13.099  0.00  0.00    -0.291 OA
ATOM     28  C   UNL     1      32.939 -23.997 -13.775  0.00  0.00    +0.206 C 
BRANCH  28  29
ATOM     29  C   UNL     1      31.837 -24.992 -14.146  0.00  0.00    +0.197 C 
BRANCH  29  30
ATOM     30  O   UNL     1      31.121 -25.328 -12.965  0.00  0.00    -0.375 OA
ATOM     31  H   UNL     1      31.688 -25.856 -12.382  0.00  0.00    +0.211 HD
ENDBRANCH  29  30
BRANCH  29  32
ATOM     32  C   UNL     1      30.866 -24.431 -15.189  0.00  0.00    +0.145 C 
ATOM     33  C   UNL     1      29.456 -24.987 -15.022  0.00  0.00    +0.035 C 
BRANCH  32  34
ATOM     34  O   UNL     1      30.810 -23.010 -15.060  0.00  0.00    -0.382 OA
ATOM     35  H   UNL     1      30.765 -22.607 -15.942  0.00  0.00    +0.210 HD
ENDBRANCH  32  34
ENDBRANCH  29  32
ENDBRANCH  28  29
ENDBRANCH  24  28
ENDBRANCH   2  24
TORSDOF 11
ENDMDL
MODEL 8
REMARK VINA RESULT:      -8.9      1.922      3.000
REMARK  Name = 5288133
REMARK  11 active torsions:
REMARK  status: ('A' for Active; 'I' for Inactive)
REMARK    1  A    between atoms: C_2  and  C_24
REMARK    2  A    between atoms: C_9  and  O_16
REMARK    3  A    between atoms: C_12  and  O_18
REMARK    4  A    between atoms: C_13  and  C_20
REMARK    5  A    between atoms: C_20  and  C_22
REMARK    6  A    between atoms: C_24  and  O_25
REMARK    7  A    between atoms: C_24  and  C_28
REMARK    8  A    between atoms: C_28  and  C_29
REMARK    9  A    between atoms: C_29  and  O_30
REMARK   10  A    between atoms: C_29  and  C_32
REMARK   11  A    between atoms: C_32  and  O_34
REMARK                            x       y       z     vdW  Elec       q    Type
REMARK                         _______ _______ _______ _____ _____    ______ ____
ROOT
ATOM      1  O   UNL     1      38.055 -21.930 -16.950  0.00  0.00    -0.291 OA
ATOM      2  C   UNL     1      35.210 -23.271 -15.137  0.00  0.00    +0.047 C 
ATOM      3  C   UNL     1      34.255 -23.508 -16.311  0.00  0.00    +0.030 C 
ATOM      4  C   UNL     1      36.656 -23.346 -15.623  0.00  0.00    +0.072 C 
ATOM      5  C   UNL     1      34.529 -22.550 -17.439  0.00  0.00    -0.016 C 
ATOM      6  C   UNL     1      35.803 -22.010 -17.651  0.00  0.00    +0.064 C 
ATOM      7  C   UNL     1      36.927 -22.372 -16.749  0.00  0.00    +0.176 C 
ATOM      8  C   UNL     1      33.495 -22.220 -18.328  0.00  0.00    -0.004 C 
ATOM      9  C   UNL     1      36.034 -21.134 -18.719  0.00  0.00    +0.139 C 
ATOM     10  C   UNL     1      34.997 -20.791 -19.601  0.00  0.00    +0.067 C 
ATOM     11  C   UNL     1      33.711 -21.344 -19.405  0.00  0.00    +0.006 C 
ATOM     12  C   UNL     1      35.210 -19.914 -20.677  0.00  0.00    +0.132 C 
ATOM     13  C   UNL     1      34.169 -19.587 -21.547  0.00  0.00    +0.011 C 
ATOM     14  C   UNL     1      32.675 -21.005 -20.291  0.00  0.00    -0.000 C 
ATOM     15  C   UNL     1      32.904 -20.132 -21.354  0.00  0.00    -0.001 C 
ENDROOT
BRANCH   9  16
ATOM     16  O   UNL     1      37.283 -20.608 -18.900  0.00  0.00    -0.505 OA
ATOM     17  H   UNL     1      37.517 -20.228 -19.725  0.00  0.00    +0.292 HD
ENDBRANCH   9  16
BRANCH  12  18
ATOM     18  O   UNL     1      36.428 -19.346 -20.927  0.00  0.00    -0.506 OA
ATOM     19  H   UNL     1      36.597 -18.464 -20.661  0.00  0.00    +0.292 HD
ENDBRANCH  12  18
BRANCH  13  20
ATOM     20  C   UNL     1      34.387 -18.655 -22.694  0.00  0.00    +0.025 C 
ATOM     21  C   UNL     1      35.115 -19.353 -23.860  0.00  0.00    +0.005 C 
BRANCH  20  22
ATOM     22  C   UNL     1      35.168 -17.364 -22.326  0.00  0.00    +0.004 C 
ATOM     23  C   UNL     1      34.413 -16.478 -21.343  0.00  0.00    +0.000 C 
ENDBRANCH  20  22
ENDBRANCH  13  20
BRANCH   2  24
ATOM     24  C   UNL     1      34.960 -24.284 -14.022  0.00  0.00    +0.175 C 
BRANCH  24  25
ATOM     25  O   UNL     1      33.680 -24.008 -13.483  0.00  0.00    -0.346 OA
ATOM     26  C   UNL     1      32.749 -25.043 -13.780  0.00  0.00    +0.175 C 
ENDBRANCH  24  25
BRANCH  24  28
ATOM     27  O   UNL     1      36.026 -23.196 -12.170  0.00  0.00    -0.291 OA
ATOM     28  C   UNL     1      36.005 -24.174 -12.921  0.00  0.00    +0.206 C 
BRANCH  28  29
ATOM     29  C   UNL     1      37.017 -25.312 -12.765  0.00  0.00    +0.197 C 
BRANCH  29  30
ATOM     30  O   UNL     1      36.577 -26.160 -11.713  0.00  0.00    -0.375 OA
ATOM     31  H   UNL     1      35.952 -25.679 -11.148  0.00  0.00    +0.211 HD
ENDBRANCH  29  30
BRANCH  29  32
ATOM     32  C   UNL     1      37.182 -26.132 -14.047  0.00  0.00    +0.145 C 
ATOM     33  C   UNL     1      38.611 -26.089 -14.579  0.00  0.00    +0.035 C 
BRANCH  32  34
ATOM     34  O   UNL     1      36.840 -27.492 -13.780  0.00  0.00    -0.382 OA
ATOM     35  H   UNL     1      36.523 -27.911 -14.596  0.00  0.00    +0.210 HD
ENDBRANCH  32  34
ENDBRANCH  29  32
ENDBRANCH  28  29
ENDBRANCH  24  28
ENDBRANCH   2  24
TORSDOF 11
ENDMDL
MODEL 9
REMARK VINA RESULT:      -8.9      5.100      9.354
REMARK  Name = 5288133
REMARK  11 active torsions:
REMARK  status: ('A' for Active; 'I' for Inactive)
REMARK    1  A    between atoms: C_2  and  C_24
REMARK    2  A    between atoms: C_9  and  O_16
REMARK    3  A    between atoms: C_12  and  O_18
REMARK    4  A    between atoms: C_13  and  C_20
REMARK    5  A    between atoms: C_20  and  C_22
REMARK    6  A    between atoms: C_24  and  O_25
REMARK    7  A    between atoms: C_24  and  C_28
REMARK    8  A    between atoms: C_28  and  C_29
REMARK    9  A    between atoms: C_29  and  O_30
REMARK   10  A    between atoms: C_29  and  C_32
REMARK   11  A    between atoms: C_32  and  O_34
REMARK                            x       y       z     vdW  Elec       q    Type
REMARK                         _______ _______ _______ _____ _____    ______ ____
ROOT
ATOM      1  O   UNL     1      35.009 -16.529 -25.118  0.00  0.00    -0.291 OA
ATOM      2  C   UNL     1      34.553 -18.086 -21.870  0.00  0.00    +0.047 C 
ATOM      3  C   UNL     1      33.350 -17.279 -21.373  0.00  0.00    +0.030 C 
ATOM      4  C   UNL     1      34.553 -18.128 -23.397  0.00  0.00    +0.072 C 
ATOM      5  C   UNL     1      33.328 -15.902 -21.981  0.00  0.00    -0.016 C 
ATOM      6  C   UNL     1      33.894 -15.645 -23.236  0.00  0.00    +0.064 C 
ATOM      7  C   UNL     1      34.542 -16.740 -24.002  0.00  0.00    +0.176 C 
ATOM      8  C   UNL     1      32.690 -14.857 -21.297  0.00  0.00    -0.004 C 
ATOM      9  C   UNL     1      33.844 -14.357 -23.786  0.00  0.00    +0.139 C 
ATOM     10  C   UNL     1      33.218 -13.307 -23.095  0.00  0.00    +0.067 C 
ATOM     11  C   UNL     1      32.631 -13.561 -21.835  0.00  0.00    +0.006 C 
ATOM     12  C   UNL     1      33.158 -12.010 -23.632  0.00  0.00    +0.132 C 
ATOM     13  C   UNL     1      32.529 -10.979 -22.934  0.00  0.00    +0.011 C 
ATOM     14  C   UNL     1      31.999 -12.511 -21.147  0.00  0.00    -0.000 C 
ATOM     15  C   UNL     1      31.950 -11.229 -21.694  0.00  0.00    -0.001 C 
ENDROOT
BRANCH   9  16
ATOM     16  O   UNL     1      34.414 -14.125 -25.007  0.00  0.00    -0.505 OA
ATOM     17  H   UNL     1      34.162 -13.372 -25.506  0.00  0.00    +0.292 HD
ENDBRANCH   9  16
BRANCH  12  18
ATOM     18  O   UNL     1      33.704 -11.695 -24.846  0.00  0.00    -0.506 OA
ATOM     19  H   UNL     1      33.302 -12.001 -25.634  0.00  0.00    +0.292 HD
ENDBRANCH  12  18
BRANCH  13  20
ATOM     20  C   UNL     1      32.462  -9.596 -23.497  0.00  0.00    +0.025 C 
ATOM     21  C   UNL     1      33.718  -8.778 -23.137  0.00  0.00    +0.005 C 
BRANCH  20  22
ATOM     22  C   UNL     1      31.207  -8.792 -23.063  0.00  0.00    +0.004 C 
ATOM     23  C   UNL     1      31.018  -7.514 -23.871  0.00  0.00    +0.000 C 
ENDBRANCH  20  22
ENDBRANCH  13  20
BRANCH   2  24
ATOM     24  C   UNL     1      34.534 -19.499 -21.290  0.00  0.00    +0.175 C 
BRANCH  24  25
ATOM     25  O   UNL     1      33.469 -19.557 -20.359  0.00  0.00    -0.346 OA
ATOM     26  C   UNL     1      32.505 -20.539 -20.722  0.00  0.00    +0.175 C 
ENDBRANCH  24  25
BRANCH  24  28
ATOM     27  O   UNL     1      36.671 -18.950 -20.352  0.00  0.00    -0.291 OA
ATOM     28  C   UNL     1      35.840 -19.830 -20.583  0.00  0.00    +0.206 C 
BRANCH  28  29
ATOM     29  C   UNL     1      36.086 -21.280 -20.156  0.00  0.00    +0.197 C 
BRANCH  29  30
ATOM     30  O   UNL     1      37.471 -21.562 -20.308  0.00  0.00    -0.375 OA
ATOM     31  H   UNL     1      37.834 -21.868 -19.461  0.00  0.00    +0.211 HD
ENDBRANCH  29  30
BRANCH  29  32
ATOM     32  C   UNL     1      35.666 -21.545 -18.708  0.00  0.00    +0.145 C 
ATOM     33  C   UNL     1      34.471 -22.487 -18.617  0.00  0.00    +0.035 C 
BRANCH  32  34
ATOM     34  O   UNL     1      36.760 -22.134 -18.004  0.00  0.00    -0.382 OA
ATOM     35  H   UNL     1      37.596 -21.811 -18.377  0.00  0.00    +0.210 HD
ENDBRANCH  32  34
ENDBRANCH  29  32
ENDBRANCH  28  29
ENDBRANCH  24  28
ENDBRANCH   2  24
TORSDOF 11
ENDMDL
