MODEL 1
REMARK VINA RESULT:      -5.0      0.000      0.000
REMARK  Name = 6323491
REMARK  2 active torsions:
REMARK  status: ('A' for Active; 'I' for Inactive)
REMARK    1  A    between atoms: C_18  and  O_24
REMARK    2  A    between atoms: C_23  and  O_26
REMARK                            x       y       z     vdW  Elec       q    Type
REMARK                         _______ _______ _______ _____ _____    ______ ____
ROOT
ATOM      1 CL   UNL     1      32.400 -12.016 -25.013  0.00  0.00    -0.079 Cl
ATOM      2  O   UNL     1      32.394 -20.466 -21.147  0.00  0.00    -0.354 OA
ATOM      3  O   UNL     1      34.802 -17.556 -23.142  0.00  0.00    -0.449 OA
ATOM      4  O   UNL     1      35.740 -15.665 -22.224  0.00  0.00    -0.245 OA
ATOM      5  O   UNL     1      31.652 -12.977 -21.917  0.00  0.00    -0.296 OA
ATOM      6  C   UNL     1      33.163 -19.512 -21.870  0.00  0.00    +0.146 C 
ATOM      7  C   UNL     1      32.692 -19.251 -20.439  0.00  0.00    +0.142 C 
ATOM      8  C   UNL     1      34.607 -19.767 -22.134  0.00  0.00    +0.076 C 
ATOM      9  C   UNL     1      35.399 -18.440 -22.156  0.00  0.00    +0.172 C 
ATOM     10  C   UNL     1      31.923 -17.997 -20.403  0.00  0.00    +0.032 C 
ATOM     11  C   UNL     1      36.855 -18.698 -22.529  0.00  0.00    +0.047 C 
ATOM     12  C   UNL     1      32.525 -16.832 -20.115  0.00  0.00    +0.003 C 
ATOM     13  C   UNL     1      35.034 -16.215 -23.050  0.00  0.00    +0.344 C 
ATOM     14  C   UNL     1      34.283 -15.505 -24.129  0.00  0.00    +0.107 C 
ATOM     15  C   UNL     1      33.788 -14.186 -23.991  0.00  0.00    +0.008 C 
ATOM     16  C   UNL     1      32.079 -15.566 -20.646  0.00  0.00    +0.008 C 
ATOM     17  C   UNL     1      33.895 -13.328 -22.748  0.00  0.00    +0.092 C 
ATOM     18  C   UNL     1      34.102 -16.187 -25.347  0.00  0.00    +0.143 C 
ATOM     19  C   UNL     1      32.964 -14.566 -20.748  0.00  0.00    +0.065 C 
ATOM     20  C   UNL     1      32.732 -13.547 -21.797  0.00  0.00    +0.155 C 
ATOM     21  C   UNL     1      33.091 -13.618 -25.079  0.00  0.00    +0.088 C 
ATOM     22  C   UNL     1      33.417 -15.597 -26.408  0.00  0.00    +0.074 C 
ATOM     23  C   UNL     1      32.907 -14.313 -26.272  0.00  0.00    +0.147 C 
ENDROOT
BRANCH  18  24
ATOM     24  O   UNL     1      34.634 -17.421 -25.605  0.00  0.00    -0.505 OA
ATOM     25  H   UNL     1      34.079 -18.175 -25.625  0.00  0.00    +0.292 HD
ENDBRANCH  18  24
BRANCH  23  26
ATOM     26  O   UNL     1      32.240 -13.770 -27.331  0.00  0.00    -0.505 OA
ATOM     27  H   UNL     1      32.619 -13.799 -28.188  0.00  0.00    +0.292 HD
ENDBRANCH  23  26
TORSDOF 2
ENDMDL
MODEL 2
REMARK VINA RESULT:      -4.9      2.990      6.589
REMARK  Name = 6323491
REMARK  2 active torsions:
REMARK  status: ('A' for Active; 'I' for Inactive)
REMARK    1  A    between atoms: C_18  and  O_24
REMARK    2  A    between atoms: C_23  and  O_26
REMARK                            x       y       z     vdW  Elec       q    Type
REMARK                         _______ _______ _______ _____ _____    ______ ____
ROOT
ATOM      1 CL   UNL     1      32.569 -14.866 -19.164  0.00  0.00    -0.079 Cl
ATOM      2  O   UNL     1      36.012  -9.560 -25.971  0.00  0.00    -0.354 OA
ATOM      3  O   UNL     1      33.832 -13.130 -25.111  0.00  0.00    -0.449 OA
ATOM      4  O   UNL     1      31.608 -13.296 -24.537  0.00  0.00    -0.245 OA
ATOM      5  O   UNL     1      31.990 -11.680 -19.925  0.00  0.00    -0.296 OA
ATOM      6  C   UNL     1      35.345 -10.778 -25.663  0.00  0.00    +0.146 C 
ATOM      7  C   UNL     1      34.691  -9.417 -25.421  0.00  0.00    +0.142 C 
ATOM      8  C   UNL     1      34.842 -11.650 -26.762  0.00  0.00    +0.076 C 
ATOM      9  C   UNL     1      33.556 -12.387 -26.326  0.00  0.00    +0.172 C 
ATOM     10  C   UNL     1      34.291  -9.315 -24.009  0.00  0.00    +0.032 C 
ATOM     11  C   UNL     1      33.106 -13.355 -27.416  0.00  0.00    +0.047 C 
ATOM     12  C   UNL     1      33.052  -9.660 -23.621  0.00  0.00    +0.003 C 
ATOM     13  C   UNL     1      32.788 -13.500 -24.313  0.00  0.00    +0.344 C 
ATOM     14  C   UNL     1      33.311 -14.202 -23.103  0.00  0.00    +0.107 C 
ATOM     15  C   UNL     1      32.663 -14.167 -21.844  0.00  0.00    +0.008 C 
ATOM     16  C   UNL     1      32.761 -10.194 -22.312  0.00  0.00    +0.008 C 
ATOM     17  C   UNL     1      31.401 -13.396 -21.522  0.00  0.00    +0.092 C 
ATOM     18  C   UNL     1      34.489 -14.960 -23.253  0.00  0.00    +0.143 C 
ATOM     19  C   UNL     1      31.675 -10.963 -22.160  0.00  0.00    +0.065 C 
ATOM     20  C   UNL     1      31.694 -11.974 -21.079  0.00  0.00    +0.155 C 
ATOM     21  C   UNL     1      33.252 -14.868 -20.771  0.00  0.00    +0.088 C 
ATOM     22  C   UNL     1      35.043 -15.650 -22.175  0.00  0.00    +0.074 C 
ATOM     23  C   UNL     1      34.427 -15.600 -20.932  0.00  0.00    +0.147 C 
ENDROOT
BRANCH  18  24
ATOM     24  O   UNL     1      35.124 -15.133 -24.451  0.00  0.00    -0.505 OA
ATOM     25  H   UNL     1      35.858 -14.596 -24.675  0.00  0.00    +0.292 HD
ENDBRANCH  18  24
BRANCH  23  26
ATOM     26  O   UNL     1      35.000 -16.286 -19.902  0.00  0.00    -0.505 OA
ATOM     27  H   UNL     1      35.022 -17.223 -19.919  0.00  0.00    +0.292 HD
ENDBRANCH  23  26
TORSDOF 2
ENDMDL
MODEL 3
REMARK VINA RESULT:      -2.7      5.189      8.606
REMARK  Name = 6323491
REMARK  2 active torsions:
REMARK  status: ('A' for Active; 'I' for Inactive)
REMARK    1  A    between atoms: C_18  and  O_24
REMARK    2  A    between atoms: C_23  and  O_26
REMARK                            x       y       z     vdW  Elec       q    Type
REMARK                         _______ _______ _______ _____ _____    ______ ____
ROOT
ATOM      1 CL   UNL     1      34.463 -12.850 -25.236  0.00  0.00    -0.079 Cl
ATOM      2  O   UNL     1      32.764  -6.397 -18.770  0.00  0.00    -0.354 OA
ATOM      3  O   UNL     1      32.183  -7.450 -22.868  0.00  0.00    -0.449 OA
ATOM      4  O   UNL     1      30.640  -8.935 -23.715  0.00  0.00    -0.245 OA
ATOM      5  O   UNL     1      32.869 -13.074 -22.325  0.00  0.00    -0.296 OA
ATOM      6  C   UNL     1      32.637  -6.734 -20.146  0.00  0.00    +0.146 C 
ATOM      7  C   UNL     1      31.896  -7.507 -19.055  0.00  0.00    +0.142 C 
ATOM      8  C   UNL     1      31.873  -5.842 -21.063  0.00  0.00    +0.076 C 
ATOM      9  C   UNL     1      31.179  -6.667 -22.171  0.00  0.00    +0.172 C 
ATOM     10  C   UNL     1      32.235  -8.935 -19.156  0.00  0.00    +0.032 C 
ATOM     11  C   UNL     1      30.486  -5.740 -23.165  0.00  0.00    +0.047 C 
ATOM     12  C   UNL     1      31.468  -9.772 -19.873  0.00  0.00    +0.003 C 
ATOM     13  C   UNL     1      31.788  -8.549 -23.574  0.00  0.00    +0.344 C 
ATOM     14  C   UNL     1      32.986  -9.223 -24.158  0.00  0.00    +0.107 C 
ATOM     15  C   UNL     1      33.057 -10.618 -24.388  0.00  0.00    +0.008 C 
ATOM     16  C   UNL     1      31.993 -10.938 -20.543  0.00  0.00    +0.008 C 
ATOM     17  C   UNL     1      31.980 -11.626 -24.044  0.00  0.00    +0.092 C 
ATOM     18  C   UNL     1      34.073  -8.406 -24.525  0.00  0.00    +0.143 C 
ATOM     19  C   UNL     1      31.335 -11.418 -21.606  0.00  0.00    +0.065 C 
ATOM     20  C   UNL     1      32.118 -12.152 -22.627  0.00  0.00    +0.155 C 
ATOM     21  C   UNL     1      34.242 -11.143 -24.944  0.00  0.00    +0.088 C 
ATOM     22  C   UNL     1      35.228  -8.953 -25.081  0.00  0.00    +0.074 C 
ATOM     23  C   UNL     1      35.315 -10.323 -25.287  0.00  0.00    +0.147 C 
ENDROOT
BRANCH  18  24
ATOM     24  O   UNL     1      34.053  -7.042 -24.434  0.00  0.00    -0.505 OA
ATOM     25  H   UNL     1      33.237  -6.582 -24.471  0.00  0.00    +0.292 HD
ENDBRANCH  18  24
BRANCH  23  26
ATOM     26  O   UNL     1      36.463 -10.821 -25.831  0.00  0.00    -0.505 OA
ATOM     27  H   UNL     1      37.284 -10.682 -25.400  0.00  0.00    +0.292 HD
ENDBRANCH  23  26
TORSDOF 2
ENDMDL
MODEL 4
REMARK VINA RESULT:      -2.6      8.379     12.171
REMARK  Name = 6323491
REMARK  2 active torsions:
REMARK  status: ('A' for Active; 'I' for Inactive)
REMARK    1  A    between atoms: C_18  and  O_24
REMARK    2  A    between atoms: C_23  and  O_26
REMARK                            x       y       z     vdW  Elec       q    Type
REMARK                         _______ _______ _______ _____ _____    ______ ____
ROOT
ATOM      1 CL   UNL     1      39.762 -25.571 -14.295  0.00  0.00    -0.079 Cl
ATOM      2  O   UNL     1      32.774 -22.780 -19.747  0.00  0.00    -0.354 OA
ATOM      3  O   UNL     1      33.883 -23.748 -15.738  0.00  0.00    -0.449 OA
ATOM      4  O   UNL     1      35.040 -22.417 -14.257  0.00  0.00    -0.245 OA
ATOM      5  O   UNL     1      39.487 -22.902 -16.261  0.00  0.00    -0.296 OA
ATOM      6  C   UNL     1      33.145 -23.169 -18.430  0.00  0.00    +0.146 C 
ATOM      7  C   UNL     1      33.683 -21.892 -19.075  0.00  0.00    +0.142 C 
ATOM      8  C   UNL     1      32.156 -23.072 -17.319  0.00  0.00    +0.076 C 
ATOM      9  C   UNL     1      32.866 -22.742 -15.987  0.00  0.00    +0.172 C 
ATOM     10  C   UNL     1      35.154 -21.922 -19.060  0.00  0.00    +0.032 C 
ATOM     11  C   UNL     1      31.863 -22.747 -14.838  0.00  0.00    +0.047 C 
ATOM     12  C   UNL     1      35.840 -21.362 -18.051  0.00  0.00    +0.003 C 
ATOM     13  C   UNL     1      34.904 -23.454 -14.882  0.00  0.00    +0.344 C 
ATOM     14  C   UNL     1      35.850 -24.608 -14.821  0.00  0.00    +0.107 C 
ATOM     15  C   UNL     1      37.238 -24.463 -14.579  0.00  0.00    +0.008 C 
ATOM     16  C   UNL     1      37.124 -21.851 -17.609  0.00  0.00    +0.008 C 
ATOM     17  C   UNL     1      37.970 -23.150 -14.396  0.00  0.00    +0.092 C 
ATOM     18  C   UNL     1      35.308 -25.898 -14.980  0.00  0.00    +0.143 C 
ATOM     19  C   UNL     1      37.504 -21.609 -16.348  0.00  0.00    +0.065 C 
ATOM     20  C   UNL     1      38.440 -22.566 -15.715  0.00  0.00    +0.155 C 
ATOM     21  C   UNL     1      38.035 -25.627 -14.546  0.00  0.00    +0.088 C 
ATOM     22  C   UNL     1      36.120 -27.031 -14.933  0.00  0.00    +0.074 C 
ATOM     23  C   UNL     1      37.485 -26.895 -14.721  0.00  0.00    +0.147 C 
ENDROOT
BRANCH  18  24
ATOM     24  O   UNL     1      33.969 -26.140 -15.116  0.00  0.00    -0.505 OA
ATOM     25  H   UNL     1      33.537 -25.941 -15.923  0.00  0.00    +0.292 HD
ENDBRANCH  18  24
BRANCH  23  26
ATOM     26  O   UNL     1      38.246 -28.026 -14.684  0.00  0.00    -0.505 OA
ATOM     27  H   UNL     1      37.985 -28.749 -14.147  0.00  0.00    +0.292 HD
ENDBRANCH  23  26
TORSDOF 2
ENDMDL
MODEL 5
REMARK VINA RESULT:      -2.5      5.848      9.759
REMARK  Name = 6323491
REMARK  2 active torsions:
REMARK  status: ('A' for Active; 'I' for Inactive)
REMARK    1  A    between atoms: C_18  and  O_24
REMARK    2  A    between atoms: C_23  and  O_26
REMARK                            x       y       z     vdW  Elec       q    Type
REMARK                         _______ _______ _______ _____ _____    ______ ____
ROOT
ATOM      1 CL   UNL     1      34.239 -12.741 -24.704  0.00  0.00    -0.079 Cl
ATOM      2  O   UNL     1      30.321  -4.341 -24.064  0.00  0.00    -0.354 OA
ATOM      3  O   UNL     1      32.206  -7.475 -21.860  0.00  0.00    -0.449 OA
ATOM      4  O   UNL     1      34.462  -7.914 -21.722  0.00  0.00    -0.245 OA
ATOM      5  O   UNL     1      35.031  -9.868 -26.182  0.00  0.00    -0.296 OA
ATOM      6  C   UNL     1      30.891  -5.422 -23.338  0.00  0.00    +0.146 C 
ATOM      7  C   UNL     1      31.722  -4.566 -24.294  0.00  0.00    +0.142 C 
ATOM      8  C   UNL     1      31.105  -5.300 -21.868  0.00  0.00    +0.076 C 
ATOM      9  C   UNL     1      32.357  -6.095 -21.433  0.00  0.00    +0.172 C 
ATOM     10  C   UNL     1      32.359  -5.436 -25.295  0.00  0.00    +0.032 C 
ATOM     11  C   UNL     1      32.510  -6.052 -19.916  0.00  0.00    +0.047 C 
ATOM     12  C   UNL     1      33.599  -5.912 -25.098  0.00  0.00    +0.003 C 
ATOM     13  C   UNL     1      33.320  -8.254 -21.978  0.00  0.00    +0.344 C 
ATOM     14  C   UNL     1      32.931  -9.607 -22.476  0.00  0.00    +0.107 C 
ATOM     15  C   UNL     1      33.779 -10.414 -23.274  0.00  0.00    +0.008 C 
ATOM     16  C   UNL     1      34.044  -7.183 -25.620  0.00  0.00    +0.008 C 
ATOM     17  C   UNL     1      35.155 -10.025 -23.773  0.00  0.00    +0.092 C 
ATOM     18  C   UNL     1      31.669 -10.099 -22.093  0.00  0.00    +0.143 C 
ATOM     19  C   UNL     1      35.048  -7.815 -25.000  0.00  0.00    +0.065 C 
ATOM     20  C   UNL     1      35.098  -9.292 -25.100  0.00  0.00    +0.155 C 
ATOM     21  C   UNL     1      33.302 -11.675 -23.688  0.00  0.00    +0.088 C 
ATOM     22  C   UNL     1      31.229 -11.354 -22.510  0.00  0.00    +0.074 C 
ATOM     23  C   UNL     1      32.044 -12.141 -23.312  0.00  0.00    +0.147 C 
ENDROOT
BRANCH  18  24
ATOM     24  O   UNL     1      30.828  -9.434 -21.243  0.00  0.00    -0.505 OA
ATOM     25  H   UNL     1      30.241  -9.914 -20.694  0.00  0.00    +0.292 HD
ENDBRANCH  18  24
BRANCH  23  26
ATOM     26  O   UNL     1      31.578 -13.362 -23.702  0.00  0.00    -0.505 OA
ATOM     27  H   UNL     1      30.947 -13.813 -23.175  0.00  0.00    +0.292 HD
ENDBRANCH  23  26
TORSDOF 2
ENDMDL
MODEL 6
REMARK VINA RESULT:      -2.4      8.797     11.961
REMARK  Name = 6323491
REMARK  2 active torsions:
REMARK  status: ('A' for Active; 'I' for Inactive)
REMARK    1  A    between atoms: C_18  and  O_24
REMARK    2  A    between atoms: C_23  and  O_26
REMARK                            x       y       z     vdW  Elec       q    Type
REMARK                         _______ _______ _______ _____ _____    ______ ____
ROOT
ATOM      1 CL   UNL     1      30.871 -22.512 -17.550  0.00  0.00    -0.079 Cl
ATOM      2  O   UNL     1      38.339 -22.474 -12.022  0.00  0.00    -0.354 OA
ATOM      3  O   UNL     1      35.366 -24.948 -13.832  0.00  0.00    -0.449 OA
ATOM      4  O   UNL     1      35.317 -25.692 -16.011  0.00  0.00    -0.245 OA
ATOM      5  O   UNL     1      33.979 -21.476 -18.123  0.00  0.00    -0.296 OA
ATOM      6  C   UNL     1      37.302 -23.272 -12.580  0.00  0.00    +0.146 C 
ATOM      7  C   UNL     1      38.388 -22.636 -13.449  0.00  0.00    +0.142 C 
ATOM      8  C   UNL     1      37.302 -24.747 -12.366  0.00  0.00    +0.076 C 
ATOM      9  C   UNL     1      36.697 -25.474 -13.588  0.00  0.00    +0.172 C 
ATOM     10  C   UNL     1      37.755 -21.811 -14.489  0.00  0.00    +0.032 C 
ATOM     11  C   UNL     1      36.604 -26.972 -13.320  0.00  0.00    +0.047 C 
ATOM     12  C   UNL     1      37.485 -22.323 -15.701  0.00  0.00    +0.003 C 
ATOM     13  C   UNL     1      34.811 -25.107 -15.069  0.00  0.00    +0.344 C 
ATOM     14  C   UNL     1      33.472 -24.447 -15.103  0.00  0.00    +0.107 C 
ATOM     15  C   UNL     1      32.916 -23.878 -16.274  0.00  0.00    +0.008 C 
ATOM     16  C   UNL     1      36.375 -21.880 -16.510  0.00  0.00    +0.008 C 
ATOM     17  C   UNL     1      33.590 -23.809 -17.628  0.00  0.00    +0.092 C 
ATOM     18  C   UNL     1      32.728 -24.431 -13.907  0.00  0.00    +0.143 C 
ATOM     19  C   UNL     1      35.865 -22.723 -17.418  0.00  0.00    +0.065 C 
ATOM     20  C   UNL     1      34.440 -22.561 -17.783  0.00  0.00    +0.155 C 
ATOM     21  C   UNL     1      31.642 -23.279 -16.185  0.00  0.00    +0.088 C 
ATOM     22  C   UNL     1      31.467 -23.840 -13.851  0.00  0.00    +0.074 C 
ATOM     23  C   UNL     1      30.925 -23.259 -14.990  0.00  0.00    +0.147 C 
ENDROOT
BRANCH  18  24
ATOM     24  O   UNL     1      33.141 -25.044 -12.756  0.00  0.00    -0.505 OA
ATOM     25  H   UNL     1      32.662 -24.919 -11.961  0.00  0.00    +0.292 HD
ENDBRANCH  18  24
BRANCH  23  26
ATOM     26  O   UNL     1      29.690 -22.688 -14.895  0.00  0.00    -0.505 OA
ATOM     27  H   UNL     1      29.362 -22.418 -14.060  0.00  0.00    +0.292 HD
ENDBRANCH  23  26
TORSDOF 2
ENDMDL
MODEL 7
REMARK VINA RESULT:      -2.3      9.067     12.009
REMARK  Name = 6323491
REMARK  2 active torsions:
REMARK  status: ('A' for Active; 'I' for Inactive)
REMARK    1  A    between atoms: C_18  and  O_24
REMARK    2  A    between atoms: C_23  and  O_26
REMARK                            x       y       z     vdW  Elec       q    Type
REMARK                         _______ _______ _______ _____ _____    ______ ____
ROOT
ATOM      1 CL   UNL     1      29.611 -23.322 -14.477  0.00  0.00    -0.079 Cl
ATOM      2  O   UNL     1      38.537 -21.318 -16.108  0.00  0.00    -0.354 OA
ATOM      3  O   UNL     1      35.853 -24.306 -14.657  0.00  0.00    -0.449 OA
ATOM      4  O   UNL     1      34.550 -25.731 -15.912  0.00  0.00    -0.245 OA
ATOM      5  O   UNL     1      31.156 -22.476 -17.299  0.00  0.00    -0.296 OA
ATOM      6  C   UNL     1      37.634 -22.275 -15.568  0.00  0.00    +0.146 C 
ATOM      7  C   UNL     1      37.659 -21.943 -17.060  0.00  0.00    +0.142 C 
ATOM      8  C   UNL     1      38.142 -23.595 -15.100  0.00  0.00    +0.076 C 
ATOM      9  C   UNL     1      37.082 -24.697 -15.325  0.00  0.00    +0.172 C 
ATOM     10  C   UNL     1      36.316 -21.519 -17.486  0.00  0.00    +0.032 C 
ATOM     11  C   UNL     1      37.567 -26.024 -14.750  0.00  0.00    +0.047 C 
ATOM     12  C   UNL     1      35.445 -22.409 -17.989  0.00  0.00    +0.003 C 
ATOM     13  C   UNL     1      34.678 -24.876 -15.053  0.00  0.00    +0.344 C 
ATOM     14  C   UNL     1      33.551 -24.289 -14.268  0.00  0.00    +0.107 C 
ATOM     15  C   UNL     1      32.238 -24.151 -14.779  0.00  0.00    +0.008 C 
ATOM     16  C   UNL     1      34.015 -22.280 -17.838  0.00  0.00    +0.008 C 
ATOM     17  C   UNL     1      31.792 -24.521 -16.178  0.00  0.00    +0.092 C 
ATOM     18  C   UNL     1      33.823 -23.893 -12.944  0.00  0.00    +0.143 C 
ATOM     19  C   UNL     1      33.261 -23.385 -17.895  0.00  0.00    +0.065 C 
ATOM     20  C   UNL     1      31.975 -23.380 -17.161  0.00  0.00    +0.155 C 
ATOM     21  C   UNL     1      31.254 -23.579 -13.945  0.00  0.00    +0.088 C 
ATOM     22  C   UNL     1      32.827 -23.339 -12.140  0.00  0.00    +0.074 C 
ATOM     23  C   UNL     1      31.543 -23.178 -12.642  0.00  0.00    +0.147 C 
ENDROOT
BRANCH  18  24
ATOM     24  O   UNL     1      35.033 -24.082 -12.335  0.00  0.00    -0.505 OA
ATOM     25  H   UNL     1      35.619 -23.360 -12.224  0.00  0.00    +0.292 HD
ENDBRANCH  18  24
BRANCH  23  26
ATOM     26  O   UNL     1      30.597 -22.631 -11.826  0.00  0.00    -0.505 OA
ATOM     27  H   UNL     1      30.854 -22.201 -11.034  0.00  0.00    +0.292 HD
ENDBRANCH  23  26
TORSDOF 2
ENDMDL
MODEL 8
REMARK VINA RESULT:      -2.2      4.608      8.267
REMARK  Name = 6323491
REMARK  2 active torsions:
REMARK  status: ('A' for Active; 'I' for Inactive)
REMARK    1  A    between atoms: C_18  and  O_24
REMARK    2  A    between atoms: C_23  and  O_26
REMARK                            x       y       z     vdW  Elec       q    Type
REMARK                         _______ _______ _______ _____ _____    ______ ____
ROOT
ATOM      1 CL   UNL     1      33.098 -14.800 -21.105  0.00  0.00    -0.079 Cl
ATOM      2  O   UNL     1      33.347  -5.528 -21.656  0.00  0.00    -0.354 OA
ATOM      3  O   UNL     1      31.769  -9.076 -23.434  0.00  0.00    -0.449 OA
ATOM      4  O   UNL     1      29.983 -10.325 -22.693  0.00  0.00    -0.245 OA
ATOM      5  O   UNL     1      32.211 -12.479 -18.894  0.00  0.00    -0.296 OA
ATOM      6  C   UNL     1      32.885  -6.723 -22.272  0.00  0.00    +0.146 C 
ATOM      7  C   UNL     1      32.370  -6.270 -20.907  0.00  0.00    +0.142 C 
ATOM      8  C   UNL     1      31.986  -6.648 -23.459  0.00  0.00    +0.076 C 
ATOM      9  C   UNL     1      31.005  -7.842 -23.474  0.00  0.00    +0.172 C 
ATOM     10  C   UNL     1      32.587  -7.344 -19.925  0.00  0.00    +0.032 C 
ATOM     11  C   UNL     1      30.160  -7.816 -24.744  0.00  0.00    +0.047 C 
ATOM     12  C   UNL     1      31.624  -8.245 -19.671  0.00  0.00    +0.003 C 
ATOM     13  C   UNL     1      31.153 -10.219 -23.015  0.00  0.00    +0.344 C 
ATOM     14  C   UNL     1      32.139 -11.341 -23.006  0.00  0.00    +0.107 C 
ATOM     15  C   UNL     1      32.068 -12.430 -22.103  0.00  0.00    +0.008 C 
ATOM     16  C   UNL     1      31.906  -9.604 -19.274  0.00  0.00    +0.008 C 
ATOM     17  C   UNL     1      31.040 -12.601 -21.005  0.00  0.00    +0.092 C 
ATOM     18  C   UNL     1      33.161 -11.312 -23.975  0.00  0.00    +0.143 C 
ATOM     19  C   UNL     1      30.991 -10.549 -19.525  0.00  0.00    +0.065 C 
ATOM     20  C   UNL     1      31.469 -11.938 -19.709  0.00  0.00    +0.155 C 
ATOM     21  C   UNL     1      33.058 -13.432 -22.188  0.00  0.00    +0.088 C 
ATOM     22  C   UNL     1      34.120 -12.322 -24.040  0.00  0.00    +0.074 C 
ATOM     23  C   UNL     1      34.072 -13.380 -23.143  0.00  0.00    +0.147 C 
ENDROOT
BRANCH  18  24
ATOM     24  O   UNL     1      33.247 -10.356 -24.949  0.00  0.00    -0.505 OA
ATOM     25  H   UNL     1      34.043  -9.876 -25.065  0.00  0.00    +0.292 HD
ENDBRANCH  18  24
BRANCH  23  26
ATOM     26  O   UNL     1      35.029 -14.347 -23.236  0.00  0.00    -0.505 OA
ATOM     27  H   UNL     1      34.781 -15.251 -23.248  0.00  0.00    +0.292 HD
ENDBRANCH  23  26
TORSDOF 2
ENDMDL
