MODEL 1
REMARK VINA RESULT:     -11.0      0.000      0.000
REMARK  Name = 156414
REMARK  8 active torsions:
REMARK  status: ('A' for Active; 'I' for Inactive)
REMARK    1  A    between atoms: N_1  and  C_15
REMARK    2  A    between atoms: C_4  and  O_27
REMARK    3  A    between atoms: C_5  and  N_22
REMARK    4  A    between atoms: C_23  and  C_25
REMARK    5  A    between atoms: O_27  and  C_28
REMARK    6  A    between atoms: C_28  and  C_29
REMARK    7  A    between atoms: C_29  and  C_30
REMARK    8  A    between atoms: C_30  and  N_32
REMARK                            x       y       z     vdW  Elec       q    Type
REMARK                         _______ _______ _______ _____ _____    ______ ____
ROOT
ATOM      1  N   UNL     1      34.537 -17.540 -21.560  0.00  0.00    -0.301 N 
ATOM      2  N   UNL     1      34.155 -16.124 -25.430  0.00  0.00    -0.248 NA
ATOM      3  N   UNL     1      34.694 -17.890 -23.881  0.00  0.00    -0.233 NA
ATOM      4  C   UNL     1      33.157 -13.122 -23.587  0.00  0.00    +0.153 C 
ATOM      5  C   UNL     1      33.272 -13.554 -22.270  0.00  0.00    +0.081 C 
ATOM      6  C   UNL     1      33.984 -15.726 -23.071  0.00  0.00    +0.117 C 
ATOM      7  C   UNL     1      33.457 -13.993 -24.639  0.00  0.00    +0.053 C 
ATOM      8  C   UNL     1      33.872 -15.301 -24.406  0.00  0.00    +0.070 C 
ATOM      9  C   UNL     1      33.685 -14.856 -22.009  0.00  0.00    +0.005 C 
ATOM     10  C   UNL     1      34.402 -17.040 -22.879  0.00  0.00    +0.115 C 
ATOM     11  C   UNL     1      34.551 -17.374 -25.113  0.00  0.00    +0.251 C 
ATOM     12  H   UNL     1      34.777 -16.852 -20.897  0.00  0.00    +0.153 HD
ENDROOT
BRANCH   1  15
ATOM     13 CL   UNL     1      36.788 -21.736 -19.672  0.00  0.00    -0.080 Cl
ATOM     14  F   UNL     1      33.967 -22.610 -19.416  0.00  0.00    -0.203 F 
ATOM     15  C   UNL     1      34.397 -18.826 -21.015  0.00  0.00    +0.050 C 
ATOM     16  C   UNL     1      35.528 -19.559 -20.655  0.00  0.00    +0.028 C 
ATOM     17  C   UNL     1      33.126 -19.372 -20.836  0.00  0.00    +0.017 C 
ATOM     18  C   UNL     1      35.389 -20.837 -20.115  0.00  0.00    +0.086 C 
ATOM     19  C   UNL     1      32.987 -20.651 -20.295  0.00  0.00    +0.032 C 
ATOM     20  C   UNL     1      34.117 -21.383 -19.934  0.00  0.00    +0.151 C 
ENDBRANCH   1  15
BRANCH   5  22
ATOM     21  O   UNL     1      30.762 -12.027 -21.641  0.00  0.00    -0.270 OA
ATOM     22  N   UNL     1      32.976 -12.697 -21.207  0.00  0.00    -0.278 N 
ATOM     23  C   UNL     1      31.783 -12.008 -20.961  0.00  0.00    +0.250 C 
ATOM     24  H   UNL     1      33.697 -12.562 -20.549  0.00  0.00    +0.155 HD
BRANCH  23  25
ATOM     25  C   UNL     1      31.866 -11.192 -19.715  0.00  0.00    +0.058 C 
ATOM     26  C   UNL     1      30.815 -10.480 -19.296  0.00  0.00    +0.005 C 
ENDBRANCH  23  25
ENDBRANCH   5  22
BRANCH   4  27
ATOM     27  O   UNL     1      32.752 -11.845 -23.877  0.00  0.00    -0.474 OA
BRANCH  27  28
ATOM     28  C   UNL     1      33.768 -10.910 -24.212  0.00  0.00    +0.203 C 
BRANCH  28  29
ATOM     29  C   UNL     1      33.465  -9.586 -23.523  0.00  0.00    +0.025 C 
BRANCH  29  30
ATOM     30  C   UNL     1      31.973  -9.271 -23.547  0.00  0.00    -0.073 C 
BRANCH  30  32
ATOM     31  O   UNL     1      32.090  -5.909 -21.038  0.00  0.00    -0.358 OA
ATOM     32  N   UNL     1      31.640  -8.313 -22.495  0.00  0.00    +0.390 N 
ATOM     33  C   UNL     1      31.330  -6.996 -23.069  0.00  0.00    -0.045 C 
ATOM     34  C   UNL     1      32.742  -8.194 -21.531  0.00  0.00    -0.045 C 
ATOM     35  C   UNL     1      30.999  -6.009 -21.954  0.00  0.00    +0.119 C 
ATOM     36  C   UNL     1      32.377  -7.180 -20.450  0.00  0.00    +0.119 C 
ATOM     37  H   UNL     1      30.814  -8.658 -22.006  0.00  0.00    -0.079 HD
ENDBRANCH  30  32
ENDBRANCH  29  30
ENDBRANCH  28  29
ENDBRANCH  27  28
ENDBRANCH   4  27
TORSDOF 8
ENDMDL
MODEL 2
REMARK VINA RESULT:     -10.6      8.546     13.832
REMARK  Name = 156414
REMARK  8 active torsions:
REMARK  status: ('A' for Active; 'I' for Inactive)
REMARK    1  A    between atoms: N_1  and  C_15
REMARK    2  A    between atoms: C_4  and  O_27
REMARK    3  A    between atoms: C_5  and  N_22
REMARK    4  A    between atoms: C_23  and  C_25
REMARK    5  A    between atoms: O_27  and  C_28
REMARK    6  A    between atoms: C_28  and  C_29
REMARK    7  A    between atoms: C_29  and  C_30
REMARK    8  A    between atoms: C_30  and  N_32
REMARK                            x       y       z     vdW  Elec       q    Type
REMARK                         _______ _______ _______ _____ _____    ______ ____
ROOT
ATOM      1  N   UNL     1      34.695 -21.982 -18.723  0.00  0.00    -0.301 N 
ATOM      2  N   UNL     1      37.445 -22.197 -15.638  0.00  0.00    -0.248 NA
ATOM      3  N   UNL     1      36.845 -21.535 -17.876  0.00  0.00    -0.233 NA
ATOM      4  C   UNL     1      34.605 -23.861 -14.034  0.00  0.00    +0.153 C 
ATOM      5  C   UNL     1      33.649 -23.812 -15.042  0.00  0.00    +0.081 C 
ATOM      6  C   UNL     1      35.244 -22.672 -16.464  0.00  0.00    +0.117 C 
ATOM      7  C   UNL     1      35.875 -23.317 -14.245  0.00  0.00    +0.053 C 
ATOM      8  C   UNL     1      36.219 -22.716 -15.453  0.00  0.00    +0.070 C 
ATOM      9  C   UNL     1      33.965 -23.217 -16.260  0.00  0.00    +0.005 C 
ATOM     10  C   UNL     1      35.625 -22.064 -17.657  0.00  0.00    +0.115 C 
ATOM     11  C   UNL     1      37.692 -21.636 -16.839  0.00  0.00    +0.251 C 
ATOM     12  H   UNL     1      34.045 -22.721 -18.741  0.00  0.00    +0.153 HD
ENDROOT
BRANCH   1  15
ATOM     13 CL   UNL     1      36.834 -18.753 -22.076  0.00  0.00    -0.080 Cl
ATOM     14  F   UNL     1      33.995 -18.311 -22.805  0.00  0.00    -0.203 F 
ATOM     15  C   UNL     1      34.522 -21.050 -19.759  0.00  0.00    +0.050 C 
ATOM     16  C   UNL     1      35.632 -20.435 -20.337  0.00  0.00    +0.028 C 
ATOM     17  C   UNL     1      33.239 -20.739 -20.209  0.00  0.00    +0.017 C 
ATOM     18  C   UNL     1      35.460 -19.509 -21.366  0.00  0.00    +0.086 C 
ATOM     19  C   UNL     1      33.067 -19.813 -21.239  0.00  0.00    +0.032 C 
ATOM     20  C   UNL     1      34.176 -19.199 -21.817  0.00  0.00    +0.151 C 
ENDBRANCH   1  15
BRANCH   5  22
ATOM     21  O   UNL     1      31.011 -22.451 -14.579  0.00  0.00    -0.270 OA
ATOM     22  N   UNL     1      32.375 -24.350 -14.848  0.00  0.00    -0.278 N 
ATOM     23  C   UNL     1      31.172 -23.665 -14.636  0.00  0.00    +0.250 C 
ATOM     24  H   UNL     1      32.315 -25.334 -14.863  0.00  0.00    +0.155 HD
BRANCH  23  25
ATOM     25  C   UNL     1      30.025 -24.606 -14.473  0.00  0.00    +0.058 C 
ATOM     26  C   UNL     1      28.963 -24.530 -15.281  0.00  0.00    +0.005 C 
ENDBRANCH  23  25
ENDBRANCH   5  22
BRANCH   4  27
ATOM     27  O   UNL     1      34.323 -24.439 -12.823  0.00  0.00    -0.474 OA
BRANCH  27  28
ATOM     28  C   UNL     1      35.021 -23.934 -11.694  0.00  0.00    +0.203 C 
BRANCH  28  29
ATOM     29  C   UNL     1      35.931 -25.028 -11.148  0.00  0.00    +0.025 C 
BRANCH  29  30
ATOM     30  C   UNL     1      37.389 -24.783 -11.525  0.00  0.00    -0.073 C 
BRANCH  30  32
ATOM     31  O   UNL     1      38.820 -26.857 -14.881  0.00  0.00    -0.358 OA
ATOM     32  N   UNL     1      37.629 -25.184 -12.909  0.00  0.00    +0.390 N 
ATOM     33  C   UNL     1      37.153 -26.554 -13.144  0.00  0.00    -0.045 C 
ATOM     34  C   UNL     1      39.056 -25.084 -13.241  0.00  0.00    -0.045 C 
ATOM     35  C   UNL     1      37.425 -26.956 -14.591  0.00  0.00    +0.119 C 
ATOM     36  C   UNL     1      39.284 -25.519 -14.686  0.00  0.00    +0.119 C 
ATOM     37  H   UNL     1      37.108 -24.550 -13.515  0.00  0.00    -0.079 HD
ENDBRANCH  30  32
ENDBRANCH  29  30
ENDBRANCH  28  29
ENDBRANCH  27  28
ENDBRANCH   4  27
TORSDOF 8
ENDMDL
MODEL 3
REMARK VINA RESULT:     -10.4      1.673      2.124
REMARK  Name = 156414
REMARK  8 active torsions:
REMARK  status: ('A' for Active; 'I' for Inactive)
REMARK    1  A    between atoms: N_1  and  C_15
REMARK    2  A    between atoms: C_4  and  O_27
REMARK    3  A    between atoms: C_5  and  N_22
REMARK    4  A    between atoms: C_23  and  C_25
REMARK    5  A    between atoms: O_27  and  C_28
REMARK    6  A    between atoms: C_28  and  C_29
REMARK    7  A    between atoms: C_29  and  C_30
REMARK    8  A    between atoms: C_30  and  N_32
REMARK                            x       y       z     vdW  Elec       q    Type
REMARK                         _______ _______ _______ _____ _____    ______ ____
ROOT
ATOM      1  N   UNL     1      35.219 -18.005 -21.712  0.00  0.00    -0.301 N 
ATOM      2  N   UNL     1      34.570 -17.397 -25.754  0.00  0.00    -0.248 NA
ATOM      3  N   UNL     1      35.376 -18.758 -23.936  0.00  0.00    -0.233 NA
ATOM      4  C   UNL     1      33.208 -14.261 -24.445  0.00  0.00    +0.153 C 
ATOM      5  C   UNL     1      33.406 -14.421 -23.078  0.00  0.00    +0.081 C 
ATOM      6  C   UNL     1      34.393 -16.592 -23.502  0.00  0.00    +0.117 C 
ATOM      7  C   UNL     1      33.603 -15.265 -25.333  0.00  0.00    +0.053 C 
ATOM      8  C   UNL     1      34.197 -16.442 -24.885  0.00  0.00    +0.070 C 
ATOM      9  C   UNL     1      33.999 -15.587 -22.603  0.00  0.00    +0.005 C 
ATOM     10  C   UNL     1      34.990 -17.781 -23.092  0.00  0.00    +0.115 C 
ATOM     11  C   UNL     1      35.139 -18.503 -25.233  0.00  0.00    +0.251 C 
ATOM     12  H   UNL     1      35.375 -17.180 -21.197  0.00  0.00    +0.153 HD
ENDROOT
BRANCH   1  15
ATOM     13 CL   UNL     1      32.665 -21.691 -19.236  0.00  0.00    -0.080 Cl
ATOM     14  F   UNL     1      35.423 -22.615 -18.657  0.00  0.00    -0.203 F 
ATOM     15  C   UNL     1      35.266 -19.174 -20.937  0.00  0.00    +0.050 C 
ATOM     16  C   UNL     1      34.083 -19.783 -20.519  0.00  0.00    +0.028 C 
ATOM     17  C   UNL     1      36.497 -19.727 -20.584  0.00  0.00    +0.017 C 
ATOM     18  C   UNL     1      34.130 -20.945 -19.748  0.00  0.00    +0.086 C 
ATOM     19  C   UNL     1      36.544 -20.890 -19.814  0.00  0.00    +0.032 C 
ATOM     20  C   UNL     1      35.361 -21.498 -19.396  0.00  0.00    +0.151 C 
ENDBRANCH   1  15
BRANCH   5  22
ATOM     21  O   UNL     1      32.343 -14.643 -20.278  0.00  0.00    -0.270 OA
ATOM     22  N   UNL     1      33.018 -13.427 -22.176  0.00  0.00    -0.278 N 
ATOM     23  C   UNL     1      32.527 -13.588 -20.875  0.00  0.00    +0.250 C 
ATOM     24  H   UNL     1      33.101 -12.499 -22.496  0.00  0.00    +0.155 HD
BRANCH  23  25
ATOM     25  C   UNL     1      32.225 -12.275 -20.235  0.00  0.00    +0.058 C 
ATOM     26  C   UNL     1      31.215 -11.518 -20.676  0.00  0.00    +0.005 C 
ENDBRANCH  23  25
ENDBRANCH   5  22
BRANCH   4  27
ATOM     27  O   UNL     1      32.626 -13.124 -24.944  0.00  0.00    -0.474 OA
BRANCH  27  28
ATOM     28  C   UNL     1      33.450 -12.274 -25.730  0.00  0.00    +0.203 C 
BRANCH  28  29
ATOM     29  C   UNL     1      34.060 -11.209 -24.828  0.00  0.00    +0.025 C 
BRANCH  29  30
ATOM     30  C   UNL     1      33.078 -10.756 -23.752  0.00  0.00    -0.073 C 
BRANCH  30  32
ATOM     31  O   UNL     1      33.714  -6.612 -23.932  0.00  0.00    -0.358 OA
ATOM     32  N   UNL     1      33.357  -9.377 -23.358  0.00  0.00    +0.390 N 
ATOM     33  C   UNL     1      32.217  -8.504 -23.673  0.00  0.00    -0.045 C 
ATOM     34  C   UNL     1      34.569  -8.881 -24.023  0.00  0.00    -0.045 C 
ATOM     35  C   UNL     1      32.536  -7.069 -23.266  0.00  0.00    +0.119 C 
ATOM     36  C   UNL     1      34.834  -7.436 -23.606  0.00  0.00    +0.119 C 
ATOM     37  H   UNL     1      33.509  -9.364 -22.350  0.00  0.00    -0.079 HD
ENDBRANCH  30  32
ENDBRANCH  29  30
ENDBRANCH  28  29
ENDBRANCH  27  28
ENDBRANCH   4  27
TORSDOF 8
ENDMDL
MODEL 4
REMARK VINA RESULT:     -10.3      5.379     11.014
REMARK  Name = 156414
REMARK  8 active torsions:
REMARK  status: ('A' for Active; 'I' for Inactive)
REMARK    1  A    between atoms: N_1  and  C_15
REMARK    2  A    between atoms: C_4  and  O_27
REMARK    3  A    between atoms: C_5  and  N_22
REMARK    4  A    between atoms: C_23  and  C_25
REMARK    5  A    between atoms: O_27  and  C_28
REMARK    6  A    between atoms: C_28  and  C_29
REMARK    7  A    between atoms: C_29  and  C_30
REMARK    8  A    between atoms: C_30  and  N_32
REMARK                            x       y       z     vdW  Elec       q    Type
REMARK                         _______ _______ _______ _____ _____    ______ ____
ROOT
ATOM      1  N   UNL     1      32.641  -7.548 -23.531  0.00  0.00    -0.301 N 
ATOM      2  N   UNL     1      31.980  -8.602 -19.584  0.00  0.00    -0.248 NA
ATOM      3  N   UNL     1      32.401  -6.935 -21.272  0.00  0.00    -0.233 NA
ATOM      4  C   UNL     1      31.817 -11.917 -21.130  0.00  0.00    +0.153 C 
ATOM      5  C   UNL     1      32.036 -11.610 -22.468  0.00  0.00    +0.081 C 
ATOM      6  C   UNL     1      32.219  -9.269 -21.875  0.00  0.00    +0.117 C 
ATOM      7  C   UNL     1      31.801 -10.900 -20.171  0.00  0.00    +0.053 C 
ATOM      8  C   UNL     1      31.999  -9.566 -20.520  0.00  0.00    +0.070 C 
ATOM      9  C   UNL     1      32.237 -10.286 -22.845  0.00  0.00    +0.005 C 
ATOM     10  C   UNL     1      32.413  -7.925 -22.184  0.00  0.00    +0.115 C 
ATOM     11  C   UNL     1      32.182  -7.338 -20.010  0.00  0.00    +0.251 C 
ATOM     12  H   UNL     1      33.093  -8.240 -24.066  0.00  0.00    +0.153 HD
ENDROOT
BRANCH   1  15
ATOM     13 CL   UNL     1      34.029  -4.197 -27.148  0.00  0.00    -0.080 Cl
ATOM     14  F   UNL     1      31.466  -2.935 -26.354  0.00  0.00    -0.203 F 
ATOM     15  C   UNL     1      32.346  -6.379 -24.250  0.00  0.00    +0.050 C 
ATOM     16  C   UNL     1      33.229  -5.920 -25.228  0.00  0.00    +0.028 C 
ATOM     17  C   UNL     1      31.172  -5.675 -23.984  0.00  0.00    +0.017 C 
ATOM     18  C   UNL     1      32.937  -4.757 -25.941  0.00  0.00    +0.086 C 
ATOM     19  C   UNL     1      30.879  -4.512 -24.698  0.00  0.00    +0.032 C 
ATOM     20  C   UNL     1      31.761  -4.054 -25.676  0.00  0.00    +0.151 C 
ENDBRANCH   1  15
BRANCH   5  22
ATOM     21  O   UNL     1      34.304 -13.307 -23.469  0.00  0.00    -0.270 OA
ATOM     22  N   UNL     1      32.055 -12.614 -23.440  0.00  0.00    -0.278 N 
ATOM     23  C   UNL     1      33.147 -13.378 -23.869  0.00  0.00    +0.250 C 
ATOM     24  H   UNL     1      31.193 -12.808 -23.876  0.00  0.00    +0.155 HD
BRANCH  23  25
ATOM     25  C   UNL     1      32.754 -14.351 -24.929  0.00  0.00    +0.058 C 
ATOM     26  C   UNL     1      33.053 -14.120 -26.211  0.00  0.00    +0.005 C 
ENDBRANCH  23  25
ENDBRANCH   5  22
BRANCH   4  27
ATOM     27  O   UNL     1      31.615 -13.212 -20.728  0.00  0.00    -0.474 OA
BRANCH  27  28
ATOM     28  C   UNL     1      32.739 -13.903 -20.203  0.00  0.00    +0.203 C 
BRANCH  28  29
ATOM     29  C   UNL     1      32.742 -15.325 -20.750  0.00  0.00    +0.025 C 
BRANCH  29  30
ATOM     30  C   UNL     1      34.163 -15.835 -20.973  0.00  0.00    -0.073 C 
BRANCH  30  32
ATOM     31  O   UNL     1      35.456 -18.983 -23.428  0.00  0.00    -0.358 OA
ATOM     32  N   UNL     1      34.161 -16.935 -21.935  0.00  0.00    +0.390 N 
ATOM     33  C   UNL     1      34.610 -18.182 -21.300  0.00  0.00    -0.045 C 
ATOM     34  C   UNL     1      35.015 -16.622 -23.088  0.00  0.00    -0.045 C 
ATOM     35  C   UNL     1      34.613 -19.313 -22.325  0.00  0.00    +0.119 C 
ATOM     36  C   UNL     1      35.007 -17.789 -24.071  0.00  0.00    +0.119 C 
ATOM     37  H   UNL     1      33.203 -17.063 -22.263  0.00  0.00    -0.079 HD
ENDBRANCH  30  32
ENDBRANCH  29  30
ENDBRANCH  28  29
ENDBRANCH  27  28
ENDBRANCH   4  27
TORSDOF 8
ENDMDL
MODEL 5
REMARK VINA RESULT:     -10.2      7.316     12.831
REMARK  Name = 156414
REMARK  8 active torsions:
REMARK  status: ('A' for Active; 'I' for Inactive)
REMARK    1  A    between atoms: N_1  and  C_15
REMARK    2  A    between atoms: C_4  and  O_27
REMARK    3  A    between atoms: C_5  and  N_22
REMARK    4  A    between atoms: C_23  and  C_25
REMARK    5  A    between atoms: O_27  and  C_28
REMARK    6  A    between atoms: C_28  and  C_29
REMARK    7  A    between atoms: C_29  and  C_30
REMARK    8  A    between atoms: C_30  and  N_32
REMARK                            x       y       z     vdW  Elec       q    Type
REMARK                         _______ _______ _______ _____ _____    ______ ____
ROOT
ATOM      1  N   UNL     1      34.253 -20.505 -20.671  0.00  0.00    -0.301 N 
ATOM      2  N   UNL     1      36.682 -22.105 -17.726  0.00  0.00    -0.248 NA
ATOM      3  N   UNL     1      36.393 -20.819 -19.744  0.00  0.00    -0.233 NA
ATOM      4  C   UNL     1      33.433 -23.325 -16.559  0.00  0.00    +0.153 C 
ATOM      5  C   UNL     1      32.579 -22.808 -17.526  0.00  0.00    +0.081 C 
ATOM      6  C   UNL     1      34.484 -21.810 -18.640  0.00  0.00    +0.117 C 
ATOM      7  C   UNL     1      34.808 -23.083 -16.636  0.00  0.00    +0.053 C 
ATOM      8  C   UNL     1      35.358 -22.327 -17.669  0.00  0.00    +0.070 C 
ATOM      9  C   UNL     1      33.101 -22.049 -18.569  0.00  0.00    +0.005 C 
ATOM     10  C   UNL     1      35.071 -21.060 -19.655  0.00  0.00    +0.115 C 
ATOM     11  C   UNL     1      37.128 -21.363 -18.761  0.00  0.00    +0.251 C 
ATOM     12  H   UNL     1      33.445 -21.034 -20.862  0.00  0.00    +0.153 HD
ENDROOT
BRANCH   1  15
ATOM     13 CL   UNL     1      34.001 -15.397 -20.964  0.00  0.00    -0.080 Cl
ATOM     14  F   UNL     1      34.729 -15.954 -23.783  0.00  0.00    -0.203 F 
ATOM     15  C   UNL     1      34.373 -19.348 -21.457  0.00  0.00    +0.050 C 
ATOM     16  C   UNL     1      34.154 -18.093 -20.889  0.00  0.00    +0.028 C 
ATOM     17  C   UNL     1      34.710 -19.454 -22.806  0.00  0.00    +0.017 C 
ATOM     18  C   UNL     1      34.272 -16.944 -21.670  0.00  0.00    +0.086 C 
ATOM     19  C   UNL     1      34.829 -18.304 -23.587  0.00  0.00    +0.032 C 
ATOM     20  C   UNL     1      34.611 -17.050 -23.020  0.00  0.00    +0.151 C 
ENDBRANCH   1  15
BRANCH   5  22
ATOM     21  O   UNL     1      30.601 -22.204 -15.347  0.00  0.00    -0.270 OA
ATOM     22  N   UNL     1      31.202 -23.039 -17.464  0.00  0.00    -0.278 N 
ATOM     23  C   UNL     1      30.323 -22.735 -16.417  0.00  0.00    +0.250 C 
ATOM     24  H   UNL     1      30.801 -23.468 -18.255  0.00  0.00    +0.155 HD
BRANCH  23  25
ATOM     25  C   UNL     1      28.925 -23.142 -16.739  0.00  0.00    +0.058 C 
ATOM     26  C   UNL     1      27.888 -22.544 -16.144  0.00  0.00    +0.005 C 
ENDBRANCH  23  25
ENDBRANCH   5  22
BRANCH   4  27
ATOM     27  O   UNL     1      32.948 -24.075 -15.519  0.00  0.00    -0.474 OA
BRANCH  27  28
ATOM     28  C   UNL     1      33.235 -23.613 -14.206  0.00  0.00    +0.203 C 
BRANCH  28  29
ATOM     29  C   UNL     1      33.982 -24.705 -13.452  0.00  0.00    +0.025 C 
BRANCH  29  30
ATOM     30  C   UNL     1      35.349 -24.222 -12.975  0.00  0.00    -0.073 C 
BRANCH  30  32
ATOM     31  O   UNL     1      38.539 -26.205 -14.847  0.00  0.00    -0.358 OA
ATOM     32  N   UNL     1      36.374 -25.215 -13.285  0.00  0.00    +0.390 N 
ATOM     33  C   UNL     1      37.716 -24.623 -13.202  0.00  0.00    -0.045 C 
ATOM     34  C   UNL     1      36.159 -25.787 -14.622  0.00  0.00    -0.045 C 
ATOM     35  C   UNL     1      38.768 -25.674 -13.542  0.00  0.00    +0.119 C 
ATOM     36  C   UNL     1      37.248 -26.812 -14.928  0.00  0.00    +0.119 C 
ATOM     37  H   UNL     1      36.304 -25.964 -12.595  0.00  0.00    -0.079 HD
ENDBRANCH  30  32
ENDBRANCH  29  30
ENDBRANCH  28  29
ENDBRANCH  27  28
ENDBRANCH   4  27
TORSDOF 8
ENDMDL
MODEL 6
REMARK VINA RESULT:     -10.1      5.269     10.867
REMARK  Name = 156414
REMARK  8 active torsions:
REMARK  status: ('A' for Active; 'I' for Inactive)
REMARK    1  A    between atoms: N_1  and  C_15
REMARK    2  A    between atoms: C_4  and  O_27
REMARK    3  A    between atoms: C_5  and  N_22
REMARK    4  A    between atoms: C_23  and  C_25
REMARK    5  A    between atoms: O_27  and  C_28
REMARK    6  A    between atoms: C_28  and  C_29
REMARK    7  A    between atoms: C_29  and  C_30
REMARK    8  A    between atoms: C_30  and  N_32
REMARK                            x       y       z     vdW  Elec       q    Type
REMARK                         _______ _______ _______ _____ _____    ______ ____
ROOT
ATOM      1  N   UNL     1      32.677  -8.706 -23.109  0.00  0.00    -0.301 N 
ATOM      2  N   UNL     1      31.784 -10.452 -19.464  0.00  0.00    -0.248 NA
ATOM      3  N   UNL     1      32.176  -8.498 -20.819  0.00  0.00    -0.233 NA
ATOM      4  C   UNL     1      32.107 -13.467 -21.516  0.00  0.00    +0.153 C 
ATOM      5  C   UNL     1      32.410 -12.926 -22.760  0.00  0.00    +0.081 C 
ATOM      6  C   UNL     1      32.294 -10.708 -21.794  0.00  0.00    +0.117 C 
ATOM      7  C   UNL     1      31.900 -12.628 -20.417  0.00  0.00    +0.053 C 
ATOM      8  C   UNL     1      31.987 -11.243 -20.532  0.00  0.00    +0.070 C 
ATOM      9  C   UNL     1      32.504 -11.545 -22.903  0.00  0.00    +0.005 C 
ATOM     10  C   UNL     1      32.372  -9.319 -21.868  0.00  0.00    +0.115 C 
ATOM     11  C   UNL     1      31.890  -9.122 -19.666  0.00  0.00    +0.251 C 
ATOM     12  H   UNL     1      33.245  -9.258 -23.695  0.00  0.00    +0.153 HD
ENDROOT
BRANCH   1  15
ATOM     13 CL   UNL     1      33.832  -4.899 -26.336  0.00  0.00    -0.080 Cl
ATOM     14  F   UNL     1      31.281  -3.813 -25.285  0.00  0.00    -0.203 F 
ATOM     15  C   UNL     1      32.327  -7.465 -23.664  0.00  0.00    +0.050 C 
ATOM     16  C   UNL     1      33.154  -6.866 -24.613  0.00  0.00    +0.028 C 
ATOM     17  C   UNL     1      31.151  -6.831 -23.264  0.00  0.00    +0.017 C 
ATOM     18  C   UNL     1      32.806  -5.633 -25.164  0.00  0.00    +0.086 C 
ATOM     19  C   UNL     1      30.802  -5.597 -23.815  0.00  0.00    +0.032 C 
ATOM     20  C   UNL     1      31.629  -4.998 -24.764  0.00  0.00    +0.151 C 
ENDBRANCH   1  15
BRANCH   5  22
ATOM     21  O   UNL     1      34.794 -14.584 -23.528  0.00  0.00    -0.270 OA
ATOM     22  N   UNL     1      32.620 -13.750 -23.868  0.00  0.00    -0.278 N 
ATOM     23  C   UNL     1      33.757 -14.505 -24.178  0.00  0.00    +0.250 C 
ATOM     24  H   UNL     1      31.874 -13.807 -24.510  0.00  0.00    +0.155 HD
BRANCH  23  25
ATOM     25  C   UNL     1      33.587 -15.255 -25.456  0.00  0.00    +0.058 C 
ATOM     26  C   UNL     1      32.881 -14.733 -26.464  0.00  0.00    +0.005 C 
ENDBRANCH  23  25
ENDBRANCH   5  22
BRANCH   4  27
ATOM     27  O   UNL     1      32.006 -14.824 -21.343  0.00  0.00    -0.474 OA
BRANCH  27  28
ATOM     28  C   UNL     1      33.076 -15.464 -20.663  0.00  0.00    +0.203 C 
BRANCH  28  29
ATOM     29  C   UNL     1      33.296 -16.841 -21.278  0.00  0.00    +0.025 C 
BRANCH  29  30
ATOM     30  C   UNL     1      34.781 -17.171 -21.395  0.00  0.00    -0.073 C 
BRANCH  30  32
ATOM     31  O   UNL     1      35.696 -21.175 -20.535  0.00  0.00    -0.358 OA
ATOM     32  N   UNL     1      35.087 -18.397 -20.662  0.00  0.00    +0.390 N 
ATOM     33  C   UNL     1      36.411 -18.912 -21.038  0.00  0.00    -0.045 C 
ATOM     34  C   UNL     1      34.062 -19.421 -20.908  0.00  0.00    -0.045 C 
ATOM     35  C   UNL     1      36.703 -20.199 -20.271  0.00  0.00    +0.119 C 
ATOM     36  C   UNL     1      34.409 -20.695 -20.143  0.00  0.00    +0.119 C 
ATOM     37  H   UNL     1      35.094 -18.174 -19.667  0.00  0.00    -0.079 HD
ENDBRANCH  30  32
ENDBRANCH  29  30
ENDBRANCH  28  29
ENDBRANCH  27  28
ENDBRANCH   4  27
TORSDOF 8
ENDMDL
MODEL 7
REMARK VINA RESULT:      -9.8      5.442     11.050
REMARK  Name = 156414
REMARK  8 active torsions:
REMARK  status: ('A' for Active; 'I' for Inactive)
REMARK    1  A    between atoms: N_1  and  C_15
REMARK    2  A    between atoms: C_4  and  O_27
REMARK    3  A    between atoms: C_5  and  N_22
REMARK    4  A    between atoms: C_23  and  C_25
REMARK    5  A    between atoms: O_27  and  C_28
REMARK    6  A    between atoms: C_28  and  C_29
REMARK    7  A    between atoms: C_29  and  C_30
REMARK    8  A    between atoms: C_30  and  N_32
REMARK                            x       y       z     vdW  Elec       q    Type
REMARK                         _______ _______ _______ _____ _____    ______ ____
ROOT
ATOM      1  N   UNL     1      32.706  -7.576 -23.152  0.00  0.00    -0.301 N 
ATOM      2  N   UNL     1      31.835  -9.257 -19.472  0.00  0.00    -0.248 NA
ATOM      3  N   UNL     1      32.279  -7.331 -20.851  0.00  0.00    -0.233 NA
ATOM      4  C   UNL     1      31.960 -12.296 -21.511  0.00  0.00    +0.153 C 
ATOM      5  C   UNL     1      32.253 -11.776 -22.766  0.00  0.00    +0.081 C 
ATOM      6  C   UNL     1      32.267  -9.550 -21.813  0.00  0.00    +0.117 C 
ATOM      7  C   UNL     1      31.823 -11.442 -20.413  0.00  0.00    +0.053 C 
ATOM      8  C   UNL     1      31.971 -10.063 -20.539  0.00  0.00    +0.070 C 
ATOM      9  C   UNL     1      32.407 -10.402 -22.921  0.00  0.00    +0.005 C 
ATOM     10  C   UNL     1      32.408  -8.167 -21.899  0.00  0.00    +0.115 C 
ATOM     11  C   UNL     1      31.997  -7.935 -19.685  0.00  0.00    +0.251 C 
ATOM     12  H   UNL     1      33.231  -8.157 -23.750  0.00  0.00    +0.153 HD
ENDROOT
BRANCH   1  15
ATOM     13 CL   UNL     1      30.526  -2.978 -22.568  0.00  0.00    -0.080 Cl
ATOM     14  F   UNL     1      31.500  -2.642 -25.348  0.00  0.00    -0.203 F 
ATOM     15  C   UNL     1      32.399  -6.323 -23.705  0.00  0.00    +0.050 C 
ATOM     16  C   UNL     1      31.698  -5.381 -22.953  0.00  0.00    +0.028 C 
ATOM     17  C   UNL     1      32.793  -6.021 -25.009  0.00  0.00    +0.017 C 
ATOM     18  C   UNL     1      31.391  -4.136 -23.503  0.00  0.00    +0.086 C 
ATOM     19  C   UNL     1      32.487  -4.775 -25.559  0.00  0.00    +0.032 C 
ATOM     20  C   UNL     1      31.786  -3.834 -24.806  0.00  0.00    +0.151 C 
ENDBRANCH   1  15
BRANCH   5  22
ATOM     21  O   UNL     1      34.455 -13.686 -23.495  0.00  0.00    -0.270 OA
ATOM     22  N   UNL     1      32.393 -12.615 -23.874  0.00  0.00    -0.278 N 
ATOM     23  C   UNL     1      33.447 -13.491 -24.165  0.00  0.00    +0.250 C 
ATOM     24  H   UNL     1      31.660 -12.588 -24.532  0.00  0.00    +0.155 HD
BRANCH  23  25
ATOM     25  C   UNL     1      33.221 -14.214 -25.450  0.00  0.00    +0.058 C 
ATOM     26  C   UNL     1      33.430 -15.532 -25.535  0.00  0.00    +0.005 C 
ENDBRANCH  23  25
ENDBRANCH   5  22
BRANCH   4  27
ATOM     27  O   UNL     1      31.801 -13.645 -21.326  0.00  0.00    -0.474 OA
BRANCH  27  28
ATOM     28  C   UNL     1      32.632 -14.261 -20.353  0.00  0.00    +0.203 C 
BRANCH  28  29
ATOM     29  C   UNL     1      33.069 -15.626 -20.870  0.00  0.00    +0.025 C 
BRANCH  29  30
ATOM     30  C   UNL     1      34.576 -15.819 -20.736  0.00  0.00    -0.073 C 
BRANCH  30  32
ATOM     31  O   UNL     1      34.644 -19.323 -23.045  0.00  0.00    -0.358 OA
ATOM     32  N   UNL     1      34.970 -17.121 -21.271  0.00  0.00    +0.390 N 
ATOM     33  C   UNL     1      35.311 -17.017 -22.696  0.00  0.00    -0.045 C 
ATOM     34  C   UNL     1      33.899 -18.108 -21.082  0.00  0.00    -0.045 C 
ATOM     35  C   UNL     1      35.706 -18.388 -23.236  0.00  0.00    +0.119 C 
ATOM     36  C   UNL     1      34.327 -19.455 -21.658  0.00  0.00    +0.119 C 
ATOM     37  H   UNL     1      35.796 -17.433 -20.760  0.00  0.00    -0.079 HD
ENDBRANCH  30  32
ENDBRANCH  29  30
ENDBRANCH  28  29
ENDBRANCH  27  28
ENDBRANCH   4  27
TORSDOF 8
ENDMDL
MODEL 8
REMARK VINA RESULT:      -8.5      2.014      3.844
REMARK  Name = 156414
REMARK  8 active torsions:
REMARK  status: ('A' for Active; 'I' for Inactive)
REMARK    1  A    between atoms: N_1  and  C_15
REMARK    2  A    between atoms: C_4  and  O_27
REMARK    3  A    between atoms: C_5  and  N_22
REMARK    4  A    between atoms: C_23  and  C_25
REMARK    5  A    between atoms: O_27  and  C_28
REMARK    6  A    between atoms: C_28  and  C_29
REMARK    7  A    between atoms: C_29  and  C_30
REMARK    8  A    between atoms: C_30  and  N_32
REMARK                            x       y       z     vdW  Elec       q    Type
REMARK                         _______ _______ _______ _____ _____    ______ ____
ROOT
ATOM      1  N   UNL     1      33.744 -16.819 -22.040  0.00  0.00    -0.301 N 
ATOM      2  N   UNL     1      32.082 -13.569 -20.090  0.00  0.00    -0.248 NA
ATOM      3  N   UNL     1      32.759 -15.881 -20.120  0.00  0.00    -0.233 NA
ATOM      4  C   UNL     1      32.836 -12.015 -23.319  0.00  0.00    +0.153 C 
ATOM      5  C   UNL     1      33.400 -13.079 -24.014  0.00  0.00    +0.081 C 
ATOM      6  C   UNL     1      33.082 -14.486 -22.068  0.00  0.00    +0.117 C 
ATOM      7  C   UNL     1      32.396 -12.191 -22.004  0.00  0.00    +0.053 C 
ATOM      8  C   UNL     1      32.510 -13.419 -21.356  0.00  0.00    +0.070 C 
ATOM      9  C   UNL     1      33.525 -14.317 -23.390  0.00  0.00    +0.005 C 
ATOM     10  C   UNL     1      33.177 -15.696 -21.387  0.00  0.00    +0.115 C 
ATOM     11  C   UNL     1      32.229 -14.792 -19.541  0.00  0.00    +0.251 C 
ATOM     12  H   UNL     1      33.610 -16.819 -23.016  0.00  0.00    +0.153 HD
ENDROOT
BRANCH   1  15
ATOM     13 CL   UNL     1      33.641 -21.459 -19.874  0.00  0.00    -0.080 Cl
ATOM     14  F   UNL     1      36.578 -21.190 -20.174  0.00  0.00    -0.203 F 
ATOM     15  C   UNL     1      34.459 -17.929 -21.566  0.00  0.00    +0.050 C 
ATOM     16  C   UNL     1      33.778 -19.016 -21.019  0.00  0.00    +0.028 C 
ATOM     17  C   UNL     1      35.852 -17.946 -21.641  0.00  0.00    +0.017 C 
ATOM     18  C   UNL     1      34.488 -20.120 -20.547  0.00  0.00    +0.086 C 
ATOM     19  C   UNL     1      36.563 -19.050 -21.169  0.00  0.00    +0.032 C 
ATOM     20  C   UNL     1      35.882 -20.137 -20.623  0.00  0.00    +0.151 C 
ENDBRANCH   1  15
BRANCH   5  22
ATOM     21  O   UNL     1      32.371 -14.270 -26.572  0.00  0.00    -0.270 OA
ATOM     22  N   UNL     1      33.845 -12.921 -25.328  0.00  0.00    -0.278 N 
ATOM     23  C   UNL     1      33.324 -13.503 -26.491  0.00  0.00    +0.250 C 
ATOM     24  H   UNL     1      34.620 -12.325 -25.453  0.00  0.00    +0.155 HD
BRANCH  23  25
ATOM     25  C   UNL     1      34.083 -13.081 -27.704  0.00  0.00    +0.058 C 
ATOM     26  C   UNL     1      35.087 -12.204 -27.608  0.00  0.00    +0.005 C 
ENDBRANCH  23  25
ENDBRANCH   5  22
BRANCH   4  27
ATOM     27  O   UNL     1      32.700 -10.784 -23.905  0.00  0.00    -0.474 OA
BRANCH  27  28
ATOM     28  C   UNL     1      32.792  -9.653 -23.050  0.00  0.00    +0.203 C 
BRANCH  28  29
ATOM     29  C   UNL     1      33.933  -8.765 -23.530  0.00  0.00    +0.025 C 
BRANCH  29  30
ATOM     30  C   UNL     1      33.826  -7.356 -22.956  0.00  0.00    -0.073 C 
BRANCH  30  32
ATOM     31  O   UNL     1      30.610  -4.687 -23.337  0.00  0.00    -0.358 OA
ATOM     32  N   UNL     1      32.480  -6.826 -23.161  0.00  0.00    +0.390 N 
ATOM     33  C   UNL     1      32.446  -5.929 -24.325  0.00  0.00    -0.045 C 
ATOM     34  C   UNL     1      32.011  -6.115 -21.964  0.00  0.00    -0.045 C 
ATOM     35  C   UNL     1      31.035  -5.378 -24.512  0.00  0.00    +0.119 C 
ATOM     36  C   UNL     1      30.610  -5.560 -22.207  0.00  0.00    +0.119 C 
ATOM     37  H   UNL     1      31.857  -7.614 -23.338  0.00  0.00    -0.079 HD
ENDBRANCH  30  32
ENDBRANCH  29  30
ENDBRANCH  28  29
ENDBRANCH  27  28
ENDBRANCH   4  27
TORSDOF 8
ENDMDL
MODEL 9
REMARK VINA RESULT:      -8.0      5.186     10.585
REMARK  Name = 156414
REMARK  8 active torsions:
REMARK  status: ('A' for Active; 'I' for Inactive)
REMARK    1  A    between atoms: N_1  and  C_15
REMARK    2  A    between atoms: C_4  and  O_27
REMARK    3  A    between atoms: C_5  and  N_22
REMARK    4  A    between atoms: C_23  and  C_25
REMARK    5  A    between atoms: O_27  and  C_28
REMARK    6  A    between atoms: C_28  and  C_29
REMARK    7  A    between atoms: C_29  and  C_30
REMARK    8  A    between atoms: C_30  and  N_32
REMARK                            x       y       z     vdW  Elec       q    Type
REMARK                         _______ _______ _______ _____ _____    ______ ____
ROOT
ATOM      1  N   UNL     1      32.515  -8.808 -22.253  0.00  0.00    -0.301 N 
ATOM      2  N   UNL     1      31.562 -12.191 -20.069  0.00  0.00    -0.248 NA
ATOM      3  N   UNL     1      31.651  -9.794 -20.299  0.00  0.00    -0.233 NA
ATOM      4  C   UNL     1      32.913 -13.777 -23.080  0.00  0.00    +0.153 C 
ATOM      5  C   UNL     1      33.250 -12.669 -23.850  0.00  0.00    +0.081 C 
ATOM      6  C   UNL     1      32.451 -11.226 -22.076  0.00  0.00    +0.117 C 
ATOM      7  C   UNL     1      32.348 -13.605 -21.813  0.00  0.00    +0.053 C 
ATOM      8  C   UNL     1      32.106 -12.337 -21.289  0.00  0.00    +0.070 C 
ATOM      9  C   UNL     1      33.020 -11.391 -23.350  0.00  0.00    +0.005 C 
ATOM     10  C   UNL     1      32.194  -9.976 -21.518  0.00  0.00    +0.115 C 
ATOM     11  C   UNL     1      31.364 -10.928 -19.640  0.00  0.00    +0.251 C 
ATOM     12  H   UNL     1      33.280  -8.920 -22.863  0.00  0.00    +0.153 HD
ENDROOT
BRANCH   1  15
ATOM     13 CL   UNL     1      30.846  -4.845 -25.037  0.00  0.00    -0.080 Cl
ATOM     14  F   UNL     1      30.300  -3.737 -22.342  0.00  0.00    -0.203 F 
ATOM     15  C   UNL     1      31.953  -7.522 -22.280  0.00  0.00    +0.050 C 
ATOM     16  C   UNL     1      31.706  -6.893 -23.501  0.00  0.00    +0.028 C 
ATOM     17  C   UNL     1      31.642  -6.872 -21.086  0.00  0.00    +0.017 C 
ATOM     18  C   UNL     1      31.149  -5.615 -23.527  0.00  0.00    +0.086 C 
ATOM     19  C   UNL     1      31.084  -5.593 -21.112  0.00  0.00    +0.032 C 
ATOM     20  C   UNL     1      30.837  -4.965 -22.332  0.00  0.00    +0.151 C 
ENDBRANCH   1  15
BRANCH   5  22
ATOM     21  O   UNL     1      32.050 -13.700 -26.403  0.00  0.00    -0.270 OA
ATOM     22  N   UNL     1      33.815 -12.823 -25.118  0.00  0.00    -0.278 N 
ATOM     23  C   UNL     1      33.206 -13.311 -26.280  0.00  0.00    +0.250 C 
ATOM     24  H   UNL     1      34.759 -12.553 -25.204  0.00  0.00    +0.155 HD
BRANCH  23  25
ATOM     25  C   UNL     1      34.151 -13.317 -27.434  0.00  0.00    +0.058 C 
ATOM     26  C   UNL     1      35.017 -12.315 -27.611  0.00  0.00    +0.005 C 
ENDBRANCH  23  25
ENDBRANCH   5  22
BRANCH   4  27
ATOM     27  O   UNL     1      33.127 -15.049 -23.544  0.00  0.00    -0.474 OA
BRANCH  27  28
ATOM     28  C   UNL     1      34.463 -15.390 -23.886  0.00  0.00    +0.203 C 
BRANCH  28  29
ATOM     29  C   UNL     1      34.709 -16.846 -23.513  0.00  0.00    +0.025 C 
BRANCH  29  30
ATOM     30  C   UNL     1      34.079 -17.193 -22.167  0.00  0.00    -0.073 C 
BRANCH  30  32
ATOM     31  O   UNL     1      35.227 -20.450 -19.782  0.00  0.00    -0.358 OA
ATOM     32  N   UNL     1      34.479 -18.536 -21.752  0.00  0.00    +0.390 N 
ATOM     33  C   UNL     1      33.494 -19.108 -20.823  0.00  0.00    -0.045 C 
ATOM     34  C   UNL     1      35.807 -18.515 -21.126  0.00  0.00    -0.045 C 
ATOM     35  C   UNL     1      33.938 -20.504 -20.393  0.00  0.00    +0.119 C 
ATOM     36  C   UNL     1      36.198 -19.925 -20.690  0.00  0.00    +0.119 C 
ATOM     37  H   UNL     1      34.520 -19.123 -22.585  0.00  0.00    -0.079 HD
ENDBRANCH  30  32
ENDBRANCH  29  30
ENDBRANCH  28  29
ENDBRANCH  27  28
ENDBRANCH   4  27
TORSDOF 8
ENDMDL
