MODEL 1
REMARK VINA RESULT:      -3.6      0.000      0.000
REMARK  Name = 439231
REMARK  2 active torsions:
REMARK  status: ('A' for Active; 'I' for Inactive)
REMARK    1  A    between atoms: C_1  and  O_3
REMARK    2  A    between atoms: C_1  and  C_6
REMARK                            x       y       z     vdW  Elec       q    Type
REMARK                         _______ _______ _______ _____ _____    ______ ____
ROOT
ATOM      1  C   UNL     1      38.730 -25.841 -14.318  0.00  0.00    +0.175 C 
ATOM      2  C   UNL     1      38.317 -25.634 -12.873  0.00  0.00    +0.040 C 
ENDROOT
BRANCH   1   3
ATOM      3  O   UNL     1      38.360 -27.149 -14.718  0.00  0.00    -0.377 OA
ATOM      4  H   UNL     1      39.131 -27.602 -15.093  0.00  0.00    +0.211 HD
ENDBRANCH   1   3
BRANCH   1   6
ATOM      5  O   UNL     1      40.992 -26.675 -14.605  0.00  0.00    -0.286 OA
ATOM      6  C   UNL     1      40.223 -25.722 -14.520  0.00  0.00    +0.236 C 
ENDBRANCH   1   6
TORSDOF 2
ENDMDL
MODEL 2
REMARK VINA RESULT:      -3.5     11.152     11.499
REMARK  Name = 439231
REMARK  2 active torsions:
REMARK  status: ('A' for Active; 'I' for Inactive)
REMARK    1  A    between atoms: C_1  and  O_3
REMARK    2  A    between atoms: C_1  and  C_6
REMARK                            x       y       z     vdW  Elec       q    Type
REMARK                         _______ _______ _______ _____ _____    ______ ____
ROOT
ATOM      1  C   UNL     1      40.904 -14.733 -15.672  0.00  0.00    +0.175 C 
ATOM      2  C   UNL     1      41.974 -13.711 -16.006  0.00  0.00    +0.040 C 
ENDROOT
BRANCH   1   3
ATOM      3  O   UNL     1      40.501 -14.551 -14.326  0.00  0.00    -0.377 OA
ATOM      4  H   UNL     1      40.330 -15.415 -13.920  0.00  0.00    +0.211 HD
ENDBRANCH   1   3
BRANCH   1   6
ATOM      5  O   UNL     1      42.581 -16.483 -15.815  0.00  0.00    -0.286 OA
ATOM      6  C   UNL     1      41.398 -16.156 -15.797  0.00  0.00    +0.236 C 
ENDBRANCH   1   6
TORSDOF 2
ENDMDL
MODEL 3
REMARK VINA RESULT:      -3.5     11.511     12.414
REMARK  Name = 439231
REMARK  2 active torsions:
REMARK  status: ('A' for Active; 'I' for Inactive)
REMARK    1  A    between atoms: C_1  and  O_3
REMARK    2  A    between atoms: C_1  and  C_6
REMARK                            x       y       z     vdW  Elec       q    Type
REMARK                         _______ _______ _______ _____ _____    ______ ____
ROOT
ATOM      1  C   UNL     1      28.182 -23.418 -16.282  0.00  0.00    +0.175 C 
ATOM      2  C   UNL     1      29.651 -23.065 -16.411  0.00  0.00    +0.040 C 
ENDROOT
BRANCH   1   3
ATOM      3  O   UNL     1      27.684 -23.779 -17.559  0.00  0.00    -0.377 OA
ATOM      4  H   UNL     1      26.900 -23.245 -17.763  0.00  0.00    +0.211 HD
ENDBRANCH   1   3
BRANCH   1   6
ATOM      5  O   UNL     1      26.118 -22.228 -15.814  0.00  0.00    -0.286 OA
ATOM      6  C   UNL     1      27.344 -22.258 -15.793  0.00  0.00    +0.236 C 
ENDBRANCH   1   6
TORSDOF 2
ENDMDL
MODEL 4
REMARK VINA RESULT:      -3.4     11.556     12.024
REMARK  Name = 439231
REMARK  2 active torsions:
REMARK  status: ('A' for Active; 'I' for Inactive)
REMARK    1  A    between atoms: C_1  and  O_3
REMARK    2  A    between atoms: C_1  and  C_6
REMARK                            x       y       z     vdW  Elec       q    Type
REMARK                         _______ _______ _______ _____ _____    ______ ____
ROOT
ATOM      1  C   UNL     1      28.415 -22.777 -16.045  0.00  0.00    +0.175 C 
ATOM      2  C   UNL     1      27.031 -22.235 -15.743  0.00  0.00    +0.040 C 
ENDROOT
BRANCH   1   3
ATOM      3  O   UNL     1      29.032 -21.945 -17.012  0.00  0.00    -0.377 OA
ATOM      4  H   UNL     1      29.056 -21.032 -16.684  0.00  0.00    +0.211 HD
ENDBRANCH   1   3
BRANCH   1   6
ATOM      5  O   UNL     1      27.687 -24.517 -17.575  0.00  0.00    -0.286 OA
ATOM      6  C   UNL     1      28.380 -24.175 -16.622  0.00  0.00    +0.236 C 
ENDBRANCH   1   6
TORSDOF 2
ENDMDL
MODEL 5
REMARK VINA RESULT:      -3.4      3.949      4.836
REMARK  Name = 439231
REMARK  2 active torsions:
REMARK  status: ('A' for Active; 'I' for Inactive)
REMARK    1  A    between atoms: C_1  and  O_3
REMARK    2  A    between atoms: C_1  and  C_6
REMARK                            x       y       z     vdW  Elec       q    Type
REMARK                         _______ _______ _______ _____ _____    ______ ____
ROOT
ATOM      1  C   UNL     1      37.502 -23.846 -12.138  0.00  0.00    +0.175 C 
ATOM      2  C   UNL     1      38.010 -25.261 -12.342  0.00  0.00    +0.040 C 
ENDROOT
BRANCH   1   3
ATOM      3  O   UNL     1      38.544 -23.060 -11.587  0.00  0.00    -0.377 OA
ATOM      4  H   UNL     1      39.229 -22.916 -12.258  0.00  0.00    +0.211 HD
ENDBRANCH   1   3
BRANCH   1   6
ATOM      5  O   UNL     1      36.421 -23.999  -9.969  0.00  0.00    -0.286 OA
ATOM      6  C   UNL     1      36.340 -23.778 -11.173  0.00  0.00    +0.236 C 
ENDBRANCH   1   6
TORSDOF 2
ENDMDL
MODEL 6
REMARK VINA RESULT:      -3.4      1.822      2.524
REMARK  Name = 439231
REMARK  2 active torsions:
REMARK  status: ('A' for Active; 'I' for Inactive)
REMARK    1  A    between atoms: C_1  and  O_3
REMARK    2  A    between atoms: C_1  and  C_6
REMARK                            x       y       z     vdW  Elec       q    Type
REMARK                         _______ _______ _______ _____ _____    ______ ____
ROOT
ATOM      1  C   UNL     1      37.191 -25.771 -13.121  0.00  0.00    +0.175 C 
ATOM      2  C   UNL     1      38.509 -25.067 -12.861  0.00  0.00    +0.040 C 
ENDROOT
BRANCH   1   3
ATOM      3  O   UNL     1      36.814 -26.482 -11.954  0.00  0.00    -0.377 OA
ATOM      4  H   UNL     1      36.953 -25.920 -11.175  0.00  0.00    +0.211 HD
ENDBRANCH   1   3
BRANCH   1   6
ATOM      5  O   UNL     1      38.330 -27.171 -14.746  0.00  0.00    -0.286 OA
ATOM      6  C   UNL     1      37.280 -26.780 -14.243  0.00  0.00    +0.236 C 
ENDBRANCH   1   6
TORSDOF 2
ENDMDL
MODEL 7
REMARK VINA RESULT:      -3.4      1.869      2.975
REMARK  Name = 439231
REMARK  2 active torsions:
REMARK  status: ('A' for Active; 'I' for Inactive)
REMARK    1  A    between atoms: C_1  and  O_3
REMARK    2  A    between atoms: C_1  and  C_6
REMARK                            x       y       z     vdW  Elec       q    Type
REMARK                         _______ _______ _______ _____ _____    ______ ____
ROOT
ATOM      1  C   UNL     1      37.860 -25.744 -14.721  0.00  0.00    +0.175 C 
ATOM      2  C   UNL     1      37.545 -24.280 -14.958  0.00  0.00    +0.040 C 
ENDROOT
BRANCH   1   3
ATOM      3  O   UNL     1      39.003 -26.097 -15.481  0.00  0.00    -0.377 OA
ATOM      4  H   UNL     1      39.803 -25.811 -15.012  0.00  0.00    +0.211 HD
ENDBRANCH   1   3
BRANCH   1   6
ATOM      5  O   UNL     1      36.739 -27.313 -16.197  0.00  0.00    -0.286 OA
ATOM      6  C   UNL     1      36.739 -26.660 -15.158  0.00  0.00    +0.236 C 
ENDBRANCH   1   6
TORSDOF 2
ENDMDL
MODEL 8
REMARK VINA RESULT:      -3.4     15.201     15.593
REMARK  Name = 439231
REMARK  2 active torsions:
REMARK  status: ('A' for Active; 'I' for Inactive)
REMARK    1  A    between atoms: C_1  and  O_3
REMARK    2  A    between atoms: C_1  and  C_6
REMARK                            x       y       z     vdW  Elec       q    Type
REMARK                         _______ _______ _______ _____ _____    ______ ____
ROOT
ATOM      1  C   UNL     1      34.931 -16.784 -25.066  0.00  0.00    +0.175 C 
ATOM      2  C   UNL     1      34.500 -18.209 -24.778  0.00  0.00    +0.040 C 
ENDROOT
BRANCH   1   3
ATOM      3  O   UNL     1      35.539 -16.245 -23.905  0.00  0.00    -0.377 OA
ATOM      4  H   UNL     1      34.935 -16.339 -23.152  0.00  0.00    +0.211 HD
ENDBRANCH   1   3
BRANCH   1   6
ATOM      5  O   UNL     1      33.511 -15.486 -26.548  0.00  0.00    -0.286 OA
ATOM      6  C   UNL     1      33.769 -15.882 -25.416  0.00  0.00    +0.236 C 
ENDBRANCH   1   6
TORSDOF 2
ENDMDL
MODEL 9
REMARK VINA RESULT:      -3.3      2.787      3.340
REMARK  Name = 439231
REMARK  2 active torsions:
REMARK  status: ('A' for Active; 'I' for Inactive)
REMARK    1  A    between atoms: C_1  and  O_3
REMARK    2  A    between atoms: C_1  and  C_6
REMARK                            x       y       z     vdW  Elec       q    Type
REMARK                         _______ _______ _______ _____ _____    ______ ____
ROOT
ATOM      1  C   UNL     1      38.108 -25.518 -12.397  0.00  0.00    +0.175 C 
ATOM      2  C   UNL     1      38.252 -25.716 -13.894  0.00  0.00    +0.040 C 
ENDROOT
BRANCH   1   3
ATOM      3  O   UNL     1      37.011 -26.287 -11.936  0.00  0.00    -0.377 OA
ATOM      4  H   UNL     1      37.029 -27.160 -12.358  0.00  0.00    +0.211 HD
ENDBRANCH   1   3
BRANCH   1   6
ATOM      5  O   UNL     1      38.683 -23.277 -11.659  0.00  0.00    -0.286 OA
ATOM      6  C   UNL     1      37.829 -24.080 -12.023  0.00  0.00    +0.236 C 
ENDBRANCH   1   6
TORSDOF 2
ENDMDL
