MODEL 1
REMARK VINA RESULT:     -10.7      0.000      0.000
REMARK  Name = 10427712
REMARK  4 active torsions:
REMARK  status: ('A' for Active; 'I' for Inactive)
REMARK    1  A    between atoms: C_6  and  C_14
REMARK    2  A    between atoms: C_7  and  C_22
REMARK    3  A    between atoms: C_17  and  O_20
REMARK    4  A    between atoms: C_25  and  O_28
REMARK                            x       y       z     vdW  Elec       q    Type
REMARK                         _______ _______ _______ _____ _____    ______ ____
ROOT
ATOM      1  N   UNL     1      32.349 -24.476 -14.761  0.00  0.00    -0.383 NA
ATOM      2  N   UNL     1      32.355 -22.692 -16.878  0.00  0.00    -0.335 NA
ATOM      3  N   UNL     1      30.040 -22.698 -16.907  0.00  0.00    -0.259 NA
ATOM      4  N   UNL     1      28.790 -24.025 -15.350  0.00  0.00    -0.310 NA
ATOM      5  N   UNL     1      27.694 -22.700 -16.939  0.00  0.00    -0.283 N 
ATOM      6  C   UNL     1      33.500 -24.021 -15.283  0.00  0.00    +0.163 C 
ATOM      7  C   UNL     1      33.501 -23.139 -16.329  0.00  0.00    +0.173 C 
ATOM      8  C   UNL     1      31.204 -24.027 -15.311  0.00  0.00    +0.261 C 
ATOM      9  C   UNL     1      31.192 -23.128 -16.378  0.00  0.00    +0.185 C 
ATOM     10  C   UNL     1      29.968 -24.435 -14.847  0.00  0.00    +0.232 C 
ATOM     11  C   UNL     1      28.898 -23.165 -16.369  0.00  0.00    +0.208 C 
ATOM     12  H   UNL     1      27.717 -22.066 -17.691  0.00  0.00    +0.156 HD
ATOM     13  H   UNL     1      26.828 -23.010 -16.583  0.00  0.00    +0.156 HD
ATOM     14  N   UNL     1      29.933 -25.349 -13.762  0.00  0.00    -0.329 N 
ATOM     15  H   UNL     1      29.069 -25.659 -13.407  0.00  0.00    +0.145 HD
ATOM     16  H   UNL     1      30.774 -25.673 -13.364  0.00  0.00    +0.145 HD
ENDROOT
BRANCH   6  17
ATOM     17  C   UNL     1      34.696 -24.533 -14.660  0.00  0.00    +0.035 C 
ATOM     18  C   UNL     1      35.542 -25.391 -15.365  0.00  0.00    +0.039 C 
ATOM     19  C   UNL     1      35.010 -24.174 -13.347  0.00  0.00    +0.003 C 
ATOM     20  C   UNL     1      36.697 -25.887 -14.761  0.00  0.00    +0.134 C 
ATOM     21  C   UNL     1      36.165 -24.670 -12.743  0.00  0.00    +0.003 C 
ATOM     22  C   UNL     1      37.008 -25.527 -13.450  0.00  0.00    +0.037 C 
BRANCH  20  23
ATOM     23  O   UNL     1      37.522 -26.721 -15.452  0.00  0.00    -0.506 OA
ATOM     24  H   UNL     1      37.246 -27.080 -16.273  0.00  0.00    +0.292 HD
ENDBRANCH  20  23
ENDBRANCH   6  17
BRANCH   7  25
ATOM     25  C   UNL     1      34.704 -22.615 -16.933  0.00  0.00    +0.036 C 
ATOM     26  C   UNL     1      34.748 -22.369 -18.306  0.00  0.00    +0.039 C 
ATOM     27  C   UNL     1      35.826 -22.356 -16.145  0.00  0.00    +0.003 C 
ATOM     28  C   UNL     1      35.910 -21.864 -18.889  0.00  0.00    +0.134 C 
ATOM     29  C   UNL     1      36.989 -21.851 -16.727  0.00  0.00    +0.003 C 
ATOM     30  C   UNL     1      37.031 -21.605 -18.100  0.00  0.00    +0.037 C 
BRANCH  28  31
ATOM     31  O   UNL     1      35.951 -21.622 -20.228  0.00  0.00    -0.506 OA
ATOM     32  H   UNL     1      36.163 -20.765 -20.543  0.00  0.00    +0.292 HD
ENDBRANCH  28  31
ENDBRANCH   7  25
TORSDOF 4
ENDMDL
MODEL 2
REMARK VINA RESULT:     -10.5      1.065      1.425
REMARK  Name = 10427712
REMARK  4 active torsions:
REMARK  status: ('A' for Active; 'I' for Inactive)
REMARK    1  A    between atoms: C_6  and  C_14
REMARK    2  A    between atoms: C_7  and  C_22
REMARK    3  A    between atoms: C_17  and  O_20
REMARK    4  A    between atoms: C_25  and  O_28
REMARK                            x       y       z     vdW  Elec       q    Type
REMARK                         _______ _______ _______ _____ _____    ______ ____
ROOT
ATOM      1  N   UNL     1      32.348 -24.520 -14.604  0.00  0.00    -0.383 NA
ATOM      2  N   UNL     1      32.503 -22.727 -16.707  0.00  0.00    -0.335 NA
ATOM      3  N   UNL     1      30.195 -22.725 -16.892  0.00  0.00    -0.259 NA
ATOM      4  N   UNL     1      28.838 -24.054 -15.429  0.00  0.00    -0.310 NA
ATOM      5  N   UNL     1      27.856 -22.718 -17.082  0.00  0.00    -0.283 N 
ATOM      6  C   UNL     1      33.533 -24.067 -15.045  0.00  0.00    +0.163 C 
ATOM      7  C   UNL     1      33.608 -23.181 -16.085  0.00  0.00    +0.173 C 
ATOM      8  C   UNL     1      31.245 -24.065 -15.227  0.00  0.00    +0.261 C 
ATOM      9  C   UNL     1      31.307 -23.161 -16.289  0.00  0.00    +0.185 C 
ATOM     10  C   UNL     1      29.978 -24.470 -14.850  0.00  0.00    +0.232 C 
ATOM     11  C   UNL     1      29.017 -23.190 -16.434  0.00  0.00    +0.208 C 
ATOM     12  H   UNL     1      27.932 -22.081 -17.828  0.00  0.00    +0.156 HD
ATOM     13  H   UNL     1      26.967 -23.027 -16.787  0.00  0.00    +0.156 HD
ATOM     14  N   UNL     1      29.868 -25.389 -13.773  0.00  0.00    -0.329 N 
ATOM     15  H   UNL     1      28.980 -25.697 -13.479  0.00  0.00    +0.145 HD
ATOM     16  H   UNL     1      30.678 -25.718 -13.321  0.00  0.00    +0.145 HD
ENDROOT
BRANCH   6  17
ATOM     17  C   UNL     1      34.683 -24.587 -14.345  0.00  0.00    +0.035 C 
ATOM     18  C   UNL     1      34.889 -24.266 -13.002  0.00  0.00    +0.039 C 
ATOM     19  C   UNL     1      35.594 -25.411 -15.010  0.00  0.00    +0.003 C 
ATOM     20  C   UNL     1      36.002 -24.768 -12.326  0.00  0.00    +0.134 C 
ATOM     21  C   UNL     1      36.707 -25.912 -14.334  0.00  0.00    +0.003 C 
ATOM     22  C   UNL     1      36.910 -25.590 -12.992  0.00  0.00    +0.037 C 
BRANCH  20  23
ATOM     23  O   UNL     1      36.200 -24.456 -11.016  0.00  0.00    -0.506 OA
ATOM     24  H   UNL     1      36.677 -25.043 -10.461  0.00  0.00    +0.292 HD
ENDBRANCH  20  23
ENDBRANCH   6  17
BRANCH   7  25
ATOM     25  C   UNL     1      34.850 -22.659 -16.603  0.00  0.00    +0.036 C 
ATOM     26  C   UNL     1      34.976 -22.375 -17.964  0.00  0.00    +0.039 C 
ATOM     27  C   UNL     1      35.929 -22.439 -15.745  0.00  0.00    +0.003 C 
ATOM     28  C   UNL     1      36.177 -21.872 -18.465  0.00  0.00    +0.134 C 
ATOM     29  C   UNL     1      37.130 -21.936 -16.247  0.00  0.00    +0.003 C 
ATOM     30  C   UNL     1      37.254 -21.653 -17.606  0.00  0.00    +0.037 C 
BRANCH  28  31
ATOM     31  O   UNL     1      36.298 -21.592 -19.792  0.00  0.00    -0.506 OA
ATOM     32  H   UNL     1      37.100 -21.243 -20.126  0.00  0.00    +0.292 HD
ENDBRANCH  28  31
ENDBRANCH   7  25
TORSDOF 4
ENDMDL
MODEL 3
REMARK VINA RESULT:     -10.4      1.325      4.461
REMARK  Name = 10427712
REMARK  4 active torsions:
REMARK  status: ('A' for Active; 'I' for Inactive)
REMARK    1  A    between atoms: C_6  and  C_14
REMARK    2  A    between atoms: C_7  and  C_22
REMARK    3  A    between atoms: C_17  and  O_20
REMARK    4  A    between atoms: C_25  and  O_28
REMARK                            x       y       z     vdW  Elec       q    Type
REMARK                         _______ _______ _______ _____ _____    ______ ____
ROOT
ATOM      1  N   UNL     1      32.814 -23.149 -16.200  0.00  0.00    -0.383 NA
ATOM      2  N   UNL     1      33.112 -25.082 -14.240  0.00  0.00    -0.335 NA
ATOM      3  N   UNL     1      30.816 -25.369 -14.155  0.00  0.00    -0.259 NA
ATOM      4  N   UNL     1      29.359 -24.088 -15.565  0.00  0.00    -0.310 NA
ATOM      5  N   UNL     1      28.490 -25.663 -14.066  0.00  0.00    -0.283 N 
ATOM      6  C   UNL     1      34.029 -23.497 -15.745  0.00  0.00    +0.163 C 
ATOM      7  C   UNL     1      34.175 -24.452 -14.777  0.00  0.00    +0.173 C 
ATOM      8  C   UNL     1      31.753 -23.780 -15.662  0.00  0.00    +0.261 C 
ATOM      9  C   UNL     1      31.887 -24.757 -14.673  0.00  0.00    +0.185 C 
ATOM     10  C   UNL     1      30.460 -23.496 -16.060  0.00  0.00    +0.232 C 
ATOM     11  C   UNL     1      29.607 -25.007 -14.624  0.00  0.00    +0.208 C 
ATOM     12  H   UNL     1      28.617 -26.348 -13.370  0.00  0.00    +0.156 HD
ATOM     13  H   UNL     1      27.581 -25.437 -14.373  0.00  0.00    +0.156 HD
ATOM     14  N   UNL     1      30.276 -22.509 -17.064  0.00  0.00    -0.329 N 
ATOM     15  H   UNL     1      29.368 -22.282 -17.370  0.00  0.00    +0.145 HD
ATOM     16  H   UNL     1      31.056 -22.051 -17.453  0.00  0.00    +0.145 HD
ENDROOT
BRANCH   6  17
ATOM     17  C   UNL     1      35.131 -22.790 -16.352  0.00  0.00    +0.035 C 
ATOM     18  C   UNL     1      35.114 -22.506 -17.719  0.00  0.00    +0.039 C 
ATOM     19  C   UNL     1      36.220 -22.389 -15.574  0.00  0.00    +0.003 C 
ATOM     20  C   UNL     1      36.180 -21.824 -18.305  0.00  0.00    +0.134 C 
ATOM     21  C   UNL     1      37.286 -21.707 -16.160  0.00  0.00    +0.003 C 
ATOM     22  C   UNL     1      37.266 -21.426 -17.526  0.00  0.00    +0.037 C 
BRANCH  20  23
ATOM     23  O   UNL     1      36.161 -21.547 -19.638  0.00  0.00    -0.506 OA
ATOM     24  H   UNL     1      35.663 -20.819 -19.958  0.00  0.00    +0.292 HD
ENDBRANCH  20  23
ENDBRANCH   6  17
BRANCH   7  25
ATOM     25  C   UNL     1      35.453 -24.867 -14.249  0.00  0.00    +0.036 C 
ATOM     26  C   UNL     1      35.865 -24.430 -12.989  0.00  0.00    +0.039 C 
ATOM     27  C   UNL     1      36.280 -25.706 -14.998  0.00  0.00    +0.003 C 
ATOM     28  C   UNL     1      37.100 -24.830 -12.479  0.00  0.00    +0.134 C 
ATOM     29  C   UNL     1      37.516 -26.106 -14.488  0.00  0.00    +0.003 C 
ATOM     30  C   UNL     1      37.926 -25.668 -13.229  0.00  0.00    +0.037 C 
BRANCH  28  31
ATOM     31  O   UNL     1      37.500 -24.405 -11.249  0.00  0.00    -0.506 OA
ATOM     32  H   UNL     1      36.928 -24.498 -10.513  0.00  0.00    +0.292 HD
ENDBRANCH  28  31
ENDBRANCH   7  25
TORSDOF 4
ENDMDL
MODEL 4
REMARK VINA RESULT:     -10.1      2.732      5.245
REMARK  Name = 10427712
REMARK  4 active torsions:
REMARK  status: ('A' for Active; 'I' for Inactive)
REMARK    1  A    between atoms: C_6  and  C_14
REMARK    2  A    between atoms: C_7  and  C_22
REMARK    3  A    between atoms: C_17  and  O_20
REMARK    4  A    between atoms: C_25  and  O_28
REMARK                            x       y       z     vdW  Elec       q    Type
REMARK                         _______ _______ _______ _____ _____    ______ ____
ROOT
ATOM      1  N   UNL     1      35.228 -22.704 -17.377  0.00  0.00    -0.383 NA
ATOM      2  N   UNL     1      32.480 -22.373 -17.439  0.00  0.00    -0.335 NA
ATOM      3  N   UNL     1      32.652 -21.200 -19.427  0.00  0.00    -0.259 NA
ATOM      4  N   UNL     1      34.786 -20.814 -20.451  0.00  0.00    -0.310 NA
ATOM      5  N   UNL     1      32.823 -20.011 -21.443  0.00  0.00    -0.283 N 
ATOM      6  C   UNL     1      34.446 -23.202 -16.406  0.00  0.00    +0.163 C 
ATOM      7  C   UNL     1      33.088 -23.038 -16.438  0.00  0.00    +0.173 C 
ATOM      8  C   UNL     1      34.618 -22.039 -18.377  0.00  0.00    +0.261 C 
ATOM      9  C   UNL     1      33.234 -21.865 -18.422  0.00  0.00    +0.185 C 
ATOM     10  C   UNL     1      35.332 -21.487 -19.424  0.00  0.00    +0.232 C 
ATOM     11  C   UNL     1      33.453 -20.708 -20.391  0.00  0.00    +0.208 C 
ATOM     12  H   UNL     1      31.844 -19.904 -21.447  0.00  0.00    +0.156 HD
ATOM     13  H   UNL     1      33.362 -19.630 -22.175  0.00  0.00    +0.156 HD
ATOM     14  N   UNL     1      36.743 -21.641 -19.419  0.00  0.00    -0.329 N 
ATOM     15  H   UNL     1      37.282 -21.261 -20.150  0.00  0.00    +0.145 HD
ATOM     16  H   UNL     1      37.183 -22.128 -18.685  0.00  0.00    +0.145 HD
ENDROOT
BRANCH   6  17
ATOM     17  C   UNL     1      35.148 -23.903 -15.358  0.00  0.00    +0.035 C 
ATOM     18  C   UNL     1      35.427 -25.264 -15.490  0.00  0.00    +0.039 C 
ATOM     19  C   UNL     1      35.550 -23.221 -14.207  0.00  0.00    +0.003 C 
ATOM     20  C   UNL     1      36.105 -25.941 -14.476  0.00  0.00    +0.134 C 
ATOM     21  C   UNL     1      36.228 -23.897 -13.193  0.00  0.00    +0.003 C 
ATOM     22  C   UNL     1      36.505 -25.258 -13.327  0.00  0.00    +0.037 C 
BRANCH  20  23
ATOM     23  O   UNL     1      36.378 -27.268 -14.607  0.00  0.00    -0.506 OA
ATOM     24  H   UNL     1      35.728 -27.849 -14.953  0.00  0.00    +0.292 HD
ENDBRANCH  20  23
ENDBRANCH   6  17
BRANCH   7  25
ATOM     25  C   UNL     1      32.196 -23.550 -15.424  0.00  0.00    +0.036 C 
ATOM     26  C   UNL     1      31.452 -24.706 -15.666  0.00  0.00    +0.039 C 
ATOM     27  C   UNL     1      32.074 -22.890 -14.201  0.00  0.00    +0.003 C 
ATOM     28  C   UNL     1      30.589 -25.200 -14.687  0.00  0.00    +0.134 C 
ATOM     29  C   UNL     1      31.212 -23.384 -13.222  0.00  0.00    +0.003 C 
ATOM     30  C   UNL     1      30.469 -24.539 -13.465  0.00  0.00    +0.037 C 
BRANCH  28  31
ATOM     31  O   UNL     1      29.865 -26.329 -14.924  0.00  0.00    -0.506 OA
ATOM     32  H   UNL     1      28.932 -26.312 -14.845  0.00  0.00    +0.292 HD
ENDBRANCH  28  31
ENDBRANCH   7  25
TORSDOF 4
ENDMDL
MODEL 5
REMARK VINA RESULT:      -9.7      2.906      5.947
REMARK  Name = 10427712
REMARK  4 active torsions:
REMARK  status: ('A' for Active; 'I' for Inactive)
REMARK    1  A    between atoms: C_6  and  C_14
REMARK    2  A    between atoms: C_7  and  C_22
REMARK    3  A    between atoms: C_17  and  O_20
REMARK    4  A    between atoms: C_25  and  O_28
REMARK                            x       y       z     vdW  Elec       q    Type
REMARK                         _______ _______ _______ _____ _____    ______ ____
ROOT
ATOM      1  N   UNL     1      33.421 -22.643 -17.603  0.00  0.00    -0.383 NA
ATOM      2  N   UNL     1      36.077 -22.668 -16.823  0.00  0.00    -0.335 NA
ATOM      3  N   UNL     1      36.662 -21.488 -18.727  0.00  0.00    -0.259 NA
ATOM      4  N   UNL     1      35.004 -20.834 -20.331  0.00  0.00    -0.310 NA
ATOM      5  N   UNL     1      37.258 -20.292 -20.656  0.00  0.00    -0.283 N 
ATOM      6  C   UNL     1      33.804 -23.235 -16.460  0.00  0.00    +0.163 C 
ATOM      7  C   UNL     1      35.117 -23.246 -16.076  0.00  0.00    +0.173 C 
ATOM      8  C   UNL     1      34.382 -22.065 -18.348  0.00  0.00    +0.261 C 
ATOM      9  C   UNL     1      35.726 -22.069 -17.968  0.00  0.00    +0.185 C 
ATOM     10  C   UNL     1      34.093 -21.430 -19.541  0.00  0.00    +0.232 C 
ATOM     11  C   UNL     1      36.257 -20.900 -19.869  0.00  0.00    +0.208 C 
ATOM     12  H   UNL     1      38.197 -20.312 -20.361  0.00  0.00    +0.156 HD
ATOM     13  H   UNL     1      37.017 -19.847 -21.502  0.00  0.00    +0.156 HD
ATOM     14  N   UNL     1      32.739 -21.401 -19.967  0.00  0.00    -0.329 N 
ATOM     15  H   UNL     1      32.498 -20.956 -20.812  0.00  0.00    +0.145 HD
ATOM     16  H   UNL     1      32.041 -21.825 -19.418  0.00  0.00    +0.145 HD
ENDROOT
BRANCH   6  17
ATOM     17  C   UNL     1      32.737 -23.840 -15.700  0.00  0.00    +0.035 C 
ATOM     18  C   UNL     1      31.425 -23.794 -16.175  0.00  0.00    +0.039 C 
ATOM     19  C   UNL     1      33.013 -24.471 -14.485  0.00  0.00    +0.003 C 
ATOM     20  C   UNL     1      30.394 -24.378 -15.439  0.00  0.00    +0.134 C 
ATOM     21  C   UNL     1      31.982 -25.054 -13.749  0.00  0.00    +0.003 C 
ATOM     22  C   UNL     1      30.672 -25.007 -14.226  0.00  0.00    +0.037 C 
BRANCH  20  23
ATOM     23  O   UNL     1      29.116 -24.335 -15.906  0.00  0.00    -0.506 OA
ATOM     24  H   UNL     1      28.771 -25.056 -16.396  0.00  0.00    +0.292 HD
ENDBRANCH  20  23
ENDBRANCH   6  17
BRANCH   7  25
ATOM     25  C   UNL     1      35.590 -23.865 -14.860  0.00  0.00    +0.036 C 
ATOM     26  C   UNL     1      36.035 -25.188 -14.876  0.00  0.00    +0.039 C 
ATOM     27  C   UNL     1      35.600 -23.144 -13.665  0.00  0.00    +0.003 C 
ATOM     28  C   UNL     1      36.490 -25.787 -13.701  0.00  0.00    +0.134 C 
ATOM     29  C   UNL     1      36.055 -23.743 -12.490  0.00  0.00    +0.003 C 
ATOM     30  C   UNL     1      36.500 -25.064 -12.508  0.00  0.00    +0.037 C 
BRANCH  28  31
ATOM     31  O   UNL     1      36.927 -27.077 -13.718  0.00  0.00    -0.506 OA
ATOM     32  H   UNL     1      36.749 -27.621 -14.459  0.00  0.00    +0.292 HD
ENDBRANCH  28  31
ENDBRANCH   7  25
TORSDOF 4
ENDMDL
MODEL 6
REMARK VINA RESULT:      -9.5      3.273      5.902
REMARK  Name = 10427712
REMARK  4 active torsions:
REMARK  status: ('A' for Active; 'I' for Inactive)
REMARK    1  A    between atoms: C_6  and  C_14
REMARK    2  A    between atoms: C_7  and  C_22
REMARK    3  A    between atoms: C_17  and  O_20
REMARK    4  A    between atoms: C_25  and  O_28
REMARK                            x       y       z     vdW  Elec       q    Type
REMARK                         _______ _______ _______ _____ _____    ______ ____
ROOT
ATOM      1  N   UNL     1      34.267 -23.962 -12.862  0.00  0.00    -0.383 NA
ATOM      2  N   UNL     1      36.135 -23.259 -14.779  0.00  0.00    -0.335 NA
ATOM      3  N   UNL     1      37.836 -23.485 -13.224  0.00  0.00    -0.259 NA
ATOM      4  N   UNL     1      37.364 -24.130 -10.964  0.00  0.00    -0.310 NA
ATOM      5  N   UNL     1      39.563 -23.714 -11.652  0.00  0.00    -0.283 N 
ATOM      6  C   UNL     1      33.897 -23.672 -14.119  0.00  0.00    +0.163 C 
ATOM      7  C   UNL     1      34.821 -23.324 -15.066  0.00  0.00    +0.173 C 
ATOM      8  C   UNL     1      35.582 -23.896 -12.577  0.00  0.00    +0.261 C 
ATOM      9  C   UNL     1      36.535 -23.543 -13.533  0.00  0.00    +0.185 C 
ATOM     10  C   UNL     1      36.066 -24.176 -11.313  0.00  0.00    +0.232 C 
ATOM     11  C   UNL     1      38.187 -23.780 -11.959  0.00  0.00    +0.208 C 
ATOM     12  H   UNL     1      40.211 -23.462 -12.348  0.00  0.00    +0.156 HD
ATOM     13  H   UNL     1      39.875 -23.921 -10.740  0.00  0.00    +0.156 HD
ATOM     14  N   UNL     1      35.131 -24.541 -10.309  0.00  0.00    -0.329 N 
ATOM     15  H   UNL     1      35.443 -24.747  -9.398  0.00  0.00    +0.145 HD
ATOM     16  H   UNL     1      34.171 -24.587 -10.523  0.00  0.00    +0.145 HD
ENDROOT
BRANCH   6  17
ATOM     17  C   UNL     1      32.478 -23.755 -14.371  0.00  0.00    +0.035 C 
ATOM     18  C   UNL     1      31.847 -25.000 -14.422  0.00  0.00    +0.039 C 
ATOM     19  C   UNL     1      31.732 -22.590 -14.566  0.00  0.00    +0.003 C 
ATOM     20  C   UNL     1      30.476 -25.079 -14.667  0.00  0.00    +0.134 C 
ATOM     21  C   UNL     1      30.361 -22.670 -14.810  0.00  0.00    +0.003 C 
ATOM     22  C   UNL     1      29.734 -23.915 -14.861  0.00  0.00    +0.037 C 
BRANCH  20  23
ATOM     23  O   UNL     1      29.863 -26.293 -14.715  0.00  0.00    -0.506 OA
ATOM     24  H   UNL     1      30.045 -26.937 -14.058  0.00  0.00    +0.292 HD
ENDBRANCH  20  23
ENDBRANCH   6  17
BRANCH   7  25
ATOM     25  C   UNL     1      34.485 -23.001 -16.432  0.00  0.00    +0.036 C 
ATOM     26  C   UNL     1      35.413 -22.349 -17.246  0.00  0.00    +0.039 C 
ATOM     27  C   UNL     1      33.230 -23.338 -16.942  0.00  0.00    +0.003 C 
ATOM     28  C   UNL     1      35.087 -22.036 -18.566  0.00  0.00    +0.134 C 
ATOM     29  C   UNL     1      32.904 -23.024 -18.262  0.00  0.00    +0.003 C 
ATOM     30  C   UNL     1      33.832 -22.373 -19.074  0.00  0.00    +0.037 C 
BRANCH  28  31
ATOM     31  O   UNL     1      35.993 -21.402 -19.360  0.00  0.00    -0.506 OA
ATOM     32  H   UNL     1      36.543 -20.733 -19.001  0.00  0.00    +0.292 HD
ENDBRANCH  28  31
ENDBRANCH   7  25
TORSDOF 4
ENDMDL
MODEL 7
REMARK VINA RESULT:      -8.8      9.899     13.085
REMARK  Name = 10427712
REMARK  4 active torsions:
REMARK  status: ('A' for Active; 'I' for Inactive)
REMARK    1  A    between atoms: C_6  and  C_14
REMARK    2  A    between atoms: C_7  and  C_22
REMARK    3  A    between atoms: C_17  and  O_20
REMARK    4  A    between atoms: C_25  and  O_28
REMARK                            x       y       z     vdW  Elec       q    Type
REMARK                         _______ _______ _______ _____ _____    ______ ____
ROOT
ATOM      1  N   UNL     1      34.282 -15.401 -23.546  0.00  0.00    -0.383 NA
ATOM      2  N   UNL     1      32.771 -15.310 -21.229  0.00  0.00    -0.335 NA
ATOM      3  N   UNL     1      33.269 -17.530 -20.799  0.00  0.00    -0.259 NA
ATOM      4  N   UNL     1      34.660 -18.792 -22.289  0.00  0.00    -0.310 NA
ATOM      5  N   UNL     1      33.774 -19.779 -20.360  0.00  0.00    -0.283 N 
ATOM      6  C   UNL     1      33.651 -14.277 -23.172  0.00  0.00    +0.163 C 
ATOM      7  C   UNL     1      32.905 -14.233 -22.026  0.00  0.00    +0.173 C 
ATOM      8  C   UNL     1      34.146 -16.478 -22.747  0.00  0.00    +0.261 C 
ATOM      9  C   UNL     1      33.388 -16.446 -21.576  0.00  0.00    +0.185 C 
ATOM     10  C   UNL     1      34.755 -17.683 -23.043  0.00  0.00    +0.232 C 
ATOM     11  C   UNL     1      33.909 -18.647 -21.192  0.00  0.00    +0.208 C 
ATOM     12  H   UNL     1      33.231 -19.726 -19.540  0.00  0.00    +0.156 HD
ATOM     13  H   UNL     1      34.221 -20.624 -20.600  0.00  0.00    +0.156 HD
ATOM     14  N   UNL     1      35.537 -17.760 -24.225  0.00  0.00    -0.329 N 
ATOM     15  H   UNL     1      35.984 -18.603 -24.465  0.00  0.00    +0.145 HD
ATOM     16  H   UNL     1      35.632 -16.970 -24.805  0.00  0.00    +0.145 HD
ENDROOT
BRANCH   6  17
ATOM     17  C   UNL     1      33.827 -13.155 -24.063  0.00  0.00    +0.035 C 
ATOM     18  C   UNL     1      34.410 -11.975 -23.598  0.00  0.00    +0.039 C 
ATOM     19  C   UNL     1      33.411 -13.246 -25.393  0.00  0.00    +0.003 C 
ATOM     20  C   UNL     1      34.578 -10.891 -24.459  0.00  0.00    +0.134 C 
ATOM     21  C   UNL     1      33.579 -12.162 -26.255  0.00  0.00    +0.003 C 
ATOM     22  C   UNL     1      34.162 -10.985 -25.787  0.00  0.00    +0.037 C 
BRANCH  20  23
ATOM     23  O   UNL     1      35.149  -9.743 -24.005  0.00  0.00    -0.506 OA
ATOM     24  H   UNL     1      34.978  -9.447 -23.132  0.00  0.00    +0.292 HD
ENDBRANCH  20  23
ENDBRANCH   6  17
BRANCH   7  25
ATOM     25  C   UNL     1      32.204 -13.055 -21.572  0.00  0.00    +0.036 C 
ATOM     26  C   UNL     1      32.229 -12.702 -20.221  0.00  0.00    +0.039 C 
ATOM     27  C   UNL     1      31.499 -12.266 -22.482  0.00  0.00    +0.003 C 
ATOM     28  C   UNL     1      31.551 -11.565 -19.783  0.00  0.00    +0.134 C 
ATOM     29  C   UNL     1      30.821 -11.128 -22.044  0.00  0.00    +0.003 C 
ATOM     30  C   UNL     1      30.847 -10.777 -20.694  0.00  0.00    +0.037 C 
BRANCH  28  31
ATOM     31  O   UNL     1      31.578 -11.221 -18.466  0.00  0.00    -0.506 OA
ATOM     32  H   UNL     1      30.776 -11.085 -18.001  0.00  0.00    +0.292 HD
ENDBRANCH  28  31
ENDBRANCH   7  25
TORSDOF 4
ENDMDL
MODEL 8
REMARK VINA RESULT:      -8.8      1.859      4.476
REMARK  Name = 10427712
REMARK  4 active torsions:
REMARK  status: ('A' for Active; 'I' for Inactive)
REMARK    1  A    between atoms: C_6  and  C_14
REMARK    2  A    between atoms: C_7  and  C_22
REMARK    3  A    between atoms: C_17  and  O_20
REMARK    4  A    between atoms: C_25  and  O_28
REMARK                            x       y       z     vdW  Elec       q    Type
REMARK                         _______ _______ _______ _____ _____    ______ ____
ROOT
ATOM      1  N   UNL     1      33.267 -23.386 -16.017  0.00  0.00    -0.383 NA
ATOM      2  N   UNL     1      33.151 -24.706 -13.587  0.00  0.00    -0.335 NA
ATOM      3  N   UNL     1      30.864 -24.979 -13.829  0.00  0.00    -0.259 NA
ATOM      4  N   UNL     1      29.721 -24.146 -15.765  0.00  0.00    -0.310 NA
ATOM      5  N   UNL     1      28.547 -25.259 -14.072  0.00  0.00    -0.283 N 
ATOM      6  C   UNL     1      34.372 -23.585 -15.280  0.00  0.00    +0.163 C 
ATOM      7  C   UNL     1      34.313 -24.237 -14.079  0.00  0.00    +0.173 C 
ATOM      8  C   UNL     1      32.106 -23.855 -15.522  0.00  0.00    +0.261 C 
ATOM      9  C   UNL     1      32.032 -24.523 -14.298  0.00  0.00    +0.185 C 
ATOM     10  C   UNL     1      30.912 -23.702 -16.202  0.00  0.00    +0.232 C 
ATOM     11  C   UNL     1      29.769 -24.770 -14.582  0.00  0.00    +0.208 C 
ATOM     12  H   UNL     1      28.527 -25.725 -13.205  0.00  0.00    +0.156 HD
ATOM     13  H   UNL     1      27.714 -25.133 -14.582  0.00  0.00    +0.156 HD
ATOM     14  N   UNL     1      30.941 -23.029 -17.452  0.00  0.00    -0.329 N 
ATOM     15  H   UNL     1      30.109 -22.904 -17.962  0.00  0.00    +0.145 HD
ATOM     16  H   UNL     1      31.793 -22.689 -17.808  0.00  0.00    +0.145 HD
ENDROOT
BRANCH   6  17
ATOM     17  C   UNL     1      35.589 -23.061 -15.854  0.00  0.00    +0.035 C 
ATOM     18  C   UNL     1      36.824 -23.605 -15.497  0.00  0.00    +0.039 C 
ATOM     19  C   UNL     1      35.534 -22.006 -16.769  0.00  0.00    +0.003 C 
ATOM     20  C   UNL     1      37.999 -23.098 -16.051  0.00  0.00    +0.134 C 
ATOM     21  C   UNL     1      36.709 -21.498 -17.323  0.00  0.00    +0.003 C 
ATOM     22  C   UNL     1      37.941 -22.044 -16.963  0.00  0.00    +0.037 C 
BRANCH  20  23
ATOM     23  O   UNL     1      39.201 -23.631 -15.702  0.00  0.00    -0.506 OA
ATOM     24  H   UNL     1      39.406 -24.516 -15.933  0.00  0.00    +0.292 HD
ENDBRANCH  20  23
ENDBRANCH   6  17
BRANCH   7  25
ATOM     25  C   UNL     1      35.465 -24.480 -13.244  0.00  0.00    +0.036 C 
ATOM     26  C   UNL     1      35.866 -23.524 -12.309  0.00  0.00    +0.039 C 
ATOM     27  C   UNL     1      36.183 -25.671 -13.370  0.00  0.00    +0.003 C 
ATOM     28  C   UNL     1      36.980 -23.759 -11.502  0.00  0.00    +0.134 C 
ATOM     29  C   UNL     1      37.296 -25.906 -12.563  0.00  0.00    +0.003 C 
ATOM     30  C   UNL     1      37.695 -24.950 -11.630  0.00  0.00    +0.037 C 
BRANCH  28  31
ATOM     31  O   UNL     1      37.368 -22.827 -10.589  0.00  0.00    -0.506 OA
ATOM     32  H   UNL     1      36.845 -22.062 -10.449  0.00  0.00    +0.292 HD
ENDBRANCH  28  31
ENDBRANCH   7  25
TORSDOF 4
ENDMDL
MODEL 9
REMARK VINA RESULT:      -8.7      9.618     12.826
REMARK  Name = 10427712
REMARK  4 active torsions:
REMARK  status: ('A' for Active; 'I' for Inactive)
REMARK    1  A    between atoms: C_6  and  C_14
REMARK    2  A    between atoms: C_7  and  C_22
REMARK    3  A    between atoms: C_17  and  O_20
REMARK    4  A    between atoms: C_25  and  O_28
REMARK                            x       y       z     vdW  Elec       q    Type
REMARK                         _______ _______ _______ _____ _____    ______ ____
ROOT
ATOM      1  N   UNL     1      34.222 -15.911 -23.735  0.00  0.00    -0.383 NA
ATOM      2  N   UNL     1      33.093 -15.739 -21.214  0.00  0.00    -0.335 NA
ATOM      3  N   UNL     1      33.675 -17.939 -20.788  0.00  0.00    -0.259 NA
ATOM      4  N   UNL     1      34.828 -19.250 -22.431  0.00  0.00    -0.310 NA
ATOM      5  N   UNL     1      34.265 -20.168 -20.352  0.00  0.00    -0.283 N 
ATOM      6  C   UNL     1      33.647 -14.776 -23.308  0.00  0.00    +0.163 C 
ATOM      7  C   UNL     1      33.089 -14.692 -22.061  0.00  0.00    +0.173 C 
ATOM      8  C   UNL     1      34.225 -16.957 -22.886  0.00  0.00    +0.261 C 
ATOM      9  C   UNL     1      33.660 -16.885 -21.612  0.00  0.00    +0.185 C 
ATOM     10  C   UNL     1      34.792 -18.170 -23.230  0.00  0.00    +0.232 C 
ATOM     11  C   UNL     1      34.257 -19.067 -21.235  0.00  0.00    +0.208 C 
ATOM     12  H   UNL     1      33.857 -20.087 -19.459  0.00  0.00    +0.156 HD
ATOM     13  H   UNL     1      34.678 -21.019 -20.628  0.00  0.00    +0.156 HD
ATOM     14  N   UNL     1      35.379 -18.288 -24.517  0.00  0.00    -0.329 N 
ATOM     15  H   UNL     1      35.792 -19.138 -24.793  0.00  0.00    +0.145 HD
ATOM     16  H   UNL     1      35.374 -17.520 -25.133  0.00  0.00    +0.145 HD
ENDROOT
BRANCH   6  17
ATOM     17  C   UNL     1      33.669 -13.687 -24.255  0.00  0.00    +0.035 C 
ATOM     18  C   UNL     1      33.161 -13.868 -25.543  0.00  0.00    +0.039 C 
ATOM     19  C   UNL     1      34.202 -12.449 -23.887  0.00  0.00    +0.003 C 
ATOM     20  C   UNL     1      33.185 -12.816 -26.459  0.00  0.00    +0.134 C 
ATOM     21  C   UNL     1      34.225 -11.397 -24.803  0.00  0.00    +0.003 C 
ATOM     22  C   UNL     1      33.717 -11.582 -26.089  0.00  0.00    +0.037 C 
BRANCH  20  23
ATOM     23  O   UNL     1      32.687 -12.994 -27.713  0.00  0.00    -0.506 OA
ATOM     24  H   UNL     1      32.810 -13.812 -28.155  0.00  0.00    +0.292 HD
ENDBRANCH  20  23
ENDBRANCH   6  17
BRANCH   7  25
ATOM     25  C   UNL     1      32.457 -13.500 -21.546  0.00  0.00    +0.036 C 
ATOM     26  C   UNL     1      31.827 -12.610 -22.417  0.00  0.00    +0.039 C 
ATOM     27  C   UNL     1      32.475 -13.235 -20.176  0.00  0.00    +0.003 C 
ATOM     28  C   UNL     1      31.217 -11.458 -21.920  0.00  0.00    +0.134 C 
ATOM     29  C   UNL     1      31.866 -12.083 -19.678  0.00  0.00    +0.003 C 
ATOM     30  C   UNL     1      31.237 -11.195 -20.550  0.00  0.00    +0.037 C 
BRANCH  28  31
ATOM     31  O   UNL     1      30.601 -10.592 -22.770  0.00  0.00    -0.506 OA
ATOM     32  H   UNL     1      31.070  -9.854 -23.108  0.00  0.00    +0.292 HD
ENDBRANCH  28  31
ENDBRANCH   7  25
TORSDOF 4
ENDMDL
