MODEL 1
REMARK VINA RESULT:      -8.0      0.000      0.000
REMARK  Name = 11597698
REMARK  10 active torsions:
REMARK  status: ('A' for Active; 'I' for Inactive)
REMARK    1  A    between atoms: C_1  and  C_4
REMARK    2  A    between atoms: C_1  and  N_15
REMARK    3  A    between atoms: C_1  and  C_19
REMARK    4  A    between atoms: N_3  and  C_6
REMARK    5  A    between atoms: C_6  and  C_8
REMARK    6  A    between atoms: C_8  and  C_9
REMARK    7  A    between atoms: C_19  and  C_20
REMARK    8  A    between atoms: C_20  and  C_21
REMARK    9  A    between atoms: C_21  and  C_22
REMARK   10  A    between atoms: C_22  and  N_23
REMARK                            x       y       z     vdW  Elec       q    Type
REMARK                         _______ _______ _______ _____ _____    ______ ____
ROOT
ATOM      1  C   UNL     1      33.697 -14.027 -22.067  0.00  0.00    +0.013 C 
ENDROOT
BRANCH   1   4
ATOM      2  O   UNL     1      32.844 -16.102 -21.140  0.00  0.00    -0.277 OA
ATOM      3  N   UNL     1      34.481 -16.200 -22.783  0.00  0.00    -0.307 N 
ATOM      4  C   UNL     1      33.603 -15.545 -21.932  0.00  0.00    +0.202 C 
ATOM      5  H   UNL     1      35.046 -15.659 -23.380  0.00  0.00    +0.149 HD
BRANCH   3   6
ATOM      6  C   UNL     1      34.606 -17.639 -22.837  0.00  0.00    +0.076 C 
ATOM      7  C   UNL     1      35.025 -18.066 -24.241  0.00  0.00    +0.022 C 
BRANCH   6   8
ATOM      8  C   UNL     1      35.609 -18.152 -21.792  0.00  0.00    +0.046 C 
BRANCH   8   9
ATOM      9  C   UNL     1      35.090 -19.333 -21.005  0.00  0.00    -0.021 C 
ATOM     10  C   UNL     1      35.991 -20.205 -20.417  0.00  0.00    -0.004 C 
ATOM     11  C   UNL     1      33.722 -19.519 -20.884  0.00  0.00    -0.004 C 
ATOM     12  C   UNL     1      35.511 -21.294 -19.690  0.00  0.00    -0.000 C 
ATOM     13  C   UNL     1      33.243 -20.608 -20.157  0.00  0.00    -0.000 C 
ATOM     14  C   UNL     1      34.137 -21.497 -19.560  0.00  0.00    -0.000 C 
ENDBRANCH   8   9
ENDBRANCH   6   8
ENDBRANCH   3   6
ENDBRANCH   1   4
BRANCH   1  15
ATOM     15  N   UNL     1      34.264 -13.735 -23.383  0.00  0.00    +0.387 N 
ATOM     16  H   UNL     1      34.887 -14.492 -23.660  0.00  0.00    -0.089 HD
ATOM     17  H   UNL     1      34.789 -12.861 -23.341  0.00  0.00    -0.089 HD
ATOM     18  H   UNL     1      33.511 -13.647 -24.065  0.00  0.00    -0.089 HD
ENDBRANCH   1  15
BRANCH   1  19
ATOM     19  C   UNL     1      32.302 -13.411 -21.885  0.00  0.00    -0.013 C 
BRANCH  19  20
ATOM     20  C   UNL     1      32.063 -12.853 -20.478  0.00  0.00    -0.004 C 
BRANCH  20  21
ATOM     21  C   UNL     1      31.549 -11.412 -20.532  0.00  0.00    -0.024 C 
BRANCH  21  22
ATOM     22  C   UNL     1      31.551 -10.773 -19.146  0.00  0.00    -0.086 C 
BRANCH  22  23
ATOM     23  N   UNL     1      32.472  -9.643 -19.110  0.00  0.00    +0.380 N 
ATOM     24  H   UNL     1      32.069  -8.893 -18.546  0.00  0.00    -0.089 HD
ATOM     25  H   UNL     1      32.633  -9.305 -20.059  0.00  0.00    -0.089 HD
ATOM     26  H   UNL     1      33.357  -9.939 -18.700  0.00  0.00    -0.089 HD
ENDBRANCH  22  23
ENDBRANCH  21  22
ENDBRANCH  20  21
ENDBRANCH  19  20
ENDBRANCH   1  19
TORSDOF 10
ENDMDL
MODEL 2
REMARK VINA RESULT:      -7.8      5.013      9.132
REMARK  Name = 11597698
REMARK  10 active torsions:
REMARK  status: ('A' for Active; 'I' for Inactive)
REMARK    1  A    between atoms: C_1  and  C_4
REMARK    2  A    between atoms: C_1  and  N_15
REMARK    3  A    between atoms: C_1  and  C_19
REMARK    4  A    between atoms: N_3  and  C_6
REMARK    5  A    between atoms: C_6  and  C_8
REMARK    6  A    between atoms: C_8  and  C_9
REMARK    7  A    between atoms: C_19  and  C_20
REMARK    8  A    between atoms: C_20  and  C_21
REMARK    9  A    between atoms: C_21  and  C_22
REMARK   10  A    between atoms: C_22  and  N_23
REMARK                            x       y       z     vdW  Elec       q    Type
REMARK                         _______ _______ _______ _____ _____    ______ ____
ROOT
ATOM      1  C   UNL     1      36.612 -21.974 -17.676  0.00  0.00    +0.013 C 
ENDROOT
BRANCH   1   4
ATOM      2  O   UNL     1      35.054 -22.642 -19.412  0.00  0.00    -0.277 OA
ATOM      3  N   UNL     1      36.023 -20.536 -19.530  0.00  0.00    -0.307 N 
ATOM      4  C   UNL     1      35.800 -21.779 -18.954  0.00  0.00    +0.202 C 
ATOM      5  H   UNL     1      36.641 -19.916 -19.080  0.00  0.00    +0.149 HD
BRANCH   3   6
ATOM      6  C   UNL     1      35.393 -20.108 -20.758  0.00  0.00    +0.076 C 
ATOM      7  C   UNL     1      33.899 -19.909 -20.526  0.00  0.00    +0.022 C 
BRANCH   6   8
ATOM      8  C   UNL     1      36.036 -18.820 -21.296  0.00  0.00    +0.046 C 
BRANCH   8   9
ATOM      9  C   UNL     1      35.449 -18.373 -22.614  0.00  0.00    -0.021 C 
ATOM     10  C   UNL     1      35.316 -17.019 -22.873  0.00  0.00    -0.004 C 
ATOM     11  C   UNL     1      35.056 -19.326 -23.540  0.00  0.00    -0.004 C 
ATOM     12  C   UNL     1      34.775 -16.607 -24.090  0.00  0.00    -0.000 C 
ATOM     13  C   UNL     1      34.515 -18.914 -24.757  0.00  0.00    -0.000 C 
ATOM     14  C   UNL     1      34.374 -17.554 -25.033  0.00  0.00    -0.000 C 
ENDBRANCH   8   9
ENDBRANCH   6   8
ENDBRANCH   3   6
ENDBRANCH   1   4
BRANCH   1  15
ATOM     15  N   UNL     1      37.186 -20.679 -17.314  0.00  0.00    +0.387 N 
ATOM     16  H   UNL     1      37.820 -20.370 -18.050  0.00  0.00    -0.089 HD
ATOM     17  H   UNL     1      37.699 -20.767 -16.437  0.00  0.00    -0.089 HD
ATOM     18  H   UNL     1      36.436 -19.996 -17.202  0.00  0.00    -0.089 HD
ENDBRANCH   1  15
BRANCH   1  19
ATOM     19  C   UNL     1      35.704 -22.537 -16.573  0.00  0.00    -0.013 C 
BRANCH  19  20
ATOM     20  C   UNL     1      36.476 -23.199 -15.428  0.00  0.00    -0.004 C 
BRANCH  20  21
ATOM     21  C   UNL     1      35.842 -24.535 -15.031  0.00  0.00    -0.024 C 
BRANCH  21  22
ATOM     22  C   UNL     1      36.871 -25.663 -15.055  0.00  0.00    -0.086 C 
BRANCH  22  23
ATOM     23  N   UNL     1      36.202 -26.957 -15.113  0.00  0.00    +0.380 N 
ATOM     24  H   UNL     1      36.433 -27.498 -14.279  0.00  0.00    -0.089 HD
ATOM     25  H   UNL     1      36.510 -27.463 -15.943  0.00  0.00    -0.089 HD
ATOM     26  H   UNL     1      35.193 -26.816 -15.157  0.00  0.00    -0.089 HD
ENDBRANCH  22  23
ENDBRANCH  21  22
ENDBRANCH  20  21
ENDBRANCH  19  20
ENDBRANCH   1  19
TORSDOF 10
ENDMDL
MODEL 3
REMARK VINA RESULT:      -7.8      1.904      3.123
REMARK  Name = 11597698
REMARK  10 active torsions:
REMARK  status: ('A' for Active; 'I' for Inactive)
REMARK    1  A    between atoms: C_1  and  C_4
REMARK    2  A    between atoms: C_1  and  N_15
REMARK    3  A    between atoms: C_1  and  C_19
REMARK    4  A    between atoms: N_3  and  C_6
REMARK    5  A    between atoms: C_6  and  C_8
REMARK    6  A    between atoms: C_8  and  C_9
REMARK    7  A    between atoms: C_19  and  C_20
REMARK    8  A    between atoms: C_20  and  C_21
REMARK    9  A    between atoms: C_21  and  C_22
REMARK   10  A    between atoms: C_22  and  N_23
REMARK                            x       y       z     vdW  Elec       q    Type
REMARK                         _______ _______ _______ _____ _____    ______ ____
ROOT
ATOM      1  C   UNL     1      32.026 -12.245 -21.674  0.00  0.00    +0.013 C 
ENDROOT
BRANCH   1   4
ATOM      2  O   UNL     1      32.122 -14.660 -21.458  0.00  0.00    -0.277 OA
ATOM      3  N   UNL     1      32.892 -13.681 -23.417  0.00  0.00    -0.307 N 
ATOM      4  C   UNL     1      32.334 -13.663 -22.147  0.00  0.00    +0.202 C 
ATOM      5  H   UNL     1      33.019 -12.824 -23.885  0.00  0.00    +0.149 HD
BRANCH   3   6
ATOM      6  C   UNL     1      33.296 -14.896 -24.088  0.00  0.00    +0.076 C 
ATOM      7  C   UNL     1      33.235 -14.693 -25.598  0.00  0.00    +0.022 C 
BRANCH   6   8
ATOM      8  C   UNL     1      34.705 -15.331 -23.655  0.00  0.00    +0.046 C 
BRANCH   8   9
ATOM      9  C   UNL     1      34.757 -16.760 -23.166  0.00  0.00    -0.021 C 
ATOM     10  C   UNL     1      34.859 -17.789 -24.087  0.00  0.00    -0.004 C 
ATOM     11  C   UNL     1      34.706 -17.013 -21.804  0.00  0.00    -0.004 C 
ATOM     12  C   UNL     1      34.908 -19.107 -23.635  0.00  0.00    -0.000 C 
ATOM     13  C   UNL     1      34.755 -18.331 -21.352  0.00  0.00    -0.000 C 
ATOM     14  C   UNL     1      34.856 -19.379 -22.268  0.00  0.00    -0.000 C 
ENDBRANCH   8   9
ENDBRANCH   6   8
ENDBRANCH   3   6
ENDBRANCH   1   4
BRANCH   1  15
ATOM     15  N   UNL     1      30.833 -11.790 -22.387  0.00  0.00    +0.387 N 
ATOM     16  H   UNL     1      31.104 -11.408 -23.293  0.00  0.00    -0.089 HD
ATOM     17  H   UNL     1      30.365 -11.068 -21.840  0.00  0.00    -0.089 HD
ATOM     18  H   UNL     1      30.200 -12.577 -22.525  0.00  0.00    -0.089 HD
ENDBRANCH   1  15
BRANCH   1  19
ATOM     19  C   UNL     1      31.828 -12.245 -20.151  0.00  0.00    -0.013 C 
BRANCH  19  20
ATOM     20  C   UNL     1      31.098 -11.002 -19.633  0.00  0.00    -0.004 C 
BRANCH  20  21
ATOM     21  C   UNL     1      32.087  -9.901 -19.240  0.00  0.00    -0.024 C 
BRANCH  21  22
ATOM     22  C   UNL     1      32.156  -8.814 -20.310  0.00  0.00    -0.086 C 
BRANCH  22  23
ATOM     23  N   UNL     1      32.995  -7.710 -19.857  0.00  0.00    +0.380 N 
ATOM     24  H   UNL     1      32.990  -7.676 -18.837  0.00  0.00    -0.089 HD
ATOM     25  H   UNL     1      32.632  -6.833 -20.228  0.00  0.00    -0.089 HD
ATOM     26  H   UNL     1      33.949  -7.851 -20.188  0.00  0.00    -0.089 HD
ENDBRANCH  22  23
ENDBRANCH  21  22
ENDBRANCH  20  21
ENDBRANCH  19  20
ENDBRANCH   1  19
TORSDOF 10
ENDMDL
MODEL 4
REMARK VINA RESULT:      -7.6      1.391      1.921
REMARK  Name = 11597698
REMARK  10 active torsions:
REMARK  status: ('A' for Active; 'I' for Inactive)
REMARK    1  A    between atoms: C_1  and  C_4
REMARK    2  A    between atoms: C_1  and  N_15
REMARK    3  A    between atoms: C_1  and  C_19
REMARK    4  A    between atoms: N_3  and  C_6
REMARK    5  A    between atoms: C_6  and  C_8
REMARK    6  A    between atoms: C_8  and  C_9
REMARK    7  A    between atoms: C_19  and  C_20
REMARK    8  A    between atoms: C_20  and  C_21
REMARK    9  A    between atoms: C_21  and  C_22
REMARK   10  A    between atoms: C_22  and  N_23
REMARK                            x       y       z     vdW  Elec       q    Type
REMARK                         _______ _______ _______ _____ _____    ______ ____
ROOT
ATOM      1  C   UNL     1      34.019 -14.299 -21.867  0.00  0.00    +0.013 C 
ENDROOT
BRANCH   1   4
ATOM      2  O   UNL     1      32.995 -16.340 -21.045  0.00  0.00    -0.277 OA
ATOM      3  N   UNL     1      34.708 -16.497 -22.603  0.00  0.00    -0.307 N 
ATOM      4  C   UNL     1      33.826 -15.811 -21.780  0.00  0.00    +0.202 C 
ATOM      5  H   UNL     1      35.336 -15.976 -23.155  0.00  0.00    +0.149 HD
BRANCH   3   6
ATOM      6  C   UNL     1      34.749 -17.939 -22.692  0.00  0.00    +0.076 C 
ATOM      7  C   UNL     1      35.151 -18.355 -24.104  0.00  0.00    +0.022 C 
BRANCH   6   8
ATOM      8  C   UNL     1      35.714 -18.535 -21.655  0.00  0.00    +0.046 C 
BRANCH   8   9
ATOM      9  C   UNL     1      35.101 -19.661 -20.856  0.00  0.00    -0.021 C 
ATOM     10  C   UNL     1      33.722 -19.762 -20.774  0.00  0.00    -0.004 C 
ATOM     11  C   UNL     1      35.930 -20.572 -20.222  0.00  0.00    -0.004 C 
ATOM     12  C   UNL     1      33.157 -20.802 -20.037  0.00  0.00    -0.000 C 
ATOM     13  C   UNL     1      35.365 -21.612 -19.485  0.00  0.00    -0.000 C 
ATOM     14  C   UNL     1      33.977 -21.727 -19.392  0.00  0.00    -0.000 C 
ENDBRANCH   8   9
ENDBRANCH   6   8
ENDBRANCH   3   6
ENDBRANCH   1   4
BRANCH   1  15
ATOM     15  N   UNL     1      34.425 -13.982 -23.235  0.00  0.00    +0.387 N 
ATOM     16  H   UNL     1      35.442 -13.984 -23.297  0.00  0.00    -0.089 HD
ATOM     17  H   UNL     1      34.071 -13.060 -23.490  0.00  0.00    -0.089 HD
ATOM     18  H   UNL     1      34.043 -14.681 -23.873  0.00  0.00    -0.089 HD
ENDBRANCH   1  15
BRANCH   1  19
ATOM     19  C   UNL     1      32.713 -13.594 -21.470  0.00  0.00    -0.013 C 
BRANCH  19  20
ATOM     20  C   UNL     1      32.077 -12.801 -22.616  0.00  0.00    -0.004 C 
BRANCH  20  21
ATOM     21  C   UNL     1      31.904 -11.327 -22.240  0.00  0.00    -0.024 C 
BRANCH  21  22
ATOM     22  C   UNL     1      32.748 -10.425 -23.139  0.00  0.00    -0.086 C 
BRANCH  22  23
ATOM     23  N   UNL     1      32.009  -9.216 -23.480  0.00  0.00    +0.380 N 
ATOM     24  H   UNL     1      32.523  -8.691 -24.188  0.00  0.00    -0.089 HD
ATOM     25  H   UNL     1      31.894  -8.640 -22.646  0.00  0.00    -0.089 HD
ATOM     26  H   UNL     1      31.091  -9.470 -23.846  0.00  0.00    -0.089 HD
ENDBRANCH  22  23
ENDBRANCH  21  22
ENDBRANCH  20  21
ENDBRANCH  19  20
ENDBRANCH   1  19
TORSDOF 10
ENDMDL
MODEL 5
REMARK VINA RESULT:      -7.5      1.991      7.722
REMARK  Name = 11597698
REMARK  10 active torsions:
REMARK  status: ('A' for Active; 'I' for Inactive)
REMARK    1  A    between atoms: C_1  and  C_4
REMARK    2  A    between atoms: C_1  and  N_15
REMARK    3  A    between atoms: C_1  and  C_19
REMARK    4  A    between atoms: N_3  and  C_6
REMARK    5  A    between atoms: C_6  and  C_8
REMARK    6  A    between atoms: C_8  and  C_9
REMARK    7  A    between atoms: C_19  and  C_20
REMARK    8  A    between atoms: C_20  and  C_21
REMARK    9  A    between atoms: C_21  and  C_22
REMARK   10  A    between atoms: C_22  and  N_23
REMARK                            x       y       z     vdW  Elec       q    Type
REMARK                         _______ _______ _______ _____ _____    ______ ____
ROOT
ATOM      1  C   UNL     1      34.511 -16.636 -22.831  0.00  0.00    +0.013 C 
ENDROOT
BRANCH   1   4
ATOM      2  O   UNL     1      34.554 -14.836 -21.204  0.00  0.00    -0.277 OA
ATOM      3  N   UNL     1      33.802 -14.383 -23.353  0.00  0.00    -0.307 N 
ATOM      4  C   UNL     1      34.309 -15.200 -22.353  0.00  0.00    +0.202 C 
ATOM      5  H   UNL     1      33.641 -14.775 -24.242  0.00  0.00    +0.149 HD
BRANCH   3   6
ATOM      6  C   UNL     1      33.499 -12.984 -23.155  0.00  0.00    +0.076 C 
ATOM      7  C   UNL     1      33.776 -12.212 -24.442  0.00  0.00    +0.022 C 
BRANCH   6   8
ATOM      8  C   UNL     1      32.044 -12.785 -22.705  0.00  0.00    +0.046 C 
BRANCH   8   9
ATOM      9  C   UNL     1      31.895 -11.732 -21.633  0.00  0.00    -0.021 C 
ATOM     10  C   UNL     1      31.755 -12.124 -20.312  0.00  0.00    -0.004 C 
ATOM     11  C   UNL     1      31.904 -10.393 -21.990  0.00  0.00    -0.004 C 
ATOM     12  C   UNL     1      31.619 -11.151 -19.322  0.00  0.00    -0.000 C 
ATOM     13  C   UNL     1      31.768  -9.421 -21.000  0.00  0.00    -0.000 C 
ATOM     14  C   UNL     1      31.625  -9.799 -19.665  0.00  0.00    -0.000 C 
ENDBRANCH   8   9
ENDBRANCH   6   8
ENDBRANCH   3   6
ENDBRANCH   1   4
BRANCH   1  15
ATOM     15  N   UNL     1      35.642 -16.639 -23.757  0.00  0.00    +0.387 N 
ATOM     16  H   UNL     1      35.806 -17.588 -24.090  0.00  0.00    -0.089 HD
ATOM     17  H   UNL     1      36.475 -16.297 -23.278  0.00  0.00    -0.089 HD
ATOM     18  H   UNL     1      35.433 -16.031 -24.550  0.00  0.00    -0.089 HD
ENDBRANCH   1  15
BRANCH   1  19
ATOM     19  C   UNL     1      34.749 -17.549 -21.619  0.00  0.00    -0.013 C 
BRANCH  19  20
ATOM     20  C   UNL     1      34.599 -19.040 -21.943  0.00  0.00    -0.004 C 
BRANCH  20  21
ATOM     21  C   UNL     1      34.386 -19.864 -20.670  0.00  0.00    -0.024 C 
BRANCH  21  22
ATOM     22  C   UNL     1      32.909 -20.193 -20.467  0.00  0.00    -0.086 C 
BRANCH  22  23
ATOM     23  N   UNL     1      32.750 -21.171 -19.397  0.00  0.00    +0.380 N 
ATOM     24  H   UNL     1      33.623 -21.247 -18.874  0.00  0.00    -0.089 HD
ATOM     25  H   UNL     1      32.513 -22.078 -19.797  0.00  0.00    -0.089 HD
ATOM     26  H   UNL     1      32.004 -20.871 -18.770  0.00  0.00    -0.089 HD
ENDBRANCH  22  23
ENDBRANCH  21  22
ENDBRANCH  20  21
ENDBRANCH  19  20
ENDBRANCH   1  19
TORSDOF 10
ENDMDL
MODEL 6
REMARK VINA RESULT:      -7.5      5.137      8.289
REMARK  Name = 11597698
REMARK  10 active torsions:
REMARK  status: ('A' for Active; 'I' for Inactive)
REMARK    1  A    between atoms: C_1  and  C_4
REMARK    2  A    between atoms: C_1  and  N_15
REMARK    3  A    between atoms: C_1  and  C_19
REMARK    4  A    between atoms: N_3  and  C_6
REMARK    5  A    between atoms: C_6  and  C_8
REMARK    6  A    between atoms: C_8  and  C_9
REMARK    7  A    between atoms: C_19  and  C_20
REMARK    8  A    between atoms: C_20  and  C_21
REMARK    9  A    between atoms: C_21  and  C_22
REMARK   10  A    between atoms: C_22  and  N_23
REMARK                            x       y       z     vdW  Elec       q    Type
REMARK                         _______ _______ _______ _____ _____    ______ ____
ROOT
ATOM      1  C   UNL     1      33.376 -23.380 -17.469  0.00  0.00    +0.013 C 
ENDROOT
BRANCH   1   4
ATOM      2  O   UNL     1      34.156 -23.605 -19.756  0.00  0.00    -0.277 OA
ATOM      3  N   UNL     1      33.272 -21.571 -19.071  0.00  0.00    -0.307 N 
ATOM      4  C   UNL     1      33.647 -22.895 -18.891  0.00  0.00    +0.202 C 
ATOM      5  H   UNL     1      32.870 -21.090 -18.311  0.00  0.00    +0.149 HD
BRANCH   3   6
ATOM      6  C   UNL     1      33.442 -20.863 -20.319  0.00  0.00    +0.076 C 
ATOM      7  C   UNL     1      32.358 -19.797 -20.456  0.00  0.00    +0.022 C 
BRANCH   6   8
ATOM      8  C   UNL     1      34.840 -20.232 -20.418  0.00  0.00    +0.046 C 
BRANCH   8   9
ATOM      9  C   UNL     1      34.927 -19.153 -21.471  0.00  0.00    -0.021 C 
ATOM     10  C   UNL     1      34.873 -19.504 -22.810  0.00  0.00    -0.004 C 
ATOM     11  C   UNL     1      35.058 -17.830 -21.078  0.00  0.00    -0.004 C 
ATOM     12  C   UNL     1      34.953 -18.507 -23.781  0.00  0.00    -0.000 C 
ATOM     13  C   UNL     1      35.138 -16.833 -22.049  0.00  0.00    -0.000 C 
ATOM     14  C   UNL     1      35.086 -17.171 -23.402  0.00  0.00    -0.000 C 
ENDBRANCH   8   9
ENDBRANCH   6   8
ENDBRANCH   3   6
ENDBRANCH   1   4
BRANCH   1  15
ATOM     15  N   UNL     1      34.501 -22.957 -16.635  0.00  0.00    +0.387 N 
ATOM     16  H   UNL     1      34.602 -23.600 -15.850  0.00  0.00    -0.089 HD
ATOM     17  H   UNL     1      34.329 -22.015 -16.284  0.00  0.00    -0.089 HD
ATOM     18  H   UNL     1      35.356 -22.963 -17.192  0.00  0.00    -0.089 HD
ENDBRANCH   1  15
BRANCH   1  19
ATOM     19  C   UNL     1      32.040 -22.803 -16.978  0.00  0.00    -0.013 C 
BRANCH  19  20
ATOM     20  C   UNL     1      31.749 -23.110 -15.505  0.00  0.00    -0.004 C 
BRANCH  20  21
ATOM     21  C   UNL     1      30.254 -22.987 -15.198  0.00  0.00    -0.024 C 
BRANCH  21  22
ATOM     22  C   UNL     1      29.446 -22.761 -16.473  0.00  0.00    -0.086 C 
BRANCH  22  23
ATOM     23  N   UNL     1      28.041 -22.538 -16.150  0.00  0.00    +0.380 N 
ATOM     24  H   UNL     1      27.477 -23.289 -16.548  0.00  0.00    -0.089 HD
ATOM     25  H   UNL     1      27.740 -21.644 -16.536  0.00  0.00    -0.089 HD
ATOM     26  H   UNL     1      27.924 -22.527 -15.137  0.00  0.00    -0.089 HD
ENDBRANCH  22  23
ENDBRANCH  21  22
ENDBRANCH  20  21
ENDBRANCH  19  20
ENDBRANCH   1  19
TORSDOF 10
ENDMDL
MODEL 7
REMARK VINA RESULT:      -7.5      2.304      2.632
REMARK  Name = 11597698
REMARK  10 active torsions:
REMARK  status: ('A' for Active; 'I' for Inactive)
REMARK    1  A    between atoms: C_1  and  C_4
REMARK    2  A    between atoms: C_1  and  N_15
REMARK    3  A    between atoms: C_1  and  C_19
REMARK    4  A    between atoms: N_3  and  C_6
REMARK    5  A    between atoms: C_6  and  C_8
REMARK    6  A    between atoms: C_8  and  C_9
REMARK    7  A    between atoms: C_19  and  C_20
REMARK    8  A    between atoms: C_20  and  C_21
REMARK    9  A    between atoms: C_21  and  C_22
REMARK   10  A    between atoms: C_22  and  N_23
REMARK                            x       y       z     vdW  Elec       q    Type
REMARK                         _______ _______ _______ _____ _____    ______ ____
ROOT
ATOM      1  C   UNL     1      34.132 -14.890 -24.743  0.00  0.00    +0.013 C 
ENDROOT
BRANCH   1   4
ATOM      2  O   UNL     1      33.779 -17.152 -25.547  0.00  0.00    -0.277 OA
ATOM      3  N   UNL     1      34.543 -16.843 -23.377  0.00  0.00    -0.307 N 
ATOM      4  C   UNL     1      34.129 -16.412 -24.630  0.00  0.00    +0.202 C 
ATOM      5  H   UNL     1      34.805 -16.166 -22.712  0.00  0.00    +0.149 HD
BRANCH   3   6
ATOM      6  C   UNL     1      34.610 -18.237 -23.002  0.00  0.00    +0.076 C 
ATOM      7  C   UNL     1      35.269 -19.038 -24.120  0.00  0.00    +0.022 C 
BRANCH   6   8
ATOM      8  C   UNL     1      35.370 -18.423 -21.679  0.00  0.00    +0.046 C 
BRANCH   8   9
ATOM      9  C   UNL     1      34.867 -19.594 -20.868  0.00  0.00    -0.021 C 
ATOM     10  C   UNL     1      35.778 -20.474 -20.309  0.00  0.00    -0.004 C 
ATOM     11  C   UNL     1      33.502 -19.764 -20.697  0.00  0.00    -0.004 C 
ATOM     12  C   UNL     1      35.313 -21.555 -19.560  0.00  0.00    -0.000 C 
ATOM     13  C   UNL     1      33.037 -20.844 -19.948  0.00  0.00    -0.000 C 
ATOM     14  C   UNL     1      33.943 -21.740 -19.379  0.00  0.00    -0.000 C 
ENDBRANCH   8   9
ENDBRANCH   6   8
ENDBRANCH   3   6
ENDBRANCH   1   4
BRANCH   1  15
ATOM     15  N   UNL     1      32.986 -14.505 -25.565  0.00  0.00    +0.387 N 
ATOM     16  H   UNL     1      32.743 -15.272 -26.191  0.00  0.00    -0.089 HD
ATOM     17  H   UNL     1      33.223 -13.679 -26.115  0.00  0.00    -0.089 HD
ATOM     18  H   UNL     1      32.191 -14.294 -24.961  0.00  0.00    -0.089 HD
ENDBRANCH   1  15
BRANCH   1  19
ATOM     19  C   UNL     1      34.074 -14.273 -23.338  0.00  0.00    -0.013 C 
BRANCH  19  20
ATOM     20  C   UNL     1      32.757 -13.545 -23.047  0.00  0.00    -0.004 C 
BRANCH  20  21
ATOM     21  C   UNL     1      32.392 -13.630 -21.563  0.00  0.00    -0.024 C 
BRANCH  21  22
ATOM     22  C   UNL     1      33.168 -14.747 -20.867  0.00  0.00    -0.086 C 
BRANCH  22  23
ATOM     23  N   UNL     1      32.327 -15.929 -20.717  0.00  0.00    +0.380 N 
ATOM     24  H   UNL     1      32.626 -16.457 -19.897  0.00  0.00    -0.089 HD
ATOM     25  H   UNL     1      32.411 -16.514 -21.548  0.00  0.00    -0.089 HD
ATOM     26  H   UNL     1      31.355 -15.643 -20.601  0.00  0.00    -0.089 HD
ENDBRANCH  22  23
ENDBRANCH  21  22
ENDBRANCH  20  21
ENDBRANCH  19  20
ENDBRANCH   1  19
TORSDOF 10
ENDMDL
MODEL 8
REMARK VINA RESULT:      -7.5      2.337      3.372
REMARK  Name = 11597698
REMARK  10 active torsions:
REMARK  status: ('A' for Active; 'I' for Inactive)
REMARK    1  A    between atoms: C_1  and  C_4
REMARK    2  A    between atoms: C_1  and  N_15
REMARK    3  A    between atoms: C_1  and  C_19
REMARK    4  A    between atoms: N_3  and  C_6
REMARK    5  A    between atoms: C_6  and  C_8
REMARK    6  A    between atoms: C_8  and  C_9
REMARK    7  A    between atoms: C_19  and  C_20
REMARK    8  A    between atoms: C_20  and  C_21
REMARK    9  A    between atoms: C_21  and  C_22
REMARK   10  A    between atoms: C_22  and  N_23
REMARK                            x       y       z     vdW  Elec       q    Type
REMARK                         _______ _______ _______ _____ _____    ______ ____
ROOT
ATOM      1  C   UNL     1      33.881 -14.714 -21.615  0.00  0.00    +0.013 C 
ENDROOT
BRANCH   1   4
ATOM      2  O   UNL     1      32.767 -16.781 -21.003  0.00  0.00    -0.277 OA
ATOM      3  N   UNL     1      34.668 -16.886 -22.331  0.00  0.00    -0.307 N 
ATOM      4  C   UNL     1      33.685 -16.228 -21.606  0.00  0.00    +0.202 C 
ATOM      5  H   UNL     1      35.360 -16.347 -22.779  0.00  0.00    +0.149 HD
BRANCH   3   6
ATOM      6  C   UNL     1      34.726 -18.324 -22.463  0.00  0.00    +0.076 C 
ATOM      7  C   UNL     1      35.072 -18.694 -23.902  0.00  0.00    +0.022 C 
BRANCH   6   8
ATOM      8  C   UNL     1      35.742 -18.934 -21.486  0.00  0.00    +0.046 C 
BRANCH   8   9
ATOM      9  C   UNL     1      35.155 -20.035 -20.634  0.00  0.00    -0.021 C 
ATOM     10  C   UNL     1      36.003 -20.883 -19.941  0.00  0.00    -0.004 C 
ATOM     11  C   UNL     1      33.778 -20.175 -20.561  0.00  0.00    -0.004 C 
ATOM     12  C   UNL     1      35.461 -21.898 -19.155  0.00  0.00    -0.000 C 
ATOM     13  C   UNL     1      33.236 -21.191 -19.774  0.00  0.00    -0.000 C 
ATOM     14  C   UNL     1      34.077 -22.053 -19.070  0.00  0.00    -0.000 C 
ENDBRANCH   8   9
ENDBRANCH   6   8
ENDBRANCH   3   6
ENDBRANCH   1   4
BRANCH   1  15
ATOM     15  N   UNL     1      34.893 -14.393 -20.610  0.00  0.00    +0.387 N 
ATOM     16  H   UNL     1      34.699 -13.474 -20.213  0.00  0.00    -0.089 HD
ATOM     17  H   UNL     1      35.816 -14.387 -21.045  0.00  0.00    -0.089 HD
ATOM     18  H   UNL     1      34.871 -15.095 -19.870  0.00  0.00    -0.089 HD
ENDBRANCH   1  15
BRANCH   1  19
ATOM     19  C   UNL     1      34.295 -14.261 -23.023  0.00  0.00    -0.013 C 
BRANCH  19  20
ATOM     20  C   UNL     1      33.128 -14.210 -24.013  0.00  0.00    -0.004 C 
BRANCH  20  21
ATOM     21  C   UNL     1      33.391 -15.105 -25.227  0.00  0.00    -0.024 C 
BRANCH  21  22
ATOM     22  C   UNL     1      32.854 -14.470 -26.508  0.00  0.00    -0.086 C 
BRANCH  22  23
ATOM     23  N   UNL     1      33.352 -13.106 -26.644  0.00  0.00    +0.380 N 
ATOM     24  H   UNL     1      34.173 -13.103 -27.250  0.00  0.00    -0.089 HD
ATOM     25  H   UNL     1      33.605 -12.743 -25.726  0.00  0.00    -0.089 HD
ATOM     26  H   UNL     1      32.626 -12.518 -27.053  0.00  0.00    -0.089 HD
ENDBRANCH  22  23
ENDBRANCH  21  22
ENDBRANCH  20  21
ENDBRANCH  19  20
ENDBRANCH   1  19
TORSDOF 10
ENDMDL
MODEL 9
REMARK VINA RESULT:      -7.4      2.587      7.343
REMARK  Name = 11597698
REMARK  10 active torsions:
REMARK  status: ('A' for Active; 'I' for Inactive)
REMARK    1  A    between atoms: C_1  and  C_4
REMARK    2  A    between atoms: C_1  and  N_15
REMARK    3  A    between atoms: C_1  and  C_19
REMARK    4  A    between atoms: N_3  and  C_6
REMARK    5  A    between atoms: C_6  and  C_8
REMARK    6  A    between atoms: C_8  and  C_9
REMARK    7  A    between atoms: C_19  and  C_20
REMARK    8  A    between atoms: C_20  and  C_21
REMARK    9  A    between atoms: C_21  and  C_22
REMARK   10  A    between atoms: C_22  and  N_23
REMARK                            x       y       z     vdW  Elec       q    Type
REMARK                         _______ _______ _______ _____ _____    ______ ____
ROOT
ATOM      1  C   UNL     1      35.043 -17.851 -21.306  0.00  0.00    +0.013 C 
ENDROOT
BRANCH   1   4
ATOM      2  O   UNL     1      35.048 -15.829 -19.963  0.00  0.00    -0.277 OA
ATOM      3  N   UNL     1      34.192 -15.738 -22.119  0.00  0.00    -0.307 N 
ATOM      4  C   UNL     1      34.780 -16.372 -21.033  0.00  0.00    +0.202 C 
ATOM      5  H   UNL     1      34.020 -16.265 -22.932  0.00  0.00    +0.149 HD
BRANCH   3   6
ATOM      6  C   UNL     1      33.821 -14.341 -22.114  0.00  0.00    +0.076 C 
ATOM      7  C   UNL     1      34.153 -13.717 -23.466  0.00  0.00    +0.022 C 
BRANCH   6   8
ATOM      8  C   UNL     1      32.331 -14.160 -21.783  0.00  0.00    +0.046 C 
BRANCH   8   9
ATOM      9  C   UNL     1      31.997 -12.767 -21.304  0.00  0.00    -0.021 C 
ATOM     10  C   UNL     1      31.684 -11.787 -22.232  0.00  0.00    -0.004 C 
ATOM     11  C   UNL     1      32.007 -12.496 -19.945  0.00  0.00    -0.004 C 
ATOM     12  C   UNL     1      31.375 -10.502 -21.789  0.00  0.00    -0.000 C 
ATOM     13  C   UNL     1      31.698 -11.211 -19.502  0.00  0.00    -0.000 C 
ATOM     14  C   UNL     1      31.382 -10.213 -20.424  0.00  0.00    -0.000 C 
ENDBRANCH   8   9
ENDBRANCH   6   8
ENDBRANCH   3   6
ENDBRANCH   1   4
BRANCH   1  15
ATOM     15  N   UNL     1      33.775 -18.562 -21.147  0.00  0.00    +0.387 N 
ATOM     16  H   UNL     1      33.241 -18.138 -20.389  0.00  0.00    -0.089 HD
ATOM     17  H   UNL     1      33.959 -19.541 -20.928  0.00  0.00    -0.089 HD
ATOM     18  H   UNL     1      33.242 -18.502 -22.014  0.00  0.00    -0.089 HD
ENDBRANCH   1  15
BRANCH   1  19
ATOM     19  C   UNL     1      35.629 -18.015 -22.716  0.00  0.00    -0.013 C 
BRANCH  19  20
ATOM     20  C   UNL     1      34.992 -19.160 -23.510  0.00  0.00    -0.004 C 
BRANCH  20  21
ATOM     21  C   UNL     1      34.336 -18.647 -24.794  0.00  0.00    -0.024 C 
BRANCH  21  22
ATOM     22  C   UNL     1      34.820 -17.240 -25.137  0.00  0.00    -0.086 C 
BRANCH  22  23
ATOM     23  N   UNL     1      33.705 -16.417 -25.590  0.00  0.00    +0.380 N 
ATOM     24  H   UNL     1      32.841 -16.958 -25.540  0.00  0.00    -0.089 HD
ATOM     25  H   UNL     1      33.867 -16.123 -26.552  0.00  0.00    -0.089 HD
ATOM     26  H   UNL     1      33.626 -15.594 -24.992  0.00  0.00    -0.089 HD
ENDBRANCH  22  23
ENDBRANCH  21  22
ENDBRANCH  20  21
ENDBRANCH  19  20
ENDBRANCH   1  19
TORSDOF 10
ENDMDL
