MODEL 1
REMARK VINA RESULT:      -9.3      0.000      0.000
REMARK  Name = 3958
REMARK  2 active torsions:
REMARK  status: ('A' for Active; 'I' for Inactive)
REMARK    1  A    between atoms: C_6  and  C_16
REMARK    2  A    between atoms: C_8  and  O_22
REMARK                            x       y       z     vdW  Elec       q    Type
REMARK                         _______ _______ _______ _____ _____    ______ ____
ROOT
ATOM      1 CL   UNL     1      36.828 -21.472 -18.665  0.00  0.00    -0.082 Cl
ATOM      2  O   UNL     1      30.611 -24.469 -14.465  0.00  0.00    -0.270 OA
ATOM      3  N   UNL     1      31.979 -23.811 -16.171  0.00  0.00    -0.280 N 
ATOM      4  N   UNL     1      33.764 -23.973 -13.749  0.00  0.00    -0.235 NA
ATOM      5  C   UNL     1      34.410 -23.298 -16.033  0.00  0.00    +0.032 C 
ATOM      6  C   UNL     1      34.602 -24.001 -14.729  0.00  0.00    +0.081 C 
ATOM      7  C   UNL     1      33.182 -23.313 -16.712  0.00  0.00    +0.052 C 
ATOM      8  C   UNL     1      32.555 -23.178 -13.864  0.00  0.00    +0.295 C 
ATOM      9  C   UNL     1      35.531 -22.706 -16.639  0.00  0.00    +0.014 C 
ATOM     10  C   UNL     1      31.641 -23.904 -14.837  0.00  0.00    +0.278 C 
ATOM     11  C   UNL     1      33.124 -22.831 -18.029  0.00  0.00    +0.016 C 
ATOM     12  C   UNL     1      35.445 -22.185 -17.929  0.00  0.00    +0.058 C 
ATOM     13  C   UNL     1      34.247 -22.263 -18.630  0.00  0.00    +0.013 C 
ATOM     14  H   UNL     1      31.307 -24.130 -16.817  0.00  0.00    +0.155 HD
ENDROOT
BRANCH   6  16
ATOM     15 CL   UNL     1      36.691 -23.044 -12.666  0.00  0.00    -0.082 Cl
ATOM     16  C   UNL     1      35.826 -24.831 -14.536  0.00  0.00    +0.028 C 
ATOM     17  C   UNL     1      36.814 -24.473 -13.627  0.00  0.00    +0.059 C 
ATOM     18  C   UNL     1      35.951 -25.989 -15.299  0.00  0.00    +0.002 C 
ATOM     19  C   UNL     1      37.942 -25.282 -13.478  0.00  0.00    +0.011 C 
ATOM     20  C   UNL     1      37.078 -26.796 -15.150  0.00  0.00    +0.000 C 
ATOM     21  C   UNL     1      38.074 -26.442 -14.240  0.00  0.00    +0.001 C 
ENDBRANCH   6  16
BRANCH   8  22
ATOM     22  O   UNL     1      31.829 -23.019 -12.646  0.00  0.00    -0.357 OA
ATOM     23  H   UNL     1      32.220 -23.582 -11.960  0.00  0.00    +0.213 HD
ENDBRANCH   8  22
TORSDOF 2
ENDMDL
MODEL 2
REMARK VINA RESULT:      -8.7      2.757      5.313
REMARK  Name = 3958
REMARK  2 active torsions:
REMARK  status: ('A' for Active; 'I' for Inactive)
REMARK    1  A    between atoms: C_6  and  C_16
REMARK    2  A    between atoms: C_8  and  O_22
REMARK                            x       y       z     vdW  Elec       q    Type
REMARK                         _______ _______ _______ _____ _____    ______ ____
ROOT
ATOM      1 CL   UNL     1      36.821 -27.783 -16.646  0.00  0.00    -0.082 Cl
ATOM      2  O   UNL     1      37.099 -22.631 -10.429  0.00  0.00    -0.270 OA
ATOM      3  N   UNL     1      37.609 -23.789 -12.330  0.00  0.00    -0.280 N 
ATOM      4  N   UNL     1      34.651 -24.195 -11.933  0.00  0.00    -0.235 NA
ATOM      5  C   UNL     1      36.053 -25.130 -13.734  0.00  0.00    +0.032 C 
ATOM      6  C   UNL     1      34.821 -24.499 -13.174  0.00  0.00    +0.081 C 
ATOM      7  C   UNL     1      37.339 -24.700 -13.371  0.00  0.00    +0.052 C 
ATOM      8  C   UNL     1      35.690 -24.509 -10.969  0.00  0.00    +0.295 C 
ATOM      9  C   UNL     1      35.904 -26.102 -14.737  0.00  0.00    +0.014 C 
ATOM     10  C   UNL     1      36.832 -23.539 -11.218  0.00  0.00    +0.278 C 
ATOM     11  C   UNL     1      38.446 -25.173 -14.093  0.00  0.00    +0.016 C 
ATOM     12  C   UNL     1      37.018 -26.600 -15.411  0.00  0.00    +0.058 C 
ATOM     13  C   UNL     1      38.286 -26.123 -15.102  0.00  0.00    +0.013 C 
ATOM     14  H   UNL     1      38.445 -23.273 -12.405  0.00  0.00    +0.155 HD
ENDROOT
BRANCH   6  16
ATOM     15 CL   UNL     1      35.431 -22.580 -15.516  0.00  0.00    -0.082 Cl
ATOM     16  C   UNL     1      33.707 -24.153 -14.104  0.00  0.00    +0.028 C 
ATOM     17  C   UNL     1      33.896 -23.299 -15.184  0.00  0.00    +0.059 C 
ATOM     18  C   UNL     1      32.459 -24.719 -13.858  0.00  0.00    +0.002 C 
ATOM     19  C   UNL     1      32.825 -23.006 -16.029  0.00  0.00    +0.011 C 
ATOM     20  C   UNL     1      31.389 -24.426 -14.703  0.00  0.00    +0.000 C 
ATOM     21  C   UNL     1      31.572 -23.568 -15.788  0.00  0.00    +0.001 C 
ENDBRANCH   6  16
BRANCH   8  22
ATOM     22  O   UNL     1      35.303 -24.360  -9.605  0.00  0.00    -0.357 OA
ATOM     23  H   UNL     1      34.348 -24.195  -9.555  0.00  0.00    +0.213 HD
ENDBRANCH   8  22
TORSDOF 2
ENDMDL
MODEL 3
REMARK VINA RESULT:      -8.5      2.531      4.718
REMARK  Name = 3958
REMARK  2 active torsions:
REMARK  status: ('A' for Active; 'I' for Inactive)
REMARK    1  A    between atoms: C_6  and  C_16
REMARK    2  A    between atoms: C_8  and  O_22
REMARK                            x       y       z     vdW  Elec       q    Type
REMARK                         _______ _______ _______ _____ _____    ______ ____
ROOT
ATOM      1 CL   UNL     1      34.905 -21.097 -19.889  0.00  0.00    -0.082 Cl
ATOM      2  O   UNL     1      37.674 -24.769 -13.247  0.00  0.00    -0.270 OA
ATOM      3  N   UNL     1      37.340 -23.264 -14.932  0.00  0.00    -0.280 N 
ATOM      4  N   UNL     1      34.889 -25.016 -14.945  0.00  0.00    -0.235 NA
ATOM      5  C   UNL     1      35.387 -23.141 -16.468  0.00  0.00    +0.032 C 
ATOM      6  C   UNL     1      34.504 -23.974 -15.599  0.00  0.00    +0.081 C 
ATOM      7  C   UNL     1      36.678 -22.761 -16.070  0.00  0.00    +0.052 C 
ATOM      8  C   UNL     1      36.261 -25.472 -15.068  0.00  0.00    +0.295 C 
ATOM      9  C   UNL     1      34.853 -22.635 -17.666  0.00  0.00    +0.014 C 
ATOM     10  C   UNL     1      37.126 -24.478 -14.311  0.00  0.00    +0.278 C 
ATOM     11  C   UNL     1      37.370 -21.800 -16.823  0.00  0.00    +0.016 C 
ATOM     12  C   UNL     1      35.574 -21.717 -18.429  0.00  0.00    +0.058 C 
ATOM     13  C   UNL     1      36.824 -21.287 -17.999  0.00  0.00    +0.013 C 
ATOM     14  H   UNL     1      38.030 -22.685 -14.533  0.00  0.00    +0.155 HD
ENDROOT
BRANCH   6  16
ATOM     15 CL   UNL     1      33.411 -23.679 -12.725  0.00  0.00    -0.082 Cl
ATOM     16  C   UNL     1      33.078 -23.571 -15.430  0.00  0.00    +0.028 C 
ATOM     17  C   UNL     1      32.507 -23.414 -14.172  0.00  0.00    +0.059 C 
ATOM     18  C   UNL     1      32.326 -23.351 -16.581  0.00  0.00    +0.002 C 
ATOM     19  C   UNL     1      31.169 -23.034 -14.063  0.00  0.00    +0.011 C 
ATOM     20  C   UNL     1      30.989 -22.971 -16.471  0.00  0.00    +0.000 C 
ATOM     21  C   UNL     1      30.410 -22.813 -15.211  0.00  0.00    +0.001 C 
ENDBRANCH   6  16
BRANCH   8  22
ATOM     22  O   UNL     1      36.515 -26.759 -14.509  0.00  0.00    -0.357 OA
ATOM     23  H   UNL     1      35.862 -27.393 -14.845  0.00  0.00    +0.213 HD
ENDBRANCH   8  22
TORSDOF 2
ENDMDL
MODEL 4
REMARK VINA RESULT:      -8.4      1.325      1.794
REMARK  Name = 3958
REMARK  2 active torsions:
REMARK  status: ('A' for Active; 'I' for Inactive)
REMARK    1  A    between atoms: C_6  and  C_16
REMARK    2  A    between atoms: C_8  and  O_22
REMARK                            x       y       z     vdW  Elec       q    Type
REMARK                         _______ _______ _______ _____ _____    ______ ____
ROOT
ATOM      1 CL   UNL     1      37.111 -21.143 -17.567  0.00  0.00    -0.082 Cl
ATOM      2  O   UNL     1      30.797 -25.108 -14.454  0.00  0.00    -0.270 OA
ATOM      3  N   UNL     1      32.364 -24.287 -15.899  0.00  0.00    -0.280 N 
ATOM      4  N   UNL     1      33.554 -23.917 -13.156  0.00  0.00    -0.235 NA
ATOM      5  C   UNL     1      34.556 -23.267 -15.314  0.00  0.00    +0.032 C 
ATOM      6  C   UNL     1      34.580 -23.830 -13.931  0.00  0.00    +0.081 C 
ATOM      7  C   UNL     1      33.539 -23.583 -16.228  0.00  0.00    +0.052 C 
ATOM      8  C   UNL     1      32.272 -23.403 -13.604  0.00  0.00    +0.295 C 
ATOM      9  C   UNL     1      35.651 -22.492 -15.734  0.00  0.00    +0.014 C 
ATOM     10  C   UNL     1      31.757 -24.364 -14.662  0.00  0.00    +0.278 C 
ATOM     11  C   UNL     1      33.689 -23.207 -17.572  0.00  0.00    +0.016 C 
ATOM     12  C   UNL     1      35.760 -22.083 -17.063  0.00  0.00    +0.058 C 
ATOM     13  C   UNL     1      34.789 -22.456 -17.985  0.00  0.00    +0.013 C 
ATOM     14  H   UNL     1      31.927 -24.780 -16.632  0.00  0.00    +0.155 HD
ENDROOT
BRANCH   6  16
ATOM     15 CL   UNL     1      35.845 -26.246 -15.381  0.00  0.00    -0.082 Cl
ATOM     16  C   UNL     1      35.864 -24.371 -13.400  0.00  0.00    +0.028 C 
ATOM     17  C   UNL     1      36.501 -25.455 -13.993  0.00  0.00    +0.059 C 
ATOM     18  C   UNL     1      36.415 -23.751 -12.282  0.00  0.00    +0.002 C 
ATOM     19  C   UNL     1      37.703 -25.926 -13.463  0.00  0.00    +0.011 C 
ATOM     20  C   UNL     1      37.616 -24.222 -11.752  0.00  0.00    +0.000 C 
ATOM     21  C   UNL     1      38.259 -25.310 -12.342  0.00  0.00    +0.001 C 
ENDBRANCH   6  16
BRANCH   8  22
ATOM     22  O   UNL     1      31.274 -23.322 -12.589  0.00  0.00    -0.357 OA
ATOM     23  H   UNL     1      30.653 -22.608 -12.801  0.00  0.00    +0.213 HD
ENDBRANCH   8  22
TORSDOF 2
ENDMDL
MODEL 5
REMARK VINA RESULT:      -8.2     11.973     14.441
REMARK  Name = 3958
REMARK  2 active torsions:
REMARK  status: ('A' for Active; 'I' for Inactive)
REMARK    1  A    between atoms: C_6  and  C_16
REMARK    2  A    between atoms: C_8  and  O_22
REMARK                            x       y       z     vdW  Elec       q    Type
REMARK                         _______ _______ _______ _____ _____    ______ ____
ROOT
ATOM      1 CL   UNL     1      30.587 -11.216 -20.472  0.00  0.00    -0.082 Cl
ATOM      2  O   UNL     1      35.318 -11.371 -27.019  0.00  0.00    -0.270 OA
ATOM      3  N   UNL     1      34.293 -10.735 -25.079  0.00  0.00    -0.280 N 
ATOM      4  N   UNL     1      33.836 -13.706 -25.272  0.00  0.00    -0.235 NA
ATOM      5  C   UNL     1      33.034 -12.188 -23.500  0.00  0.00    +0.032 C 
ATOM      6  C   UNL     1      33.616 -13.459 -24.026  0.00  0.00    +0.081 C 
ATOM      7  C   UNL     1      33.451 -10.931 -23.967  0.00  0.00    +0.052 C 
ATOM      8  C   UNL     1      33.467 -12.722 -26.273  0.00  0.00    +0.295 C 
ATOM      9  C   UNL     1      32.129 -12.266 -22.428  0.00  0.00    +0.014 C 
ATOM     10  C   UNL     1      34.463 -11.580 -26.157  0.00  0.00    +0.278 C 
ATOM     11  C   UNL     1      33.037  -9.778 -23.283  0.00  0.00    +0.016 C 
ATOM     12  C   UNL     1      31.688 -11.107 -21.790  0.00  0.00    +0.058 C 
ATOM     13  C   UNL     1      32.154  -9.866 -22.206  0.00  0.00    +0.013 C 
ATOM     14  H   UNL     1      34.821  -9.902 -25.089  0.00  0.00    +0.155 HD
ENDROOT
BRANCH   6  16
ATOM     15 CL   UNL     1      33.955 -16.339 -25.089  0.00  0.00    -0.082 Cl
ATOM     16  C   UNL     1      34.012 -14.521 -23.056  0.00  0.00    +0.028 C 
ATOM     17  C   UNL     1      34.187 -15.842 -23.452  0.00  0.00    +0.059 C 
ATOM     18  C   UNL     1      34.206 -14.147 -21.730  0.00  0.00    +0.002 C 
ATOM     19  C   UNL     1      34.561 -16.802 -22.510  0.00  0.00    +0.011 C 
ATOM     20  C   UNL     1      34.579 -15.107 -20.789  0.00  0.00    +0.000 C 
ATOM     21  C   UNL     1      34.755 -16.435 -21.180  0.00  0.00    +0.001 C 
ENDBRANCH   6  16
BRANCH   8  22
ATOM     22  O   UNL     1      33.522 -13.190 -27.619  0.00  0.00    -0.357 OA
ATOM     23  H   UNL     1      34.329 -12.860 -28.044  0.00  0.00    +0.213 HD
ENDBRANCH   8  22
TORSDOF 2
ENDMDL
MODEL 6
REMARK VINA RESULT:      -7.8     14.717     16.929
REMARK  Name = 3958
REMARK  2 active torsions:
REMARK  status: ('A' for Active; 'I' for Inactive)
REMARK    1  A    between atoms: C_6  and  C_16
REMARK    2  A    between atoms: C_8  and  O_22
REMARK                            x       y       z     vdW  Elec       q    Type
REMARK                         _______ _______ _______ _____ _____    ______ ____
ROOT
ATOM      1 CL   UNL     1      31.614 -13.621 -20.819  0.00  0.00    -0.082 Cl
ATOM      2  O   UNL     1      32.004  -5.555 -21.062  0.00  0.00    -0.270 OA
ATOM      3  N   UNL     1      32.130  -7.728 -20.369  0.00  0.00    -0.280 N 
ATOM      4  N   UNL     1      32.003  -7.867 -23.376  0.00  0.00    -0.235 NA
ATOM      5  C   UNL     1      32.118  -9.762 -21.802  0.00  0.00    +0.032 C 
ATOM      6  C   UNL     1      32.469  -9.024 -23.052  0.00  0.00    +0.081 C 
ATOM      7  C   UNL     1      32.059  -9.123 -20.553  0.00  0.00    +0.052 C 
ATOM      8  C   UNL     1      31.035  -7.217 -22.513  0.00  0.00    +0.295 C 
ATOM      9  C   UNL     1      31.958 -11.156 -21.876  0.00  0.00    +0.014 C 
ATOM     10  C   UNL     1      31.787  -6.748 -21.279  0.00  0.00    +0.278 C 
ATOM     11  C   UNL     1      31.947  -9.903 -19.392  0.00  0.00    +0.016 C 
ATOM     12  C   UNL     1      31.798 -11.913 -20.716  0.00  0.00    +0.058 C 
ATOM     13  C   UNL     1      31.810 -11.289 -19.474  0.00  0.00    +0.013 C 
ATOM     14  H   UNL     1      32.463  -7.417 -19.496  0.00  0.00    +0.155 HD
ENDROOT
BRANCH   6  16
ATOM     15 CL   UNL     1      35.128  -7.531 -23.536  0.00  0.00    -0.082 Cl
ATOM     16  C   UNL     1      33.453  -9.635 -23.992  0.00  0.00    +0.028 C 
ATOM     17  C   UNL     1      34.674  -9.029 -24.264  0.00  0.00    +0.059 C 
ATOM     18  C   UNL     1      33.112 -10.842 -24.593  0.00  0.00    +0.002 C 
ATOM     19  C   UNL     1      35.565  -9.637 -25.150  0.00  0.00    +0.011 C 
ATOM     20  C   UNL     1      34.002 -11.450 -25.478  0.00  0.00    +0.000 C 
ATOM     21  C   UNL     1      35.229 -10.847 -25.756  0.00  0.00    +0.001 C 
ENDBRANCH   6  16
BRANCH   8  22
ATOM     22  O   UNL     1      30.405  -6.069 -23.080  0.00  0.00    -0.357 OA
ATOM     23  H   UNL     1      30.212  -6.236 -24.016  0.00  0.00    +0.213 HD
ENDBRANCH   8  22
TORSDOF 2
ENDMDL
MODEL 7
REMARK VINA RESULT:      -7.8     11.045     13.557
REMARK  Name = 3958
REMARK  2 active torsions:
REMARK  status: ('A' for Active; 'I' for Inactive)
REMARK    1  A    between atoms: C_6  and  C_16
REMARK    2  A    between atoms: C_8  and  O_22
REMARK                            x       y       z     vdW  Elec       q    Type
REMARK                         _______ _______ _______ _____ _____    ______ ____
ROOT
ATOM      1 CL   UNL     1      31.560 -11.556 -20.333  0.00  0.00    -0.082 Cl
ATOM      2  O   UNL     1      34.109 -13.446 -27.763  0.00  0.00    -0.270 OA
ATOM      3  N   UNL     1      33.714 -12.337 -25.806  0.00  0.00    -0.280 N 
ATOM      4  N   UNL     1      33.217 -15.242 -25.178  0.00  0.00    -0.235 NA
ATOM      5  C   UNL     1      32.986 -13.326 -23.642  0.00  0.00    +0.032 C 
ATOM      6  C   UNL     1      33.382 -14.717 -24.012  0.00  0.00    +0.081 C 
ATOM      7  C   UNL     1      33.244 -12.230 -24.482  0.00  0.00    +0.052 C 
ATOM      8  C   UNL     1      32.566 -14.473 -26.224  0.00  0.00    +0.295 C 
ATOM      9  C   UNL     1      32.444 -13.107 -22.364  0.00  0.00    +0.014 C 
ATOM     10  C   UNL     1      33.551 -13.404 -26.665  0.00  0.00    +0.278 C 
ATOM     11  C   UNL     1      33.054 -10.931 -23.987  0.00  0.00    +0.016 C 
ATOM     12  C   UNL     1      32.214 -11.811 -21.905  0.00  0.00    +0.058 C 
ATOM     13  C   UNL     1      32.535 -10.723 -22.708  0.00  0.00    +0.013 C 
ATOM     14  H   UNL     1      34.214 -11.565 -26.157  0.00  0.00    +0.155 HD
ENDROOT
BRANCH   6  16
ATOM     15 CL   UNL     1      34.886 -17.236 -24.977  0.00  0.00    -0.082 Cl
ATOM     16  C   UNL     1      34.050 -15.568 -22.986  0.00  0.00    +0.028 C 
ATOM     17  C   UNL     1      34.749 -16.718 -23.335  0.00  0.00    +0.059 C 
ATOM     18  C   UNL     1      33.956 -15.174 -21.655  0.00  0.00    +0.002 C 
ATOM     19  C   UNL     1      35.361 -17.484 -22.341  0.00  0.00    +0.011 C 
ATOM     20  C   UNL     1      34.567 -15.939 -20.662  0.00  0.00    +0.000 C 
ATOM     21  C   UNL     1      35.269 -17.095 -21.006  0.00  0.00    +0.001 C 
ENDBRANCH   6  16
BRANCH   8  22
ATOM     22  O   UNL     1      32.214 -15.224 -27.384  0.00  0.00    -0.357 OA
ATOM     23  H   UNL     1      33.015 -15.603 -27.780  0.00  0.00    +0.213 HD
ENDBRANCH   8  22
TORSDOF 2
ENDMDL
MODEL 8
REMARK VINA RESULT:      -7.5     14.780     17.437
REMARK  Name = 3958
REMARK  2 active torsions:
REMARK  status: ('A' for Active; 'I' for Inactive)
REMARK    1  A    between atoms: C_6  and  C_16
REMARK    2  A    between atoms: C_8  and  O_22
REMARK                            x       y       z     vdW  Elec       q    Type
REMARK                         _______ _______ _______ _____ _____    ______ ____
ROOT
ATOM      1 CL   UNL     1      30.845 -10.456 -18.764  0.00  0.00    -0.082 Cl
ATOM      2  O   UNL     1      34.233 -11.547 -26.016  0.00  0.00    -0.270 OA
ATOM      3  N   UNL     1      32.902 -11.763 -24.172  0.00  0.00    -0.280 N 
ATOM      4  N   UNL     1      34.043  -8.980 -23.998  0.00  0.00    -0.235 NA
ATOM      5  C   UNL     1      32.524 -10.070 -22.389  0.00  0.00    +0.032 C 
ATOM      6  C   UNL     1      33.025  -8.926 -23.208  0.00  0.00    +0.081 C 
ATOM      7  C   UNL     1      32.402 -11.365 -22.916  0.00  0.00    +0.052 C 
ATOM      8  C   UNL     1      34.809 -10.209 -24.097  0.00  0.00    +0.295 C 
ATOM      9  C   UNL     1      32.056  -9.803 -21.091  0.00  0.00    +0.014 C 
ATOM     10  C   UNL     1      33.954 -11.201 -24.867  0.00  0.00    +0.278 C 
ATOM     11  C   UNL     1      31.718 -12.342 -22.177  0.00  0.00    +0.016 C 
ATOM     12  C   UNL     1      31.423 -10.799 -20.348  0.00  0.00    +0.058 C 
ATOM     13  C   UNL     1      31.239 -12.062 -20.897  0.00  0.00    +0.013 C 
ATOM     14  H   UNL     1      32.451 -12.526 -24.603  0.00  0.00    +0.155 HD
ENDROOT
BRANCH   6  16
ATOM     15 CL   UNL     1      33.404  -7.157 -20.705  0.00  0.00    -0.082 Cl
ATOM     16  C   UNL     1      32.293  -7.629 -23.151  0.00  0.00    +0.028 C 
ATOM     17  C   UNL     1      32.408  -6.773 -22.062  0.00  0.00    +0.059 C 
ATOM     18  C   UNL     1      31.483  -7.294 -24.232  0.00  0.00    +0.002 C 
ATOM     19  C   UNL     1      31.705  -5.567 -22.053  0.00  0.00    +0.011 C 
ATOM     20  C   UNL     1      30.780  -6.089 -24.223  0.00  0.00    +0.000 C 
ATOM     21  C   UNL     1      30.891  -5.226 -23.132  0.00  0.00    +0.001 C 
ENDBRANCH   6  16
BRANCH   8  22
ATOM     22  O   UNL     1      36.044 -10.086 -24.799  0.00  0.00    -0.357 OA
ATOM     23  H   UNL     1      35.918  -9.524 -25.580  0.00  0.00    +0.213 HD
ENDBRANCH   8  22
TORSDOF 2
ENDMDL
MODEL 9
REMARK VINA RESULT:      -7.5     12.126     14.803
REMARK  Name = 3958
REMARK  2 active torsions:
REMARK  status: ('A' for Active; 'I' for Inactive)
REMARK    1  A    between atoms: C_6  and  C_16
REMARK    2  A    between atoms: C_8  and  O_22
REMARK                            x       y       z     vdW  Elec       q    Type
REMARK                         _______ _______ _______ _____ _____    ______ ____
ROOT
ATOM      1 CL   UNL     1      34.964 -16.025 -20.560  0.00  0.00    -0.082 Cl
ATOM      2  O   UNL     1      32.981 -12.869 -27.727  0.00  0.00    -0.270 OA
ATOM      3  N   UNL     1      33.245 -14.305 -25.971  0.00  0.00    -0.280 N 
ATOM      4  N   UNL     1      33.608 -11.554 -24.798  0.00  0.00    -0.235 NA
ATOM      5  C   UNL     1      33.766 -13.711 -23.612  0.00  0.00    +0.032 C 
ATOM      6  C   UNL     1      33.363 -12.280 -23.762  0.00  0.00    +0.081 C 
ATOM      7  C   UNL     1      33.608 -14.641 -24.651  0.00  0.00    +0.052 C 
ATOM      8  C   UNL     1      34.363 -12.114 -25.904  0.00  0.00    +0.295 C 
ATOM      9  C   UNL     1      34.207 -14.147 -22.351  0.00  0.00    +0.014 C 
ATOM     10  C   UNL     1      33.447 -13.099 -26.610  0.00  0.00    +0.278 C 
ATOM     11  C   UNL     1      33.792 -16.005 -24.380  0.00  0.00    +0.016 C 
ATOM     12  C   UNL     1      34.434 -15.502 -22.111  0.00  0.00    +0.058 C 
ATOM     13  C   UNL     1      34.210 -16.432 -23.119  0.00  0.00    +0.013 C 
ATOM     14  H   UNL     1      32.796 -15.009 -26.495  0.00  0.00    +0.155 HD
ENDROOT
BRANCH   6  16
ATOM     15 CL   UNL     1      33.601  -9.219 -23.428  0.00  0.00    -0.082 Cl
ATOM     16  C   UNL     1      32.590 -11.634 -22.663  0.00  0.00    +0.028 C 
ATOM     17  C   UNL     1      32.640 -10.263 -22.444  0.00  0.00    +0.059 C 
ATOM     18  C   UNL     1      31.807 -12.452 -21.854  0.00  0.00    +0.002 C 
ATOM     19  C   UNL     1      31.898  -9.701 -21.403  0.00  0.00    +0.011 C 
ATOM     20  C   UNL     1      31.065 -11.891 -20.814  0.00  0.00    +0.000 C 
ATOM     21  C   UNL     1      31.112 -10.515 -20.589  0.00  0.00    +0.001 C 
ENDBRANCH   6  16
BRANCH   8  22
ATOM     22  O   UNL     1      34.788 -11.163 -26.879  0.00  0.00    -0.357 OA
ATOM     23  H   UNL     1      35.757 -11.127 -26.895  0.00  0.00    +0.213 HD
ENDBRANCH   8  22
TORSDOF 2
ENDMDL
