MODEL 1
REMARK VINA RESULT:     -12.8      0.000      0.000
REMARK  Name = 10157080
REMARK  5 active torsions:
REMARK  status: ('A' for Active; 'I' for Inactive)
REMARK    1  A    between atoms: C_3  and  O_8
REMARK    2  A    between atoms: C_6  and  O_18
REMARK    3  A    between atoms: O_8  and  C_13
REMARK    4  A    between atoms: O_18  and  C_20
REMARK    5  A    between atoms: C_19  and  N_25
REMARK                            x       y       z     vdW  Elec       q    Type
REMARK                         _______ _______ _______ _____ _____    ______ ____
ROOT
ATOM      1  N   UNL     1      34.706 -23.096 -16.890  0.00  0.00    -0.277 NA
ATOM      2  N   UNL     1      32.443 -23.043 -17.720  0.00  0.00    -0.319 NA
ATOM      3  C   UNL     1      34.197 -23.123 -15.648  0.00  0.00    +0.278 C 
ATOM      4  C   UNL     1      32.857 -23.112 -15.349  0.00  0.00    +0.156 C 
ATOM      5  C   UNL     1      32.013 -23.071 -16.441  0.00  0.00    +0.113 C 
ATOM      6  C   UNL     1      33.782 -23.057 -17.869  0.00  0.00    +0.317 C 
ATOM      7  C   UNL     1      30.537 -23.056 -16.229  0.00  0.00    +0.063 C 
ENDROOT
BRANCH   3   8
ATOM      8  O   UNL     1      35.109 -23.167 -14.608  0.00  0.00    -0.429 OA
BRANCH   8  13
ATOM      9  O   UNL     1      39.706 -24.584 -14.273  0.00  0.00    -0.435 OA
ATOM     10  O   UNL     1      39.132 -26.863 -14.808  0.00  0.00    -0.435 OA
ATOM     11  C   UNL     1      38.372 -24.745 -14.485  0.00  0.00    +0.179 C 
ATOM     12  C   UNL     1      38.044 -26.046 -14.790  0.00  0.00    +0.177 C 
ATOM     13  C   UNL     1      36.089 -24.111 -14.666  0.00  0.00    +0.151 C 
ATOM     14  C   UNL     1      37.415 -23.753 -14.415  0.00  0.00    +0.078 C 
ATOM     15  C   UNL     1      36.741 -26.427 -15.043  0.00  0.00    +0.043 C 
ATOM     16  C   UNL     1      35.754 -25.441 -14.978  0.00  0.00    +0.041 C 
ATOM     17  C   UNL     1      40.181 -25.930 -14.478  0.00  0.00    +0.429 C 
ENDBRANCH   8  13
ENDBRANCH   3   8
BRANCH   6  18
ATOM     18  O   UNL     1      34.256 -23.025 -19.160  0.00  0.00    -0.375 OA
BRANCH  18  20
ATOM     19  C   UNL     1      34.661 -19.297 -20.939  0.00  0.00    +0.057 C 
ATOM     20  C   UNL     1      34.391 -21.787 -19.750  0.00  0.00    +0.161 C 
ATOM     21  C   UNL     1      33.391 -19.822 -20.702  0.00  0.00    +0.018 C 
ATOM     22  C   UNL     1      35.795 -20.024 -20.577  0.00  0.00    +0.018 C 
ATOM     23  C   UNL     1      33.254 -21.075 -20.104  0.00  0.00    +0.040 C 
ATOM     24  C   UNL     1      35.660 -21.276 -19.979  0.00  0.00    +0.040 C 
BRANCH  19  25
ATOM     25  N   UNL     1      34.796 -18.055 -21.532  0.00  0.00    -0.246 N 
ATOM     26  N   UNL     1      34.880 -15.837 -21.742  0.00  0.00    -0.224 NA
ATOM     27  C   UNL     1      35.047 -17.803 -22.858  0.00  0.00    +0.092 C 
ATOM     28  C   UNL     1      34.704 -16.836 -20.907  0.00  0.00    +0.172 C 
ATOM     29  C   UNL     1      35.094 -16.433 -22.959  0.00  0.00    +0.117 C 
ENDBRANCH  19  25
ENDBRANCH  18  20
ENDBRANCH   6  18
TORSDOF 5
ENDMDL
MODEL 2
REMARK VINA RESULT:     -12.1      2.532      5.459
REMARK  Name = 10157080
REMARK  5 active torsions:
REMARK  status: ('A' for Active; 'I' for Inactive)
REMARK    1  A    between atoms: C_3  and  O_8
REMARK    2  A    between atoms: C_6  and  O_18
REMARK    3  A    between atoms: O_8  and  C_13
REMARK    4  A    between atoms: O_18  and  C_20
REMARK    5  A    between atoms: C_19  and  N_25
REMARK                            x       y       z     vdW  Elec       q    Type
REMARK                         _______ _______ _______ _____ _____    ______ ____
ROOT
ATOM      1  N   UNL     1      33.316 -23.414 -16.650  0.00  0.00    -0.277 NA
ATOM      2  N   UNL     1      35.584 -22.778 -17.164  0.00  0.00    -0.319 NA
ATOM      3  C   UNL     1      33.660 -23.405 -15.352  0.00  0.00    +0.278 C 
ATOM      4  C   UNL     1      34.912 -23.104 -14.875  0.00  0.00    +0.156 C 
ATOM      5  C   UNL     1      35.848 -22.793 -15.840  0.00  0.00    +0.113 C 
ATOM      6  C   UNL     1      34.317 -23.094 -17.493  0.00  0.00    +0.317 C 
ATOM      7  C   UNL     1      37.241 -22.449 -15.431  0.00  0.00    +0.063 C 
ENDROOT
BRANCH   3   8
ATOM      8  O   UNL     1      32.664 -23.725 -14.447  0.00  0.00    -0.429 OA
BRANCH   8  13
ATOM      9  O   UNL     1      28.915 -21.980 -16.928  0.00  0.00    -0.435 OA
ATOM     10  O   UNL     1      27.553 -23.892 -16.382  0.00  0.00    -0.435 OA
ATOM     11  C   UNL     1      29.577 -22.881 -16.153  0.00  0.00    +0.179 C 
ATOM     12  C   UNL     1      28.800 -23.973 -15.841  0.00  0.00    +0.177 C 
ATOM     13  C   UNL     1      31.385 -23.796 -14.913  0.00  0.00    +0.151 C 
ATOM     14  C   UNL     1      30.876 -22.763 -15.704  0.00  0.00    +0.078 C 
ATOM     15  C   UNL     1      29.278 -25.007 -15.062  0.00  0.00    +0.043 C 
ATOM     16  C   UNL     1      30.591 -24.912 -14.595  0.00  0.00    +0.041 C 
ATOM     17  C   UNL     1      27.634 -22.627 -17.070  0.00  0.00    +0.429 C 
ENDBRANCH   8  13
ENDBRANCH   3   8
BRANCH   6  18
ATOM     18  O   UNL     1      34.012 -23.093 -18.835  0.00  0.00    -0.375 OA
BRANCH  18  20
ATOM     19  C   UNL     1      34.557 -19.534 -20.898  0.00  0.00    +0.057 C 
ATOM     20  C   UNL     1      34.193 -21.911 -19.519  0.00  0.00    +0.161 C 
ATOM     21  C   UNL     1      33.275 -19.929 -20.517  0.00  0.00    +0.018 C 
ATOM     22  C   UNL     1      35.655 -20.333 -20.586  0.00  0.00    +0.018 C 
ATOM     23  C   UNL     1      33.091 -21.125 -19.823  0.00  0.00    +0.040 C 
ATOM     24  C   UNL     1      35.473 -21.529 -19.892  0.00  0.00    +0.040 C 
BRANCH  19  25
ATOM     25  N   UNL     1      34.738 -18.348 -21.587  0.00  0.00    -0.246 N 
ATOM     26  N   UNL     1      34.954 -16.161 -21.962  0.00  0.00    -0.224 NA
ATOM     27  C   UNL     1      34.930 -18.206 -22.938  0.00  0.00    +0.092 C 
ATOM     28  C   UNL     1      34.761 -17.085 -21.048  0.00  0.00    +0.172 C 
ATOM     29  C   UNL     1      35.059 -16.853 -23.142  0.00  0.00    +0.117 C 
ENDBRANCH  19  25
ENDBRANCH  18  20
ENDBRANCH   6  18
TORSDOF 5
ENDMDL
MODEL 3
REMARK VINA RESULT:     -11.4      3.742      7.525
REMARK  Name = 10157080
REMARK  5 active torsions:
REMARK  status: ('A' for Active; 'I' for Inactive)
REMARK    1  A    between atoms: C_3  and  O_8
REMARK    2  A    between atoms: C_6  and  O_18
REMARK    3  A    between atoms: O_8  and  C_13
REMARK    4  A    between atoms: O_18  and  C_20
REMARK    5  A    between atoms: C_19  and  N_25
REMARK                            x       y       z     vdW  Elec       q    Type
REMARK                         _______ _______ _______ _____ _____    ______ ____
ROOT
ATOM      1  N   UNL     1      34.384 -24.243 -14.624  0.00  0.00    -0.277 NA
ATOM      2  N   UNL     1      34.873 -23.897 -12.289  0.00  0.00    -0.319 NA
ATOM      3  C   UNL     1      35.605 -23.757 -14.901  0.00  0.00    +0.278 C 
ATOM      4  C   UNL     1      36.508 -23.325 -13.961  0.00  0.00    +0.156 C 
ATOM      5  C   UNL     1      36.082 -23.420 -12.652  0.00  0.00    +0.113 C 
ATOM      6  C   UNL     1      34.086 -24.285 -13.312  0.00  0.00    +0.317 C 
ATOM      7  C   UNL     1      36.986 -22.979 -11.551  0.00  0.00    +0.063 C 
ENDROOT
BRANCH   3   8
ATOM      8  O   UNL     1      35.957 -23.698 -16.238  0.00  0.00    -0.429 OA
BRANCH   8  13
ATOM      9  O   UNL     1      34.972 -20.729 -19.908  0.00  0.00    -0.435 OA
ATOM     10  O   UNL     1      32.606 -21.147 -19.723  0.00  0.00    -0.435 OA
ATOM     11  C   UNL     1      34.678 -21.602 -18.906  0.00  0.00    +0.179 C 
ATOM     12  C   UNL     1      33.327 -21.840 -18.801  0.00  0.00    +0.177 C 
ATOM     13  C   UNL     1      35.095 -23.077 -17.091  0.00  0.00    +0.151 C 
ATOM     14  C   UNL     1      35.589 -22.206 -18.065  0.00  0.00    +0.078 C 
ATOM     15  C   UNL     1      32.813 -22.696 -17.848  0.00  0.00    +0.043 C 
ATOM     16  C   UNL     1      33.714 -23.321 -16.983  0.00  0.00    +0.041 C 
ATOM     17  C   UNL     1      33.654 -20.446 -20.421  0.00  0.00    +0.429 C 
ENDBRANCH   8  13
ENDBRANCH   3   8
BRANCH   6  18
ATOM     18  O   UNL     1      32.844 -24.774 -12.979  0.00  0.00    -0.375 OA
BRANCH  18  20
ATOM     19  C   UNL     1      29.634 -23.518 -15.291  0.00  0.00    +0.057 C 
ATOM     20  C   UNL     1      31.778 -24.357 -13.747  0.00  0.00    +0.161 C 
ATOM     21  C   UNL     1      30.508 -22.579 -14.743  0.00  0.00    +0.018 C 
ATOM     22  C   UNL     1      29.839 -24.879 -15.063  0.00  0.00    +0.018 C 
ATOM     23  C   UNL     1      31.587 -23.001 -13.966  0.00  0.00    +0.040 C 
ATOM     24  C   UNL     1      30.918 -25.301 -14.287  0.00  0.00    +0.040 C 
BRANCH  19  25
ATOM     25  N   UNL     1      28.564 -23.100 -16.061  0.00  0.00    -0.246 N 
ATOM     26  N   UNL     1      27.151 -22.968 -17.781  0.00  0.00    -0.224 NA
ATOM     27  C   UNL     1      27.639 -22.143 -15.726  0.00  0.00    +0.092 C 
ATOM     28  C   UNL     1      28.223 -23.563 -17.308  0.00  0.00    +0.172 C 
ATOM     29  C   UNL     1      26.782 -22.082 -16.800  0.00  0.00    +0.117 C 
ENDBRANCH  19  25
ENDBRANCH  18  20
ENDBRANCH   6  18
TORSDOF 5
ENDMDL
MODEL 4
REMARK VINA RESULT:     -11.2      3.604     10.033
REMARK  Name = 10157080
REMARK  5 active torsions:
REMARK  status: ('A' for Active; 'I' for Inactive)
REMARK    1  A    between atoms: C_3  and  O_8
REMARK    2  A    between atoms: C_6  and  O_18
REMARK    3  A    between atoms: O_8  and  C_13
REMARK    4  A    between atoms: O_18  and  C_20
REMARK    5  A    between atoms: C_19  and  N_25
REMARK                            x       y       z     vdW  Elec       q    Type
REMARK                         _______ _______ _______ _____ _____    ______ ____
ROOT
ATOM      1  N   UNL     1      36.382 -19.361 -20.527  0.00  0.00    -0.277 NA
ATOM      2  N   UNL     1      34.631 -20.905 -19.930  0.00  0.00    -0.319 NA
ATOM      3  C   UNL     1      35.451 -18.626 -21.157  0.00  0.00    +0.278 C 
ATOM      4  C   UNL     1      34.117 -18.943 -21.226  0.00  0.00    +0.156 C 
ATOM      5  C   UNL     1      33.758 -20.111 -20.584  0.00  0.00    +0.113 C 
ATOM      6  C   UNL     1      35.908 -20.477 -19.941  0.00  0.00    +0.317 C 
ATOM      7  C   UNL     1      32.332 -20.549 -20.597  0.00  0.00    +0.063 C 
ENDROOT
BRANCH   3   8
ATOM      8  O   UNL     1      35.891 -17.467 -21.772  0.00  0.00    -0.429 OA
BRANCH   8  13
ATOM      9  O   UNL     1      33.500 -14.322 -24.537  0.00  0.00    -0.435 OA
ATOM     10  O   UNL     1      33.427 -15.870 -26.383  0.00  0.00    -0.435 OA
ATOM     11  C   UNL     1      34.108 -15.504 -24.245  0.00  0.00    +0.179 C 
ATOM     12  C   UNL     1      34.066 -16.388 -25.299  0.00  0.00    +0.177 C 
ATOM     13  C   UNL     1      35.284 -17.099 -22.935  0.00  0.00    +0.151 C 
ATOM     14  C   UNL     1      34.711 -15.831 -23.048  0.00  0.00    +0.078 C 
ATOM     15  C   UNL     1      34.624 -17.647 -25.214  0.00  0.00    +0.043 C 
ATOM     16  C   UNL     1      35.241 -18.003 -24.012  0.00  0.00    +0.041 C 
ATOM     17  C   UNL     1      33.072 -14.561 -25.894  0.00  0.00    +0.429 C 
ENDBRANCH   8  13
ENDBRANCH   3   8
BRANCH   6  18
ATOM     18  O   UNL     1      36.826 -21.264 -19.286  0.00  0.00    -0.375 OA
BRANCH  18  20
ATOM     19  C   UNL     1      35.698 -22.831 -15.612  0.00  0.00    +0.057 C 
ATOM     20  C   UNL     1      36.452 -21.784 -18.067  0.00  0.00    +0.161 C 
ATOM     21  C   UNL     1      34.845 -22.944 -16.710  0.00  0.00    +0.018 C 
ATOM     22  C   UNL     1      36.930 -22.192 -15.749  0.00  0.00    +0.018 C 
ATOM     23  C   UNL     1      35.224 -22.418 -17.946  0.00  0.00    +0.040 C 
ATOM     24  C   UNL     1      37.310 -21.666 -16.984  0.00  0.00    +0.040 C 
BRANCH  19  25
ATOM     25  N   UNL     1      35.322 -23.352 -14.388  0.00  0.00    -0.246 N 
ATOM     26  N   UNL     1      34.040 -24.274 -12.814  0.00  0.00    -0.224 NA
ATOM     27  C   UNL     1      36.111 -23.474 -13.272  0.00  0.00    +0.092 C 
ATOM     28  C   UNL     1      34.085 -23.848 -14.057  0.00  0.00    +0.172 C 
ATOM     29  C   UNL     1      35.299 -24.043 -12.320  0.00  0.00    +0.117 C 
ENDBRANCH  19  25
ENDBRANCH  18  20
ENDBRANCH   6  18
TORSDOF 5
ENDMDL
MODEL 5
REMARK VINA RESULT:     -11.0      1.795      2.388
REMARK  Name = 10157080
REMARK  5 active torsions:
REMARK  status: ('A' for Active; 'I' for Inactive)
REMARK    1  A    between atoms: C_3  and  O_8
REMARK    2  A    between atoms: C_6  and  O_18
REMARK    3  A    between atoms: O_8  and  C_13
REMARK    4  A    between atoms: O_18  and  C_20
REMARK    5  A    between atoms: C_19  and  N_25
REMARK                            x       y       z     vdW  Elec       q    Type
REMARK                         _______ _______ _______ _____ _____    ______ ____
ROOT
ATOM      1  N   UNL     1      35.666 -22.458 -18.027  0.00  0.00    -0.277 NA
ATOM      2  N   UNL     1      33.298 -22.756 -18.365  0.00  0.00    -0.319 NA
ATOM      3  C   UNL     1      35.468 -22.755 -16.732  0.00  0.00    +0.278 C 
ATOM      4  C   UNL     1      34.250 -23.057 -16.175  0.00  0.00    +0.156 C 
ATOM      5  C   UNL     1      33.184 -23.043 -17.051  0.00  0.00    +0.113 C 
ATOM      6  C   UNL     1      34.549 -22.476 -18.779  0.00  0.00    +0.317 C 
ATOM      7  C   UNL     1      31.815 -23.358 -16.549  0.00  0.00    +0.063 C 
ENDROOT
BRANCH   3   8
ATOM      8  O   UNL     1      36.588 -22.751 -15.920  0.00  0.00    -0.429 OA
BRANCH   8  13
ATOM      9  O   UNL     1      35.256 -23.673 -11.378  0.00  0.00    -0.435 OA
ATOM     10  O   UNL     1      36.405 -25.792 -11.381  0.00  0.00    -0.435 OA
ATOM     11  C   UNL     1      35.872 -23.926 -12.565  0.00  0.00    +0.179 C 
ATOM     12  C   UNL     1      36.527 -25.136 -12.567  0.00  0.00    +0.177 C 
ATOM     13  C   UNL     1      36.562 -23.532 -14.804  0.00  0.00    +0.151 C 
ATOM     14  C   UNL     1      35.870 -23.100 -13.670  0.00  0.00    +0.078 C 
ATOM     15  C   UNL     1      37.217 -25.587 -13.673  0.00  0.00    +0.043 C 
ATOM     16  C   UNL     1      37.231 -24.769 -14.806  0.00  0.00    +0.041 C 
ATOM     17  C   UNL     1      35.598 -24.860 -10.633  0.00  0.00    +0.429 C 
ENDBRANCH   8  13
ENDBRANCH   3   8
BRANCH   6  18
ATOM     18  O   UNL     1      34.702 -22.175 -20.112  0.00  0.00    -0.375 OA
BRANCH  18  20
ATOM     19  C   UNL     1      34.672 -18.160 -21.164  0.00  0.00    +0.057 C 
ATOM     20  C   UNL     1      34.692 -20.842 -20.461  0.00  0.00    +0.161 C 
ATOM     21  C   UNL     1      33.470 -18.831 -20.938  0.00  0.00    +0.018 C 
ATOM     22  C   UNL     1      35.884 -18.839 -21.036  0.00  0.00    +0.018 C 
ATOM     23  C   UNL     1      33.479 -20.180 -20.584  0.00  0.00    +0.040 C 
ATOM     24  C   UNL     1      35.894 -20.187 -20.682  0.00  0.00    +0.040 C 
BRANCH  19  25
ATOM     25  N   UNL     1      34.662 -16.823 -21.515  0.00  0.00    -0.246 N 
ATOM     26  N   UNL     1      34.839 -14.990 -22.773  0.00  0.00    -0.224 NA
ATOM     27  C   UNL     1      34.380 -15.762 -20.691  0.00  0.00    +0.092 C 
ATOM     28  C   UNL     1      34.931 -16.302 -22.756  0.00  0.00    +0.172 C 
ATOM     29  C   UNL     1      34.496 -14.648 -21.489  0.00  0.00    +0.117 C 
ENDBRANCH  19  25
ENDBRANCH  18  20
ENDBRANCH   6  18
TORSDOF 5
ENDMDL
MODEL 6
REMARK VINA RESULT:     -10.9      8.577     13.545
REMARK  Name = 10157080
REMARK  5 active torsions:
REMARK  status: ('A' for Active; 'I' for Inactive)
REMARK    1  A    between atoms: C_3  and  O_8
REMARK    2  A    between atoms: C_6  and  O_18
REMARK    3  A    between atoms: O_8  and  C_13
REMARK    4  A    between atoms: O_18  and  C_20
REMARK    5  A    between atoms: C_19  and  N_25
REMARK                            x       y       z     vdW  Elec       q    Type
REMARK                         _______ _______ _______ _____ _____    ______ ____
ROOT
ATOM      1  N   UNL     1      32.342 -11.827 -22.757  0.00  0.00    -0.277 NA
ATOM      2  N   UNL     1      33.680 -10.024 -23.634  0.00  0.00    -0.319 NA
ATOM      3  C   UNL     1      32.943 -12.637 -23.643  0.00  0.00    +0.278 C 
ATOM      4  C   UNL     1      33.901 -12.241 -24.544  0.00  0.00    +0.156 C 
ATOM      5  C   UNL     1      34.235 -10.903 -24.494  0.00  0.00    +0.113 C 
ATOM      6  C   UNL     1      32.753 -10.546 -22.807  0.00  0.00    +0.317 C 
ATOM      7  C   UNL     1      35.266 -10.367 -25.429  0.00  0.00    +0.063 C 
ENDROOT
BRANCH   3   8
ATOM      8  O   UNL     1      32.554 -13.965 -23.628  0.00  0.00    -0.429 OA
BRANCH   8  13
ATOM      9  O   UNL     1      35.537 -17.710 -23.042  0.00  0.00    -0.435 OA
ATOM     10  O   UNL     1      35.492 -17.479 -20.643  0.00  0.00    -0.435 OA
ATOM     11  C   UNL     1      34.747 -16.678 -22.636  0.00  0.00    +0.179 C 
ATOM     12  C   UNL     1      34.722 -16.546 -21.267  0.00  0.00    +0.177 C 
ATOM     13  C   UNL     1      33.276 -14.826 -22.856  0.00  0.00    +0.151 C 
ATOM     14  C   UNL     1      34.034 -15.832 -23.459  0.00  0.00    +0.078 C 
ATOM     15  C   UNL     1      33.982 -15.562 -20.645  0.00  0.00    +0.043 C 
ATOM     16  C   UNL     1      33.250 -14.691 -21.456  0.00  0.00    +0.041 C 
ATOM     17  C   UNL     1      36.006 -18.212 -21.774  0.00  0.00    +0.429 C 
ENDBRANCH   8  13
ENDBRANCH   3   8
BRANCH   6  18
ATOM     18  O   UNL     1      32.163  -9.676 -21.919  0.00  0.00    -0.375 OA
BRANCH  18  20
ATOM     19  C   UNL     1      31.384  -5.829 -23.267  0.00  0.00    +0.057 C 
ATOM     20  C   UNL     1      31.904  -8.399 -22.367  0.00  0.00    +0.161 C 
ATOM     21  C   UNL     1      32.153  -6.023 -22.120  0.00  0.00    +0.018 C 
ATOM     22  C   UNL     1      30.878  -6.927 -23.962  0.00  0.00    +0.018 C 
ATOM     23  C   UNL     1      32.415  -7.317 -21.667  0.00  0.00    +0.040 C 
ATOM     24  C   UNL     1      31.140  -8.220 -23.510  0.00  0.00    +0.040 C 
BRANCH  19  25
ATOM     25  N   UNL     1      31.124  -4.547 -23.716  0.00  0.00    -0.246 N 
ATOM     26  N   UNL     1      30.694  -2.360 -23.660  0.00  0.00    -0.224 NA
ATOM     27  C   UNL     1      31.025  -4.141 -25.023  0.00  0.00    +0.092 C 
ATOM     28  C   UNL     1      30.916  -3.435 -22.937  0.00  0.00    +0.172 C 
ATOM     29  C   UNL     1      30.761  -2.793 -24.960  0.00  0.00    +0.117 C 
ENDBRANCH  19  25
ENDBRANCH  18  20
ENDBRANCH   6  18
TORSDOF 5
ENDMDL
MODEL 7
REMARK VINA RESULT:     -10.8      6.097     12.472
REMARK  Name = 10157080
REMARK  5 active torsions:
REMARK  status: ('A' for Active; 'I' for Inactive)
REMARK    1  A    between atoms: C_3  and  O_8
REMARK    2  A    between atoms: C_6  and  O_18
REMARK    3  A    between atoms: O_8  and  C_13
REMARK    4  A    between atoms: O_18  and  C_20
REMARK    5  A    between atoms: C_19  and  N_25
REMARK                            x       y       z     vdW  Elec       q    Type
REMARK                         _______ _______ _______ _____ _____    ______ ____
ROOT
ATOM      1  N   UNL     1      34.283 -14.895 -24.181  0.00  0.00    -0.277 NA
ATOM      2  N   UNL     1      33.926 -15.656 -21.922  0.00  0.00    -0.319 NA
ATOM      3  C   UNL     1      33.559 -13.805 -23.876  0.00  0.00    +0.278 C 
ATOM      4  C   UNL     1      32.991 -13.560 -22.650  0.00  0.00    +0.156 C 
ATOM      5  C   UNL     1      33.211 -14.534 -21.697  0.00  0.00    +0.113 C 
ATOM      6  C   UNL     1      34.426 -15.770 -23.168  0.00  0.00    +0.317 C 
ATOM      7  C   UNL     1      32.638 -14.367 -20.329  0.00  0.00    +0.063 C 
ENDROOT
BRANCH   3   8
ATOM      8  O   UNL     1      33.388 -12.875 -24.885  0.00  0.00    -0.429 OA
BRANCH   8  13
ATOM      9  O   UNL     1      33.066  -8.679 -22.531  0.00  0.00    -0.435 OA
ATOM     10  O   UNL     1      34.882  -7.730 -23.799  0.00  0.00    -0.435 OA
ATOM     11  C   UNL     1      33.573  -9.554 -23.441  0.00  0.00    +0.179 C 
ATOM     12  C   UNL     1      34.611  -9.012 -24.165  0.00  0.00    +0.177 C 
ATOM     13  C   UNL     1      33.784 -11.595 -24.639  0.00  0.00    +0.151 C 
ATOM     14  C   UNL     1      33.136 -10.845 -23.655  0.00  0.00    +0.078 C 
ATOM     15  C   UNL     1      35.267  -9.731 -25.143  0.00  0.00    +0.043 C 
ATOM     16  C   UNL     1      34.844 -11.041 -25.379  0.00  0.00    +0.041 C 
ATOM     17  C   UNL     1      33.901  -7.526 -22.762  0.00  0.00    +0.429 C 
ENDBRANCH   8  13
ENDBRANCH   3   8
BRANCH   6  18
ATOM     18  O   UNL     1      35.157 -16.904 -23.435  0.00  0.00    -0.375 OA
BRANCH  18  20
ATOM     19  C   UNL     1      34.934 -19.994 -20.674  0.00  0.00    +0.057 C 
ATOM     20  C   UNL     1      35.084 -17.930 -22.518  0.00  0.00    +0.161 C 
ATOM     21  C   UNL     1      33.800 -19.620 -21.394  0.00  0.00    +0.018 C 
ATOM     22  C   UNL     1      36.143 -19.331 -20.881  0.00  0.00    +0.018 C 
ATOM     23  C   UNL     1      33.875 -18.581 -22.323  0.00  0.00    +0.040 C 
ATOM     24  C   UNL     1      36.219 -18.293 -21.809  0.00  0.00    +0.040 C 
BRANCH  19  25
ATOM     25  N   UNL     1      34.859 -21.024 -19.753  0.00  0.00    -0.246 N 
ATOM     26  N   UNL     1      35.491 -22.468 -18.177  0.00  0.00    -0.224 NA
ATOM     27  C   UNL     1      33.756 -21.789 -19.468  0.00  0.00    +0.092 C 
ATOM     28  C   UNL     1      35.875 -21.475 -18.948  0.00  0.00    +0.172 C 
ATOM     29  C   UNL     1      34.172 -22.668 -18.497  0.00  0.00    +0.117 C 
ENDBRANCH  19  25
ENDBRANCH  18  20
ENDBRANCH   6  18
TORSDOF 5
ENDMDL
MODEL 8
REMARK VINA RESULT:     -10.8      3.803     10.174
REMARK  Name = 10157080
REMARK  5 active torsions:
REMARK  status: ('A' for Active; 'I' for Inactive)
REMARK    1  A    between atoms: C_3  and  O_8
REMARK    2  A    between atoms: C_6  and  O_18
REMARK    3  A    between atoms: O_8  and  C_13
REMARK    4  A    between atoms: O_18  and  C_20
REMARK    5  A    between atoms: C_19  and  N_25
REMARK                            x       y       z     vdW  Elec       q    Type
REMARK                         _______ _______ _______ _____ _____    ______ ____
ROOT
ATOM      1  N   UNL     1      35.719 -18.585 -20.484  0.00  0.00    -0.277 NA
ATOM      2  N   UNL     1      35.395 -19.891 -22.484  0.00  0.00    -0.319 NA
ATOM      3  C   UNL     1      35.142 -17.555 -21.124  0.00  0.00    +0.278 C 
ATOM      4  C   UNL     1      34.672 -17.597 -22.414  0.00  0.00    +0.156 C 
ATOM      5  C   UNL     1      34.827 -18.809 -23.055  0.00  0.00    +0.113 C 
ATOM      6  C   UNL     1      35.813 -19.712 -21.216  0.00  0.00    +0.317 C 
ATOM      7  C   UNL     1      34.350 -18.964 -24.460  0.00  0.00    +0.063 C 
ENDROOT
BRANCH   3   8
ATOM      8  O   UNL     1      35.020 -16.375 -20.410  0.00  0.00    -0.429 OA
BRANCH   8  13
ATOM      9  O   UNL     1      34.131 -12.988 -23.725  0.00  0.00    -0.435 OA
ATOM     10  O   UNL     1      32.043 -12.390 -22.678  0.00  0.00    -0.435 OA
ATOM     11  C   UNL     1      33.877 -13.734 -22.616  0.00  0.00    +0.179 C 
ATOM     12  C   UNL     1      32.685 -13.393 -22.018  0.00  0.00    +0.177 C 
ATOM     13  C   UNL     1      34.256 -15.386 -20.951  0.00  0.00    +0.151 C 
ATOM     14  C   UNL     1      34.686 -14.728 -22.105  0.00  0.00    +0.078 C 
ATOM     15  C   UNL     1      32.237 -14.026 -20.877  0.00  0.00    +0.043 C 
ATOM     16  C   UNL     1      33.038 -15.037 -20.340  0.00  0.00    +0.041 C 
ATOM     17  C   UNL     1      32.964 -12.140 -23.759  0.00  0.00    +0.429 C 
ENDBRANCH   8  13
ENDBRANCH   3   8
BRANCH   6  18
ATOM     18  O   UNL     1      36.401 -20.794 -20.603  0.00  0.00    -0.375 OA
BRANCH  18  20
ATOM     19  C   UNL     1      34.315 -22.568 -17.484  0.00  0.00    +0.057 C 
ATOM     20  C   UNL     1      35.709 -21.383 -19.568  0.00  0.00    +0.161 C 
ATOM     21  C   UNL     1      33.653 -22.238 -18.667  0.00  0.00    +0.018 C 
ATOM     22  C   UNL     1      35.678 -22.302 -17.350  0.00  0.00    +0.018 C 
ATOM     23  C   UNL     1      34.354 -21.642 -19.716  0.00  0.00    +0.040 C 
ATOM     24  C   UNL     1      36.379 -21.707 -18.398  0.00  0.00    +0.040 C 
BRANCH  19  25
ATOM     25  N   UNL     1      33.620 -23.158 -16.445  0.00  0.00    -0.246 N 
ATOM     26  N   UNL     1      31.908 -23.971 -15.271  0.00  0.00    -0.224 NA
ATOM     27  C   UNL     1      34.147 -23.622 -15.266  0.00  0.00    +0.092 C 
ATOM     28  C   UNL     1      32.268 -23.393 -16.395  0.00  0.00    +0.172 C 
ATOM     29  C   UNL     1      33.074 -24.116 -14.563  0.00  0.00    +0.117 C 
ENDBRANCH  19  25
ENDBRANCH  18  20
ENDBRANCH   6  18
TORSDOF 5
ENDMDL
MODEL 9
REMARK VINA RESULT:     -10.6      7.888     12.956
REMARK  Name = 10157080
REMARK  5 active torsions:
REMARK  status: ('A' for Active; 'I' for Inactive)
REMARK    1  A    between atoms: C_3  and  O_8
REMARK    2  A    between atoms: C_6  and  O_18
REMARK    3  A    between atoms: O_8  and  C_13
REMARK    4  A    between atoms: O_18  and  C_20
REMARK    5  A    between atoms: C_19  and  N_25
REMARK                            x       y       z     vdW  Elec       q    Type
REMARK                         _______ _______ _______ _____ _____    ______ ____
ROOT
ATOM      1  N   UNL     1      33.701 -12.076 -23.335  0.00  0.00    -0.277 NA
ATOM      2  N   UNL     1      34.160 -11.564 -25.646  0.00  0.00    -0.319 NA
ATOM      3  C   UNL     1      33.066 -13.181 -23.758  0.00  0.00    +0.278 C 
ATOM      4  C   UNL     1      32.928 -13.551 -25.073  0.00  0.00    +0.156 C 
ATOM      5  C   UNL     1      33.504 -12.693 -25.987  0.00  0.00    +0.113 C 
ATOM      6  C   UNL     1      34.219 -11.320 -24.322  0.00  0.00    +0.317 C 
ATOM      7  C   UNL     1      33.413 -13.001 -27.444  0.00  0.00    +0.063 C 
ENDROOT
BRANCH   3   8
ATOM      8  O   UNL     1      32.519 -13.991 -22.778  0.00  0.00    -0.429 OA
BRANCH   8  13
ATOM      9  O   UNL     1      35.293 -17.928 -23.011  0.00  0.00    -0.435 OA
ATOM     10  O   UNL     1      35.765 -17.839 -20.650  0.00  0.00    -0.435 OA
ATOM     11  C   UNL     1      34.678 -16.879 -22.400  0.00  0.00    +0.179 C 
ATOM     12  C   UNL     1      34.949 -16.828 -21.052  0.00  0.00    +0.177 C 
ATOM     13  C   UNL     1      33.324 -14.936 -22.217  0.00  0.00    +0.151 C 
ATOM     14  C   UNL     1      33.869 -15.946 -23.014  0.00  0.00    +0.078 C 
ATOM     15  C   UNL     1      34.423 -15.842 -20.243  0.00  0.00    +0.043 C 
ATOM     16  C   UNL     1      33.600 -14.884 -20.839  0.00  0.00    +0.041 C 
ATOM     17  C   UNL     1      35.981 -18.531 -21.896  0.00  0.00    +0.429 C 
ENDBRANCH   8  13
ENDBRANCH   3   8
BRANCH   6  18
ATOM     18  O   UNL     1      34.878 -10.175 -23.938  0.00  0.00    -0.375 OA
BRANCH  18  20
ATOM     19  C   UNL     1      32.665  -6.666 -23.815  0.00  0.00    +0.057 C 
ATOM     20  C   UNL     1      34.143  -9.011 -23.897  0.00  0.00    +0.161 C 
ATOM     21  C   UNL     1      33.984  -6.643 -24.269  0.00  0.00    +0.018 C 
ATOM     22  C   UNL     1      32.090  -7.868 -23.404  0.00  0.00    +0.018 C 
ATOM     23  C   UNL     1      34.728  -7.823 -24.310  0.00  0.00    +0.040 C 
ATOM     24  C   UNL     1      32.832  -9.048 -23.445  0.00  0.00    +0.040 C 
BRANCH  19  25
ATOM     25  N   UNL     1      31.928  -5.497 -23.774  0.00  0.00    -0.246 N 
ATOM     26  N   UNL     1      30.515  -3.942 -23.027  0.00  0.00    -0.224 NA
ATOM     27  C   UNL     1      31.918  -4.501 -24.718  0.00  0.00    +0.092 C 
ATOM     28  C   UNL     1      31.066  -5.109 -22.778  0.00  0.00    +0.172 C 
ATOM     29  C   UNL     1      31.042  -3.558 -24.235  0.00  0.00    +0.117 C 
ENDBRANCH  19  25
ENDBRANCH  18  20
ENDBRANCH   6  18
TORSDOF 5
ENDMDL
