MODEL 1
REMARK VINA RESULT:     -11.6      0.000      0.000
REMARK  Name = 25011732
REMARK  7 active torsions:
REMARK  status: ('A' for Active; 'I' for Inactive)
REMARK    1  A    between atoms: C_3  and  C_10
REMARK    2  A    between atoms: C_7  and  C_20
REMARK    3  A    between atoms: N_9  and  C_12
REMARK    4  A    between atoms: C_12  and  C_14
REMARK    5  A    between atoms: C_20  and  N_21
REMARK    6  A    between atoms: C_20  and  C_25
REMARK    7  A    between atoms: C_25  and  C_26
REMARK                            x       y       z     vdW  Elec       q    Type
REMARK                         _______ _______ _______ _____ _____    ______ ____
ROOT
ATOM      1  O   UNL     1      35.083 -15.740 -20.443  0.00  0.00    -0.277 OA
ATOM      2  N   UNL     1      34.533 -15.953 -22.681  0.00  0.00    -0.275 N 
ATOM      3  C   UNL     1      34.271 -14.540 -22.923  0.00  0.00    +0.152 C 
ATOM      4  C   UNL     1      34.249 -14.406 -24.442  0.00  0.00    +0.031 C 
ATOM      5  C   UNL     1      33.774 -15.778 -24.913  0.00  0.00    +0.024 C 
ATOM      6  C   UNL     1      34.410 -16.730 -23.911  0.00  0.00    +0.094 C 
ATOM      7  C   UNL     1      34.992 -16.427 -21.462  0.00  0.00    +0.206 C 
ENDROOT
BRANCH   3  10
ATOM      8  O   UNL     1      32.230 -15.101 -21.820  0.00  0.00    -0.273 OA
ATOM      9  N   UNL     1      32.618 -12.885 -22.415  0.00  0.00    -0.299 N 
ATOM     10  C   UNL     1      32.936 -14.228 -22.317  0.00  0.00    +0.241 C 
ATOM     11  H   UNL     1      33.268 -12.278 -22.837  0.00  0.00    +0.150 HD
BRANCH   9  12
ATOM     12  C   UNL     1      31.376 -12.329 -21.928  0.00  0.00    +0.116 C 
BRANCH  12  14
ATOM     13 CL   UNL     1      32.686  -7.290 -22.030  0.00  0.00    -0.082 Cl
ATOM     14  C   UNL     1      31.588 -11.042 -21.185  0.00  0.00    -0.002 C 
ATOM     15  C   UNL     1      31.992  -9.897 -21.873  0.00  0.00    +0.009 C 
ATOM     16  C   UNL     1      31.383 -10.992 -19.806  0.00  0.00    -0.003 C 
ATOM     17  C   UNL     1      32.190  -8.702 -21.181  0.00  0.00    +0.057 C 
ATOM     18  C   UNL     1      31.581  -9.797 -19.115  0.00  0.00    +0.001 C 
ATOM     19  C   UNL     1      31.984  -8.651 -19.803  0.00  0.00    +0.011 C 
ENDBRANCH  12  14
ENDBRANCH   9  12
ENDBRANCH   3  10
BRANCH   7  20
ATOM     20  C   UNL     1      35.380 -17.884 -21.435  0.00  0.00    +0.018 C 
BRANCH  20  21
ATOM     21  N   UNL     1      36.237 -18.075 -22.599  0.00  0.00    +0.388 N 
ATOM     22  H   UNL     1      35.663 -18.318 -23.407  0.00  0.00    -0.089 HD
ATOM     23  H   UNL     1      36.900 -18.826 -22.413  0.00  0.00    -0.089 HD
ATOM     24  H   UNL     1      36.746 -17.211 -22.791  0.00  0.00    -0.089 HD
ENDBRANCH  20  21
BRANCH  20  25
ATOM     25  C   UNL     1      34.147 -18.785 -21.499  0.00  0.00    +0.013 C 
BRANCH  25  26
ATOM     26  C   UNL     1      34.265 -19.999 -20.607  0.00  0.00    -0.024 C 
ATOM     27  C   UNL     1      33.118 -20.585 -20.073  0.00  0.00    -0.004 C 
ATOM     28  C   UNL     1      35.521 -20.534 -20.318  0.00  0.00    -0.004 C 
ATOM     29  C   UNL     1      33.226 -21.705 -19.249  0.00  0.00    -0.000 C 
ATOM     30  C   UNL     1      35.629 -21.654 -19.495  0.00  0.00    -0.000 C 
ATOM     31  C   UNL     1      34.481 -22.240 -18.960  0.00  0.00    -0.000 C 
ENDBRANCH  25  26
ENDBRANCH  20  25
ENDBRANCH   7  20
TORSDOF 7
ENDMDL
MODEL 2
REMARK VINA RESULT:     -11.5      1.958      2.977
REMARK  Name = 25011732
REMARK  7 active torsions:
REMARK  status: ('A' for Active; 'I' for Inactive)
REMARK    1  A    between atoms: C_3  and  C_10
REMARK    2  A    between atoms: C_7  and  C_20
REMARK    3  A    between atoms: N_9  and  C_12
REMARK    4  A    between atoms: C_12  and  C_14
REMARK    5  A    between atoms: C_20  and  N_21
REMARK    6  A    between atoms: C_20  and  C_25
REMARK    7  A    between atoms: C_25  and  C_26
REMARK                            x       y       z     vdW  Elec       q    Type
REMARK                         _______ _______ _______ _____ _____    ______ ____
ROOT
ATOM      1  O   UNL     1      34.353 -16.819 -24.206  0.00  0.00    -0.277 OA
ATOM      2  N   UNL     1      33.804 -15.802 -22.202  0.00  0.00    -0.275 N 
ATOM      3  C   UNL     1      32.971 -14.751 -22.771  0.00  0.00    +0.152 C 
ATOM      4  C   UNL     1      32.202 -14.181 -21.584  0.00  0.00    +0.031 C 
ATOM      5  C   UNL     1      33.146 -14.411 -20.406  0.00  0.00    +0.024 C 
ATOM      6  C   UNL     1      33.805 -15.741 -20.742  0.00  0.00    +0.094 C 
ATOM      7  C   UNL     1      34.374 -16.801 -22.974  0.00  0.00    +0.206 C 
ENDROOT
BRANCH   3  10
ATOM      8  O   UNL     1      35.055 -13.612 -23.005  0.00  0.00    -0.273 OA
ATOM      9  N   UNL     1      33.266 -12.978 -24.352  0.00  0.00    -0.299 N 
ATOM     10  C   UNL     1      33.891 -13.735 -23.377  0.00  0.00    +0.241 C 
ATOM     11  H   UNL     1      32.325 -13.172 -24.565  0.00  0.00    +0.150 HD
BRANCH   9  12
ATOM     12  C   UNL     1      33.929 -11.916 -25.074  0.00  0.00    +0.116 C 
BRANCH  12  14
ATOM     13 CL   UNL     1      31.648  -8.912 -21.483  0.00  0.00    -0.082 Cl
ATOM     14  C   UNL     1      33.890 -10.616 -24.324  0.00  0.00    -0.002 C 
ATOM     15  C   UNL     1      32.902 -10.394 -23.364  0.00  0.00    +0.009 C 
ATOM     16  C   UNL     1      34.843  -9.631 -24.586  0.00  0.00    -0.003 C 
ATOM     17  C   UNL     1      32.866  -9.186 -22.668  0.00  0.00    +0.057 C 
ATOM     18  C   UNL     1      34.806  -8.424 -23.889  0.00  0.00    +0.001 C 
ATOM     19  C   UNL     1      33.818  -8.201 -22.929  0.00  0.00    +0.011 C 
ENDBRANCH  12  14
ENDBRANCH   9  12
ENDBRANCH   3  10
BRANCH   7  20
ATOM     20  C   UNL     1      35.058 -17.905 -22.208  0.00  0.00    +0.018 C 
BRANCH  20  21
ATOM     21  N   UNL     1      36.414 -17.958 -22.739  0.00  0.00    +0.388 N 
ATOM     22  H   UNL     1      36.942 -18.681 -22.251  0.00  0.00    -0.089 HD
ATOM     23  H   UNL     1      36.867 -17.055 -22.604  0.00  0.00    -0.089 HD
ATOM     24  H   UNL     1      36.380 -18.176 -23.736  0.00  0.00    -0.089 HD
ENDBRANCH  20  21
BRANCH  20  25
ATOM     25  C   UNL     1      34.335 -19.238 -22.398  0.00  0.00    +0.013 C 
BRANCH  25  26
ATOM     26  C   UNL     1      34.391 -20.113 -21.167  0.00  0.00    -0.024 C 
ATOM     27  C   UNL     1      35.623 -20.526 -20.662  0.00  0.00    -0.004 C 
ATOM     28  C   UNL     1      33.211 -20.508 -20.537  0.00  0.00    -0.004 C 
ATOM     29  C   UNL     1      35.676 -21.333 -19.526  0.00  0.00    -0.000 C 
ATOM     30  C   UNL     1      33.263 -21.315 -19.401  0.00  0.00    -0.000 C 
ATOM     31  C   UNL     1      34.496 -21.728 -18.895  0.00  0.00    -0.000 C 
ENDBRANCH  25  26
ENDBRANCH  20  25
ENDBRANCH   7  20
TORSDOF 7
ENDMDL
MODEL 3
REMARK VINA RESULT:     -11.3      3.791      9.303
REMARK  Name = 25011732
REMARK  7 active torsions:
REMARK  status: ('A' for Active; 'I' for Inactive)
REMARK    1  A    between atoms: C_3  and  C_10
REMARK    2  A    between atoms: C_7  and  C_20
REMARK    3  A    between atoms: N_9  and  C_12
REMARK    4  A    between atoms: C_12  and  C_14
REMARK    5  A    between atoms: C_20  and  N_21
REMARK    6  A    between atoms: C_20  and  C_25
REMARK    7  A    between atoms: C_25  and  C_26
REMARK                            x       y       z     vdW  Elec       q    Type
REMARK                         _______ _______ _______ _____ _____    ______ ____
ROOT
ATOM      1  O   UNL     1      35.076 -15.027 -24.453  0.00  0.00    -0.277 OA
ATOM      2  N   UNL     1      33.846 -14.934 -22.495  0.00  0.00    -0.275 N 
ATOM      3  C   UNL     1      34.700 -15.825 -21.720  0.00  0.00    +0.152 C 
ATOM      4  C   UNL     1      34.270 -15.610 -20.273  0.00  0.00    +0.031 C 
ATOM      5  C   UNL     1      32.800 -15.216 -20.393  0.00  0.00    +0.024 C 
ATOM      6  C   UNL     1      32.763 -14.398 -21.675  0.00  0.00    +0.094 C 
ATOM      7  C   UNL     1      34.152 -14.551 -23.791  0.00  0.00    +0.206 C 
ENDROOT
BRANCH   3  10
ATOM      8  O   UNL     1      34.635 -17.579 -23.338  0.00  0.00    -0.273 OA
ATOM      9  N   UNL     1      33.878 -18.008 -21.179  0.00  0.00    -0.299 N 
ATOM     10  C   UNL     1      34.417 -17.222 -22.183  0.00  0.00    +0.241 C 
ATOM     11  H   UNL     1      33.749 -17.608 -20.288  0.00  0.00    +0.150 HD
BRANCH   9  12
ATOM     12  C   UNL     1      33.495 -19.388 -21.374  0.00  0.00    +0.116 C 
BRANCH  12  14
ATOM     13 CL   UNL     1      33.344 -23.179 -17.807  0.00  0.00    -0.082 Cl
ATOM     14  C   UNL     1      34.234 -20.313 -20.451  0.00  0.00    -0.002 C 
ATOM     15  C   UNL     1      33.528 -21.211 -19.651  0.00  0.00    +0.009 C 
ATOM     16  C   UNL     1      35.628 -20.273 -20.393  0.00  0.00    -0.003 C 
ATOM     17  C   UNL     1      34.215 -22.070 -18.793  0.00  0.00    +0.057 C 
ATOM     18  C   UNL     1      36.314 -21.132 -19.535  0.00  0.00    +0.001 C 
ATOM     19  C   UNL     1      35.608 -22.031 -18.735  0.00  0.00    +0.011 C 
ENDBRANCH  12  14
ENDBRANCH   9  12
ENDBRANCH   3  10
BRANCH   7  20
ATOM     20  C   UNL     1      33.259 -13.490 -24.383  0.00  0.00    +0.018 C 
BRANCH  20  21
ATOM     21  N   UNL     1      32.420 -14.188 -25.349  0.00  0.00    +0.388 N 
ATOM     22  H   UNL     1      32.766 -14.011 -26.291  0.00  0.00    -0.089 HD
ATOM     23  H   UNL     1      31.460 -13.854 -25.270  0.00  0.00    -0.089 HD
ATOM     24  H   UNL     1      32.447 -15.191 -25.159  0.00  0.00    -0.089 HD
ENDBRANCH  20  21
BRANCH  20  25
ATOM     25  C   UNL     1      34.080 -12.389 -25.054  0.00  0.00    +0.013 C 
BRANCH  25  26
ATOM     26  C   UNL     1      33.922 -11.048 -24.376  0.00  0.00    -0.024 C 
ATOM     27  C   UNL     1      32.877 -10.841 -23.475  0.00  0.00    -0.004 C 
ATOM     28  C   UNL     1      34.821 -10.017 -24.651  0.00  0.00    -0.004 C 
ATOM     29  C   UNL     1      32.731  -9.603 -22.849  0.00  0.00    -0.000 C 
ATOM     30  C   UNL     1      34.675  -8.779 -24.025  0.00  0.00    -0.000 C 
ATOM     31  C   UNL     1      33.630  -8.572 -23.124  0.00  0.00    -0.000 C 
ENDBRANCH  25  26
ENDBRANCH  20  25
ENDBRANCH   7  20
TORSDOF 7
ENDMDL
MODEL 4
REMARK VINA RESULT:     -11.0      4.343      9.330
REMARK  Name = 25011732
REMARK  7 active torsions:
REMARK  status: ('A' for Active; 'I' for Inactive)
REMARK    1  A    between atoms: C_3  and  C_10
REMARK    2  A    between atoms: C_7  and  C_20
REMARK    3  A    between atoms: N_9  and  C_12
REMARK    4  A    between atoms: C_12  and  C_14
REMARK    5  A    between atoms: C_20  and  N_21
REMARK    6  A    between atoms: C_20  and  C_25
REMARK    7  A    between atoms: C_25  and  C_26
REMARK                            x       y       z     vdW  Elec       q    Type
REMARK                         _______ _______ _______ _____ _____    ______ ____
ROOT
ATOM      1  O   UNL     1      34.009 -16.551 -20.546  0.00  0.00    -0.277 OA
ATOM      2  N   UNL     1      34.605 -17.317 -22.647  0.00  0.00    -0.275 N 
ATOM      3  C   UNL     1      34.426 -18.735 -22.364  0.00  0.00    +0.152 C 
ATOM      4  C   UNL     1      34.411 -19.403 -23.734  0.00  0.00    +0.031 C 
ATOM      5  C   UNL     1      35.283 -18.485 -24.587  0.00  0.00    +0.024 C 
ATOM      6  C   UNL     1      34.964 -17.099 -24.046  0.00  0.00    +0.094 C 
ATOM      7  C   UNL     1      34.308 -16.330 -21.720  0.00  0.00    +0.206 C 
ENDROOT
BRANCH   3  10
ATOM      8  O   UNL     1      36.689 -18.608 -21.614  0.00  0.00    -0.273 OA
ATOM      9  N   UNL     1      35.305 -20.269 -20.750  0.00  0.00    -0.299 N 
ATOM     10  C   UNL     1      35.601 -19.174 -21.543  0.00  0.00    +0.241 C 
ATOM     11  H   UNL     1      34.392 -20.636 -20.779  0.00  0.00    +0.150 HD
BRANCH   9  12
ATOM     12  C   UNL     1      36.273 -20.900 -19.881  0.00  0.00    +0.116 C 
BRANCH  12  14
ATOM     13 CL   UNL     1      36.524 -22.930 -15.092  0.00  0.00    -0.082 Cl
ATOM     14  C   UNL     1      35.616 -21.684 -18.783  0.00  0.00    -0.002 C 
ATOM     15  C   UNL     1      36.296 -21.916 -17.587  0.00  0.00    +0.009 C 
ATOM     16  C   UNL     1      34.323 -22.181 -18.958  0.00  0.00    -0.003 C 
ATOM     17  C   UNL     1      35.685 -22.645 -16.567  0.00  0.00    +0.057 C 
ATOM     18  C   UNL     1      33.713 -22.909 -17.938  0.00  0.00    +0.001 C 
ATOM     19  C   UNL     1      34.394 -23.141 -16.742  0.00  0.00    +0.011 C 
ENDBRANCH  12  14
ENDBRANCH   9  12
ENDBRANCH   3  10
BRANCH   7  20
ATOM     20  C   UNL     1      34.382 -14.913 -22.233  0.00  0.00    +0.018 C 
BRANCH  20  21
ATOM     21  N   UNL     1      34.699 -14.099 -21.067  0.00  0.00    +0.388 N 
ATOM     22  H   UNL     1      33.916 -14.120 -20.414  0.00  0.00    -0.089 HD
ATOM     23  H   UNL     1      34.872 -13.138 -21.360  0.00  0.00    -0.089 HD
ATOM     24  H   UNL     1      35.532 -14.470 -20.610  0.00  0.00    -0.089 HD
ENDBRANCH  20  21
BRANCH  20  25
ATOM     25  C   UNL     1      33.058 -14.486 -22.866  0.00  0.00    +0.013 C 
BRANCH  25  26
ATOM     26  C   UNL     1      33.247 -13.738 -24.166  0.00  0.00    -0.024 C 
ATOM     27  C   UNL     1      33.695 -12.418 -24.151  0.00  0.00    -0.004 C 
ATOM     28  C   UNL     1      32.973 -14.369 -25.380  0.00  0.00    -0.004 C 
ATOM     29  C   UNL     1      33.870 -11.727 -25.350  0.00  0.00    -0.000 C 
ATOM     30  C   UNL     1      33.148 -13.678 -26.579  0.00  0.00    -0.000 C 
ATOM     31  C   UNL     1      33.596 -12.358 -26.564  0.00  0.00    -0.000 C 
ENDBRANCH  25  26
ENDBRANCH  20  25
ENDBRANCH   7  20
TORSDOF 7
ENDMDL
MODEL 5
REMARK VINA RESULT:     -11.0      3.078      8.739
REMARK  Name = 25011732
REMARK  7 active torsions:
REMARK  status: ('A' for Active; 'I' for Inactive)
REMARK    1  A    between atoms: C_3  and  C_10
REMARK    2  A    between atoms: C_7  and  C_20
REMARK    3  A    between atoms: N_9  and  C_12
REMARK    4  A    between atoms: C_12  and  C_14
REMARK    5  A    between atoms: C_20  and  N_21
REMARK    6  A    between atoms: C_20  and  C_25
REMARK    7  A    between atoms: C_25  and  C_26
REMARK                            x       y       z     vdW  Elec       q    Type
REMARK                         _______ _______ _______ _____ _____    ______ ____
ROOT
ATOM      1  O   UNL     1      32.145 -14.912 -21.731  0.00  0.00    -0.277 OA
ATOM      2  N   UNL     1      32.991 -13.571 -23.416  0.00  0.00    -0.275 N 
ATOM      3  C   UNL     1      32.994 -14.591 -24.456  0.00  0.00    +0.152 C 
ATOM      4  C   UNL     1      33.171 -13.817 -25.757  0.00  0.00    +0.031 C 
ATOM      5  C   UNL     1      33.963 -12.583 -25.332  0.00  0.00    +0.024 C 
ATOM      6  C   UNL     1      33.414 -12.277 -23.946  0.00  0.00    +0.094 C 
ATOM      7  C   UNL     1      32.494 -13.805 -22.144  0.00  0.00    +0.206 C 
ENDROOT
BRANCH   3  10
ATOM      8  O   UNL     1      35.121 -15.131 -23.516  0.00  0.00    -0.273 OA
ATOM      9  N   UNL     1      34.008 -16.735 -24.783  0.00  0.00    -0.299 N 
ATOM     10  C   UNL     1      34.157 -15.496 -24.184  0.00  0.00    +0.241 C 
ATOM     11  H   UNL     1      33.187 -16.912 -25.296  0.00  0.00    +0.150 HD
BRANCH   9  12
ATOM     12  C   UNL     1      35.002 -17.781 -24.693  0.00  0.00    +0.116 C 
BRANCH  12  14
ATOM     13 CL   UNL     1      32.689 -20.271 -20.747  0.00  0.00    -0.082 Cl
ATOM     14  C   UNL     1      35.090 -18.355 -23.309  0.00  0.00    -0.002 C 
ATOM     15  C   UNL     1      33.978 -18.974 -22.738  0.00  0.00    +0.009 C 
ATOM     16  C   UNL     1      36.285 -18.269 -22.594  0.00  0.00    -0.003 C 
ATOM     17  C   UNL     1      34.060 -19.506 -21.451  0.00  0.00    +0.057 C 
ATOM     18  C   UNL     1      36.367 -18.802 -21.308  0.00  0.00    +0.001 C 
ATOM     19  C   UNL     1      35.255 -19.421 -20.736  0.00  0.00    +0.011 C 
ENDBRANCH  12  14
ENDBRANCH   9  12
ENDBRANCH   3  10
BRANCH   7  20
ATOM     20  C   UNL     1      32.403 -12.595 -21.248  0.00  0.00    +0.018 C 
BRANCH  20  21
ATOM     21  N   UNL     1      32.262 -13.126 -19.898  0.00  0.00    +0.388 N 
ATOM     22  H   UNL     1      31.613 -13.912 -19.908  0.00  0.00    -0.089 HD
ATOM     23  H   UNL     1      31.906 -12.397 -19.281  0.00  0.00    -0.089 HD
ATOM     24  H   UNL     1      33.173 -13.442 -19.561  0.00  0.00    -0.089 HD
ENDBRANCH  20  21
BRANCH  20  25
ATOM     25  C   UNL     1      31.212 -11.716 -21.626  0.00  0.00    +0.013 C 
BRANCH  25  26
ATOM     26  C   UNL     1      31.524 -10.240 -21.539  0.00  0.00    -0.024 C 
ATOM     27  C   UNL     1      31.856  -9.669 -20.310  0.00  0.00    -0.004 C 
ATOM     28  C   UNL     1      31.481  -9.449 -22.687  0.00  0.00    -0.004 C 
ATOM     29  C   UNL     1      32.145  -8.307 -20.230  0.00  0.00    -0.000 C 
ATOM     30  C   UNL     1      31.770  -8.086 -22.606  0.00  0.00    -0.000 C 
ATOM     31  C   UNL     1      32.102  -7.516 -21.378  0.00  0.00    -0.000 C 
ENDBRANCH  25  26
ENDBRANCH  20  25
ENDBRANCH   7  20
TORSDOF 7
ENDMDL
MODEL 6
REMARK VINA RESULT:     -10.9      3.653      9.838
REMARK  Name = 25011732
REMARK  7 active torsions:
REMARK  status: ('A' for Active; 'I' for Inactive)
REMARK    1  A    between atoms: C_3  and  C_10
REMARK    2  A    between atoms: C_7  and  C_20
REMARK    3  A    between atoms: N_9  and  C_12
REMARK    4  A    between atoms: C_12  and  C_14
REMARK    5  A    between atoms: C_20  and  N_21
REMARK    6  A    between atoms: C_20  and  C_25
REMARK    7  A    between atoms: C_25  and  C_26
REMARK                            x       y       z     vdW  Elec       q    Type
REMARK                         _______ _______ _______ _____ _____    ______ ____
ROOT
ATOM      1  O   UNL     1      31.116 -11.067 -20.894  0.00  0.00    -0.277 OA
ATOM      2  N   UNL     1      32.526 -11.593 -22.652  0.00  0.00    -0.275 N 
ATOM      3  C   UNL     1      32.103 -12.980 -22.795  0.00  0.00    +0.152 C 
ATOM      4  C   UNL     1      32.649 -13.412 -24.151  0.00  0.00    +0.031 C 
ATOM      5  C   UNL     1      33.897 -12.550 -24.323  0.00  0.00    +0.024 C 
ATOM      6  C   UNL     1      33.501 -11.230 -23.677  0.00  0.00    +0.094 C 
ATOM      7  C   UNL     1      31.937 -10.725 -21.747  0.00  0.00    +0.206 C 
ENDROOT
BRANCH   3  10
ATOM      8  O   UNL     1      32.338 -13.637 -20.512  0.00  0.00    -0.273 OA
ATOM      9  N   UNL     1      33.768 -14.554 -22.103  0.00  0.00    -0.299 N 
ATOM     10  C   UNL     1      32.727 -13.751 -21.672  0.00  0.00    +0.241 C 
ATOM     11  H   UNL     1      33.988 -14.563 -23.063  0.00  0.00    +0.150 HD
BRANCH   9  12
ATOM     12  C   UNL     1      34.550 -15.382 -21.212  0.00  0.00    +0.116 C 
BRANCH  12  14
ATOM     13 CL   UNL     1      33.370 -20.409 -20.537  0.00  0.00    -0.082 Cl
ATOM     14  C   UNL     1      34.643 -16.799 -21.698  0.00  0.00    -0.002 C 
ATOM     15  C   UNL     1      34.034 -17.826 -20.976  0.00  0.00    +0.009 C 
ATOM     16  C   UNL     1      35.340 -17.089 -22.872  0.00  0.00    -0.003 C 
ATOM     17  C   UNL     1      34.122 -19.143 -21.427  0.00  0.00    +0.057 C 
ATOM     18  C   UNL     1      35.426 -18.406 -23.323  0.00  0.00    +0.001 C 
ATOM     19  C   UNL     1      34.817 -19.433 -22.601  0.00  0.00    +0.011 C 
ENDBRANCH  12  14
ENDBRANCH   9  12
ENDBRANCH   3  10
BRANCH   7  20
ATOM     20  C   UNL     1      32.371  -9.284 -21.850  0.00  0.00    +0.018 C 
BRANCH  20  21
ATOM     21  N   UNL     1      32.314  -8.767 -20.488  0.00  0.00    +0.388 N 
ATOM     22  H   UNL     1      31.503  -9.159 -20.010  0.00  0.00    -0.089 HD
ATOM     23  H   UNL     1      32.236  -7.751 -20.514  0.00  0.00    -0.089 HD
ATOM     24  H   UNL     1      33.164  -9.030 -19.989  0.00  0.00    -0.089 HD
ENDBRANCH  20  21
BRANCH  20  25
ATOM     25  C   UNL     1      31.453  -8.496 -22.783  0.00  0.00    +0.013 C 
BRANCH  25  26
ATOM     26  C   UNL     1      32.208  -7.536 -23.672  0.00  0.00    -0.024 C 
ATOM     27  C   UNL     1      31.521  -6.540 -24.365  0.00  0.00    -0.004 C 
ATOM     28  C   UNL     1      33.593  -7.646 -23.800  0.00  0.00    -0.004 C 
ATOM     29  C   UNL     1      32.217  -5.654 -25.186  0.00  0.00    -0.000 C 
ATOM     30  C   UNL     1      34.290  -6.760 -24.621  0.00  0.00    -0.000 C 
ATOM     31  C   UNL     1      33.602  -5.764 -25.314  0.00  0.00    -0.000 C 
ENDBRANCH  25  26
ENDBRANCH  20  25
ENDBRANCH   7  20
TORSDOF 7
ENDMDL
MODEL 7
REMARK VINA RESULT:     -10.8      4.264     10.690
REMARK  Name = 25011732
REMARK  7 active torsions:
REMARK  status: ('A' for Active; 'I' for Inactive)
REMARK    1  A    between atoms: C_3  and  C_10
REMARK    2  A    between atoms: C_7  and  C_20
REMARK    3  A    between atoms: N_9  and  C_12
REMARK    4  A    between atoms: C_12  and  C_14
REMARK    5  A    between atoms: C_20  and  N_21
REMARK    6  A    between atoms: C_20  and  C_25
REMARK    7  A    between atoms: C_25  and  C_26
REMARK                            x       y       z     vdW  Elec       q    Type
REMARK                         _______ _______ _______ _____ _____    ______ ____
ROOT
ATOM      1  O   UNL     1      31.161  -9.667 -22.740  0.00  0.00    -0.277 OA
ATOM      2  N   UNL     1      33.253  -9.841 -23.714  0.00  0.00    -0.275 N 
ATOM      3  C   UNL     1      33.031 -11.130 -24.355  0.00  0.00    +0.152 C 
ATOM      4  C   UNL     1      34.167 -11.261 -25.363  0.00  0.00    +0.031 C 
ATOM      5  C   UNL     1      35.297 -10.453 -24.732  0.00  0.00    +0.024 C 
ATOM      6  C   UNL     1      34.567  -9.302 -24.055  0.00  0.00    +0.094 C 
ATOM      7  C   UNL     1      32.260  -9.179 -23.010  0.00  0.00    +0.206 C 
ENDROOT
BRANCH   3  10
ATOM      8  O   UNL     1      32.366 -12.166 -22.310  0.00  0.00    -0.273 OA
ATOM      9  N   UNL     1      34.114 -13.099 -23.531  0.00  0.00    -0.299 N 
ATOM     10  C   UNL     1      33.112 -12.177 -23.286  0.00  0.00    +0.241 C 
ATOM     11  H   UNL     1      34.649 -13.004 -24.351  0.00  0.00    +0.150 HD
BRANCH   9  12
ATOM     12  C   UNL     1      34.414 -14.196 -22.638  0.00  0.00    +0.116 C 
BRANCH  12  14
ATOM     13 CL   UNL     1      35.199 -19.342 -22.477  0.00  0.00    -0.082 Cl
ATOM     14  C   UNL     1      34.442 -15.514 -23.357  0.00  0.00    -0.002 C 
ATOM     15  C   UNL     1      34.770 -16.680 -22.664  0.00  0.00    +0.009 C 
ATOM     16  C   UNL     1      34.141 -15.572 -24.718  0.00  0.00    -0.003 C 
ATOM     17  C   UNL     1      34.796 -17.904 -23.332  0.00  0.00    +0.057 C 
ATOM     18  C   UNL     1      34.167 -16.796 -25.385  0.00  0.00    +0.001 C 
ATOM     19  C   UNL     1      34.495 -17.962 -24.693  0.00  0.00    +0.011 C 
ENDBRANCH  12  14
ENDBRANCH   9  12
ENDBRANCH   3  10
BRANCH   7  20
ATOM     20  C   UNL     1      32.603  -7.780 -22.562  0.00  0.00    +0.018 C 
BRANCH  20  21
ATOM     21  N   UNL     1      32.841  -7.884 -21.127  0.00  0.00    +0.388 N 
ATOM     22  H   UNL     1      32.835  -8.866 -20.852  0.00  0.00    -0.089 HD
ATOM     23  H   UNL     1      32.109  -7.384 -20.624  0.00  0.00    -0.089 HD
ATOM     24  H   UNL     1      33.748  -7.474 -20.903  0.00  0.00    -0.089 HD
ENDBRANCH  20  21
BRANCH  20  25
ATOM     25  C   UNL     1      31.465  -6.808 -22.867  0.00  0.00    +0.013 C 
BRANCH  25  26
ATOM     26  C   UNL     1      31.794  -5.861 -23.998  0.00  0.00    -0.024 C 
ATOM     27  C   UNL     1      32.906  -6.098 -24.804  0.00  0.00    -0.004 C 
ATOM     28  C   UNL     1      30.985  -4.749 -24.235  0.00  0.00    -0.004 C 
ATOM     29  C   UNL     1      33.210  -5.224 -25.848  0.00  0.00    -0.000 C 
ATOM     30  C   UNL     1      31.289  -3.875 -25.278  0.00  0.00    -0.000 C 
ATOM     31  C   UNL     1      32.402  -4.113 -26.085  0.00  0.00    -0.000 C 
ENDBRANCH  25  26
ENDBRANCH  20  25
ENDBRANCH   7  20
TORSDOF 7
ENDMDL
MODEL 8
REMARK VINA RESULT:     -10.7      3.810      9.458
REMARK  Name = 25011732
REMARK  7 active torsions:
REMARK  status: ('A' for Active; 'I' for Inactive)
REMARK    1  A    between atoms: C_3  and  C_10
REMARK    2  A    between atoms: C_7  and  C_20
REMARK    3  A    between atoms: N_9  and  C_12
REMARK    4  A    between atoms: C_12  and  C_14
REMARK    5  A    between atoms: C_20  and  N_21
REMARK    6  A    between atoms: C_20  and  C_25
REMARK    7  A    between atoms: C_25  and  C_26
REMARK                            x       y       z     vdW  Elec       q    Type
REMARK                         _______ _______ _______ _____ _____    ______ ____
ROOT
ATOM      1  O   UNL     1      33.505 -16.551 -20.468  0.00  0.00    -0.277 OA
ATOM      2  N   UNL     1      34.460 -17.371 -22.410  0.00  0.00    -0.275 N 
ATOM      3  C   UNL     1      34.278 -18.783 -22.102  0.00  0.00    +0.152 C 
ATOM      4  C   UNL     1      34.508 -19.501 -23.427  0.00  0.00    +0.031 C 
ATOM      5  C   UNL     1      35.482 -18.585 -24.164  0.00  0.00    +0.024 C 
ATOM      6  C   UNL     1      35.038 -17.192 -23.740  0.00  0.00    +0.094 C 
ATOM      7  C   UNL     1      33.987 -16.362 -21.587  0.00  0.00    +0.206 C 
ENDROOT
BRANCH   3  10
ATOM      8  O   UNL     1      36.043 -18.307 -20.566  0.00  0.00    -0.273 OA
ATOM      9  N   UNL     1      35.346 -20.512 -20.835  0.00  0.00    -0.299 N 
ATOM     10  C   UNL     1      35.314 -19.150 -21.082  0.00  0.00    +0.241 C 
ATOM     11  H   UNL     1      34.708 -21.090 -21.312  0.00  0.00    +0.150 HD
BRANCH   9  12
ATOM     12  C   UNL     1      36.271 -21.126 -19.910  0.00  0.00    +0.116 C 
BRANCH  12  14
ATOM     13 CL   UNL     1      36.351 -22.937 -15.028  0.00  0.00    -0.082 Cl
ATOM     14  C   UNL     1      35.563 -21.831 -18.790  0.00  0.00    -0.002 C 
ATOM     15  C   UNL     1      36.211 -22.033 -17.572  0.00  0.00    +0.009 C 
ATOM     16  C   UNL     1      34.255 -22.284 -18.969  0.00  0.00    -0.003 C 
ATOM     17  C   UNL     1      35.552 -22.689 -16.532  0.00  0.00    +0.057 C 
ATOM     18  C   UNL     1      33.597 -22.940 -17.929  0.00  0.00    +0.001 C 
ATOM     19  C   UNL     1      34.245 -23.142 -16.710  0.00  0.00    +0.011 C 
ENDBRANCH  12  14
ENDBRANCH   9  12
ENDBRANCH   3  10
BRANCH   7  20
ATOM     20  C   UNL     1      34.103 -14.963 -22.139  0.00  0.00    +0.018 C 
BRANCH  20  21
ATOM     21  N   UNL     1      34.625 -14.159 -21.041  0.00  0.00    +0.388 N 
ATOM     22  H   UNL     1      34.547 -13.170 -21.278  0.00  0.00    -0.089 HD
ATOM     23  H   UNL     1      35.603 -14.396 -20.882  0.00  0.00    -0.089 HD
ATOM     24  H   UNL     1      34.086 -14.349 -20.196  0.00  0.00    -0.089 HD
ENDBRANCH  20  21
BRANCH  20  25
ATOM     25  C   UNL     1      32.747 -14.443 -22.614  0.00  0.00    +0.013 C 
BRANCH  25  26
ATOM     26  C   UNL     1      32.748 -12.952 -22.862  0.00  0.00    -0.024 C 
ATOM     27  C   UNL     1      33.584 -12.409 -23.837  0.00  0.00    -0.004 C 
ATOM     28  C   UNL     1      31.914 -12.120 -22.116  0.00  0.00    -0.004 C 
ATOM     29  C   UNL     1      33.586 -11.033 -24.066  0.00  0.00    -0.000 C 
ATOM     30  C   UNL     1      31.915 -10.744 -22.345  0.00  0.00    -0.000 C 
ATOM     31  C   UNL     1      32.751 -10.201 -23.320  0.00  0.00    -0.000 C 
ENDBRANCH  25  26
ENDBRANCH  20  25
ENDBRANCH   7  20
TORSDOF 7
ENDMDL
MODEL 9
REMARK VINA RESULT:     -10.7      7.092     11.203
REMARK  Name = 25011732
REMARK  7 active torsions:
REMARK  status: ('A' for Active; 'I' for Inactive)
REMARK    1  A    between atoms: C_3  and  C_10
REMARK    2  A    between atoms: C_7  and  C_20
REMARK    3  A    between atoms: N_9  and  C_12
REMARK    4  A    between atoms: C_12  and  C_14
REMARK    5  A    between atoms: C_20  and  N_21
REMARK    6  A    between atoms: C_20  and  C_25
REMARK    7  A    between atoms: C_25  and  C_26
REMARK                            x       y       z     vdW  Elec       q    Type
REMARK                         _______ _______ _______ _____ _____    ______ ____
ROOT
ATOM      1  O   UNL     1      33.547 -24.134 -17.395  0.00  0.00    -0.277 OA
ATOM      2  N   UNL     1      35.379 -23.015 -16.530  0.00  0.00    -0.275 N 
ATOM      3  C   UNL     1      35.827 -24.085 -15.649  0.00  0.00    +0.152 C 
ATOM      4  C   UNL     1      37.246 -23.693 -15.253  0.00  0.00    +0.031 C 
ATOM      5  C   UNL     1      37.224 -22.167 -15.317  0.00  0.00    +0.024 C 
ATOM      6  C   UNL     1      36.300 -21.882 -16.492  0.00  0.00    +0.094 C 
ATOM      7  C   UNL     1      34.304 -23.161 -17.392  0.00  0.00    +0.206 C 
ENDROOT
BRANCH   3  10
ATOM      8  O   UNL     1      35.182 -24.706 -13.436  0.00  0.00    -0.273 OA
ATOM      9  N   UNL     1      33.739 -23.392 -14.705  0.00  0.00    -0.299 N 
ATOM     10  C   UNL     1      34.904 -24.101 -14.468  0.00  0.00    +0.241 C 
ATOM     11  H   UNL     1      33.630 -22.946 -15.576  0.00  0.00    +0.150 HD
BRANCH   9  12
ATOM     12  C   UNL     1      32.675 -23.273 -13.734  0.00  0.00    +0.116 C 
BRANCH  12  14
ATOM     13 CL   UNL     1      28.290 -22.227 -16.341  0.00  0.00    -0.082 Cl
ATOM     14  C   UNL     1      31.361 -23.750 -14.279  0.00  0.00    -0.002 C 
ATOM     15  C   UNL     1      30.532 -22.869 -14.975  0.00  0.00    +0.009 C 
ATOM     16  C   UNL     1      30.967 -25.075 -14.089  0.00  0.00    -0.003 C 
ATOM     17  C   UNL     1      29.311 -23.313 -15.481  0.00  0.00    +0.057 C 
ATOM     18  C   UNL     1      29.745 -25.518 -14.595  0.00  0.00    +0.001 C 
ATOM     19  C   UNL     1      28.917 -24.637 -15.291  0.00  0.00    +0.011 C 
ENDBRANCH  12  14
ENDBRANCH   9  12
ENDBRANCH   3  10
BRANCH   7  20
ATOM     20  C   UNL     1      34.085 -22.023 -18.358  0.00  0.00    +0.018 C 
BRANCH  20  21
ATOM     21  N   UNL     1      32.696 -22.141 -18.781  0.00  0.00    +0.388 N 
ATOM     22  H   UNL     1      32.489 -21.421 -19.474  0.00  0.00    -0.089 HD
ATOM     23  H   UNL     1      32.084 -22.023 -17.975  0.00  0.00    -0.089 HD
ATOM     24  H   UNL     1      32.543 -23.062 -19.193  0.00  0.00    -0.089 HD
ENDBRANCH  20  21
BRANCH  20  25
ATOM     25  C   UNL     1      35.039 -22.119 -19.548  0.00  0.00    +0.013 C 
BRANCH  25  26
ATOM     26  C   UNL     1      35.276 -20.784 -20.214  0.00  0.00    -0.024 C 
ATOM     27  C   UNL     1      36.573 -20.282 -20.327  0.00  0.00    -0.004 C 
ATOM     28  C   UNL     1      34.200 -20.052 -20.716  0.00  0.00    -0.004 C 
ATOM     29  C   UNL     1      36.793 -19.050 -20.942  0.00  0.00    -0.000 C 
ATOM     30  C   UNL     1      34.420 -18.820 -21.331  0.00  0.00    -0.000 C 
ATOM     31  C   UNL     1      35.716 -18.319 -21.444  0.00  0.00    -0.000 C 
ENDBRANCH  25  26
ENDBRANCH  20  25
ENDBRANCH   7  20
TORSDOF 7
ENDMDL
