MODEL 1
REMARK VINA RESULT:      -8.0      0.000      0.000
REMARK  Name = 1521
REMARK  5 active torsions:
REMARK  status: ('A' for Active; 'I' for Inactive)
REMARK    1  A    between atoms: C_7  and  C_19
REMARK    2  A    between atoms: C_9  and  N_11
REMARK    3  A    between atoms: C_12  and  C_15
REMARK    4  A    between atoms: C_15  and  O_16
REMARK    5  A    between atoms: C_19  and  O_20
REMARK                            x       y       z     vdW  Elec       q    Type
REMARK                         _______ _______ _______ _____ _____    ______ ____
ROOT
ATOM      1  S   UNL     1      32.129 -23.594 -15.416  0.00  0.00    -0.135 S 
ATOM      2  S   UNL     1      36.492 -23.708 -15.764  0.00  0.00    -0.076 S 
ATOM      3  C   UNL     1      34.794 -24.212 -13.894  0.00  0.00    -0.010 A 
ATOM      4  C   UNL     1      33.508 -24.335 -13.132  0.00  0.00    +0.038 C 
ATOM      5  C   UNL     1      34.885 -23.693 -15.175  0.00  0.00    +0.016 A 
ATOM      6  C   UNL     1      32.416 -23.387 -13.627  0.00  0.00    +0.063 C 
ATOM      7  C   UNL     1      36.073 -24.635 -13.411  0.00  0.00    +0.091 A 
ATOM      8  C   UNL     1      33.787 -23.126 -16.016  0.00  0.00    +0.090 C 
ATOM      9  C   UNL     1      37.078 -24.418 -14.326  0.00  0.00    +0.087 A 
ENDROOT
BRANCH   9  11
ATOM     10  O   UNL     1      38.560 -26.982 -14.768  0.00  0.00    -0.263 OA
ATOM     11  N   UNL     1      38.423 -24.672 -14.269  0.00  0.00    -0.270 N 
ATOM     12  C   UNL     1      39.049 -25.901 -14.487  0.00  0.00    +0.326 C 
ATOM     13  H   UNL     1      39.007 -23.910 -14.051  0.00  0.00    +0.156 HD
BRANCH  12  15
ATOM     14  O   UNL     1      41.246 -26.756 -14.001  0.00  0.00    -0.240 OA
ATOM     15  C   UNL     1      40.557 -25.816 -14.342  0.00  0.00    +0.393 C 
BRANCH  15  16
ATOM     16  O   UNL     1      40.982 -24.579 -14.640  0.00  0.00    -0.474 OA
ATOM     17  H   UNL     1      40.809 -24.214 -15.485  0.00  0.00    +0.296 HD
ENDBRANCH  15  16
ENDBRANCH  12  15
ENDBRANCH   9  11
BRANCH   7  19
ATOM     18  O   UNL     1      36.129 -24.672 -11.036  0.00  0.00    -0.245 OA
ATOM     19  C   UNL     1      36.324 -25.231 -12.122  0.00  0.00    +0.339 C 
BRANCH  19  20
ATOM     20  O   UNL     1      36.814 -26.508 -12.167  0.00  0.00    -0.477 OA
ATOM     21  H   UNL     1      36.581 -27.124 -11.500  0.00  0.00    +0.295 HD
ENDBRANCH  19  20
ENDBRANCH   7  19
TORSDOF 5
ENDMDL
MODEL 2
REMARK VINA RESULT:      -7.9      5.547      7.937
REMARK  Name = 1521
REMARK  5 active torsions:
REMARK  status: ('A' for Active; 'I' for Inactive)
REMARK    1  A    between atoms: C_7  and  C_19
REMARK    2  A    between atoms: C_9  and  N_11
REMARK    3  A    between atoms: C_12  and  C_15
REMARK    4  A    between atoms: C_15  and  O_16
REMARK    5  A    between atoms: C_19  and  O_20
REMARK                            x       y       z     vdW  Elec       q    Type
REMARK                         _______ _______ _______ _____ _____    ______ ____
ROOT
ATOM      1  S   UNL     1      36.236 -23.154 -14.539  0.00  0.00    -0.135 S 
ATOM      2  S   UNL     1      32.680 -22.956 -17.087  0.00  0.00    -0.076 S 
ATOM      3  C   UNL     1      33.191 -23.855 -14.727  0.00  0.00    -0.010 A 
ATOM      4  C   UNL     1      33.926 -24.262 -13.486  0.00  0.00    +0.038 C 
ATOM      5  C   UNL     1      33.805 -23.332 -15.853  0.00  0.00    +0.016 A 
ATOM      6  C   UNL     1      35.406 -24.561 -13.728  0.00  0.00    +0.063 C 
ATOM      7  C   UNL     1      31.771 -23.927 -14.896  0.00  0.00    +0.091 A 
ATOM      8  C   UNL     1      35.267 -23.117 -16.084  0.00  0.00    +0.090 C 
ATOM      9  C   UNL     1      31.364 -23.472 -16.129  0.00  0.00    +0.087 A 
ENDROOT
BRANCH   9  11
ATOM     10  O   UNL     1      28.982 -21.901 -15.220  0.00  0.00    -0.263 OA
ATOM     11  N   UNL     1      30.119 -23.370 -16.689  0.00  0.00    -0.270 N 
ATOM     12  C   UNL     1      29.047 -22.614 -16.208  0.00  0.00    +0.326 C 
ATOM     13  H   UNL     1      29.963 -23.883 -17.514  0.00  0.00    +0.156 HD
BRANCH  12  15
ATOM     14  O   UNL     1      27.487 -23.768 -17.632  0.00  0.00    -0.240 OA
ATOM     15  C   UNL     1      27.814 -22.735 -17.082  0.00  0.00    +0.393 C 
BRANCH  15  16
ATOM     16  O   UNL     1      27.172 -21.559 -17.143  0.00  0.00    -0.474 OA
ATOM     17  H   UNL     1      27.659 -20.760 -17.179  0.00  0.00    +0.296 HD
ENDBRANCH  15  16
ENDBRANCH  12  15
ENDBRANCH   9  11
BRANCH   7  19
ATOM     18  O   UNL     1      30.695 -23.934 -12.776  0.00  0.00    -0.245 OA
ATOM     19  C   UNL     1      30.836 -24.411 -13.909  0.00  0.00    +0.339 C 
BRANCH  19  20
ATOM     20  O   UNL     1      30.077 -25.476 -14.314  0.00  0.00    -0.477 OA
ATOM     21  H   UNL     1      30.068 -25.730 -15.216  0.00  0.00    +0.295 HD
ENDBRANCH  19  20
ENDBRANCH   7  19
TORSDOF 5
ENDMDL
MODEL 3
REMARK VINA RESULT:      -7.7      5.592      8.056
REMARK  Name = 1521
REMARK  5 active torsions:
REMARK  status: ('A' for Active; 'I' for Inactive)
REMARK    1  A    between atoms: C_7  and  C_19
REMARK    2  A    between atoms: C_9  and  N_11
REMARK    3  A    between atoms: C_12  and  C_15
REMARK    4  A    between atoms: C_15  and  O_16
REMARK    5  A    between atoms: C_19  and  O_20
REMARK                            x       y       z     vdW  Elec       q    Type
REMARK                         _______ _______ _______ _____ _____    ______ ____
ROOT
ATOM      1  S   UNL     1      36.034 -24.623 -13.577  0.00  0.00    -0.135 S 
ATOM      2  S   UNL     1      31.892 -23.412 -14.323  0.00  0.00    -0.076 S 
ATOM      3  C   UNL     1      34.052 -23.499 -15.724  0.00  0.00    -0.010 A 
ATOM      4  C   UNL     1      35.489 -23.669 -16.119  0.00  0.00    +0.038 C 
ATOM      5  C   UNL     1      33.582 -23.659 -14.431  0.00  0.00    +0.016 A 
ATOM      6  C   UNL     1      36.462 -23.504 -14.952  0.00  0.00    +0.063 C 
ATOM      7  C   UNL     1      32.989 -23.181 -16.628  0.00  0.00    +0.091 A 
ATOM      8  C   UNL     1      34.372 -23.971 -13.200  0.00  0.00    +0.090 C 
ATOM      9  C   UNL     1      31.768 -23.104 -15.998  0.00  0.00    +0.087 A 
ENDROOT
BRANCH   9  11
ATOM     10  O   UNL     1      29.265 -24.742 -15.862  0.00  0.00    -0.263 OA
ATOM     11  N   UNL     1      30.517 -22.829 -16.481  0.00  0.00    -0.270 N 
ATOM     12  C   UNL     1      29.388 -23.645 -16.382  0.00  0.00    +0.326 C 
ATOM     13  H   UNL     1      30.402 -21.970 -16.947  0.00  0.00    +0.156 HD
BRANCH  12  15
ATOM     14  O   UNL     1      27.891 -21.844 -16.943  0.00  0.00    -0.240 OA
ATOM     15  C   UNL     1      28.165 -23.024 -17.032  0.00  0.00    +0.393 C 
BRANCH  15  16
ATOM     16  O   UNL     1      27.467 -23.959 -17.693  0.00  0.00    -0.474 OA
ATOM     17  H   UNL     1      27.619 -24.867 -17.521  0.00  0.00    +0.296 HD
ENDBRANCH  15  16
ENDBRANCH  12  15
ENDBRANCH   9  11
BRANCH   7  19
ATOM     18  O   UNL     1      32.704 -21.979 -18.658  0.00  0.00    -0.245 OA
ATOM     19  C   UNL     1      33.135 -22.964 -18.047  0.00  0.00    +0.339 C 
BRANCH  19  20
ATOM     20  O   UNL     1      33.809 -23.953 -18.712  0.00  0.00    -0.477 OA
ATOM     21  H   UNL     1      34.164 -23.788 -19.563  0.00  0.00    +0.295 HD
ENDBRANCH  19  20
ENDBRANCH   7  19
TORSDOF 5
ENDMDL
MODEL 4
REMARK VINA RESULT:      -7.5     10.555     12.056
REMARK  Name = 1521
REMARK  5 active torsions:
REMARK  status: ('A' for Active; 'I' for Inactive)
REMARK    1  A    between atoms: C_7  and  C_19
REMARK    2  A    between atoms: C_9  and  N_11
REMARK    3  A    between atoms: C_12  and  C_15
REMARK    4  A    between atoms: C_15  and  O_16
REMARK    5  A    between atoms: C_19  and  O_20
REMARK                            x       y       z     vdW  Elec       q    Type
REMARK                         _______ _______ _______ _____ _____    ______ ____
ROOT
ATOM      1  S   UNL     1      32.779 -14.273 -25.999  0.00  0.00    -0.135 S 
ATOM      2  S   UNL     1      34.823 -17.646 -24.098  0.00  0.00    -0.076 S 
ATOM      3  C   UNL     1      33.880 -15.389 -23.290  0.00  0.00    -0.010 A 
ATOM      4  C   UNL     1      33.265 -14.022 -23.285  0.00  0.00    +0.038 C 
ATOM      5  C   UNL     1      34.132 -16.119 -24.441  0.00  0.00    +0.016 A 
ATOM      6  C   UNL     1      33.423 -13.281 -24.612  0.00  0.00    +0.063 C 
ATOM      7  C   UNL     1      34.257 -16.119 -22.119  0.00  0.00    +0.091 A 
ATOM      8  C   UNL     1      33.903 -15.703 -25.859  0.00  0.00    +0.090 C 
ATOM      9  C   UNL     1      34.781 -17.357 -22.416  0.00  0.00    +0.087 A 
ENDROOT
BRANCH   9  11
ATOM     10  O   UNL     1      33.386 -19.784 -21.354  0.00  0.00    -0.263 OA
ATOM     11  N   UNL     1      35.258 -18.355 -21.608  0.00  0.00    -0.270 N 
ATOM     12  C   UNL     1      34.546 -19.465 -21.147  0.00  0.00    +0.326 C 
ATOM     13  H   UNL     1      36.196 -18.282 -21.323  0.00  0.00    +0.156 HD
BRANCH  12  15
ATOM     14  O   UNL     1      34.998 -21.440 -19.847  0.00  0.00    -0.240 OA
ATOM     15  C   UNL     1      35.389 -20.370 -20.270  0.00  0.00    +0.393 C 
BRANCH  15  16
ATOM     16  O   UNL     1      36.589 -19.813 -20.048  0.00  0.00    -0.474 OA
ATOM     17  H   UNL     1      36.736 -18.914 -20.265  0.00  0.00    +0.296 HD
ENDBRANCH  15  16
ENDBRANCH  12  15
ENDBRANCH   9  11
BRANCH   7  19
ATOM     18  O   UNL     1      35.052 -15.483 -19.971  0.00  0.00    -0.245 OA
ATOM     19  C   UNL     1      34.115 -15.652 -20.761  0.00  0.00    +0.339 C 
BRANCH  19  20
ATOM     20  O   UNL     1      32.827 -15.395 -20.376  0.00  0.00    -0.477 OA
ATOM     21  H   UNL     1      32.334 -16.049 -19.921  0.00  0.00    +0.295 HD
ENDBRANCH  19  20
ENDBRANCH   7  19
TORSDOF 5
ENDMDL
MODEL 5
REMARK VINA RESULT:      -7.4      2.790      3.864
REMARK  Name = 1521
REMARK  5 active torsions:
REMARK  status: ('A' for Active; 'I' for Inactive)
REMARK    1  A    between atoms: C_7  and  C_19
REMARK    2  A    between atoms: C_9  and  N_11
REMARK    3  A    between atoms: C_12  and  C_15
REMARK    4  A    between atoms: C_15  and  O_16
REMARK    5  A    between atoms: C_19  and  O_20
REMARK                            x       y       z     vdW  Elec       q    Type
REMARK                         _______ _______ _______ _____ _____    ______ ____
ROOT
ATOM      1  S   UNL     1      35.209 -21.954 -20.047  0.00  0.00    -0.135 S 
ATOM      2  S   UNL     1      37.279 -22.053 -16.190  0.00  0.00    -0.076 S 
ATOM      3  C   UNL     1      34.933 -22.714 -17.023  0.00  0.00    -0.010 A 
ATOM      4  C   UNL     1      33.733 -22.900 -17.904  0.00  0.00    +0.038 C 
ATOM      5  C   UNL     1      36.098 -22.084 -17.428  0.00  0.00    +0.016 A 
ATOM      6  C   UNL     1      33.674 -21.908 -19.065  0.00  0.00    +0.063 C 
ATOM      7  C   UNL     1      35.036 -23.183 -15.675  0.00  0.00    +0.091 A 
ATOM      8  C   UNL     1      36.382 -21.440 -18.748  0.00  0.00    +0.090 C 
ATOM      9  C   UNL     1      36.256 -22.890 -15.108  0.00  0.00    +0.087 A 
ENDROOT
BRANCH   9  11
ATOM     10  O   UNL     1      38.318 -24.890 -14.265  0.00  0.00    -0.263 OA
ATOM     11  N   UNL     1      36.761 -23.152 -13.863  0.00  0.00    -0.270 N 
ATOM     12  C   UNL     1      37.727 -24.107 -13.540  0.00  0.00    +0.326 C 
ATOM     13  H   UNL     1      36.405 -22.614 -13.120  0.00  0.00    +0.156 HD
BRANCH  12  15
ATOM     14  O   UNL     1      37.684 -25.007 -11.307  0.00  0.00    -0.240 OA
ATOM     15  C   UNL     1      38.051 -24.125 -12.057  0.00  0.00    +0.393 C 
BRANCH  15  16
ATOM     16  O   UNL     1      38.779 -23.047 -11.729  0.00  0.00    -0.474 OA
ATOM     17  H   UNL     1      39.501 -22.788 -12.266  0.00  0.00    +0.296 HD
ENDBRANCH  15  16
ENDBRANCH  12  15
ENDBRANCH   9  11
BRANCH   7  19
ATOM     18  O   UNL     1      32.859 -23.471 -14.768  0.00  0.00    -0.245 OA
ATOM     19  C   UNL     1      34.006 -23.892 -14.955  0.00  0.00    +0.339 C 
BRANCH  19  20
ATOM     20  O   UNL     1      34.386 -25.114 -14.468  0.00  0.00    -0.477 OA
ATOM     21  H   UNL     1      33.780 -25.829 -14.473  0.00  0.00    +0.295 HD
ENDBRANCH  19  20
ENDBRANCH   7  19
TORSDOF 5
ENDMDL
MODEL 6
REMARK VINA RESULT:      -7.4      2.815      3.940
REMARK  Name = 1521
REMARK  5 active torsions:
REMARK  status: ('A' for Active; 'I' for Inactive)
REMARK    1  A    between atoms: C_7  and  C_19
REMARK    2  A    between atoms: C_9  and  N_11
REMARK    3  A    between atoms: C_12  and  C_15
REMARK    4  A    between atoms: C_15  and  O_16
REMARK    5  A    between atoms: C_19  and  O_20
REMARK                            x       y       z     vdW  Elec       q    Type
REMARK                         _______ _______ _______ _____ _____    ______ ____
ROOT
ATOM      1  S   UNL     1      29.691 -22.758 -14.726  0.00  0.00    -0.135 S 
ATOM      2  S   UNL     1      33.636 -24.361 -13.707  0.00  0.00    -0.076 S 
ATOM      3  C   UNL     1      32.562 -23.356 -15.821  0.00  0.00    -0.010 A 
ATOM      4  C   UNL     1      31.554 -22.785 -16.774  0.00  0.00    +0.038 C 
ATOM      5  C   UNL     1      32.258 -23.778 -14.538  0.00  0.00    +0.016 A 
ATOM      6  C   UNL     1      30.116 -23.185 -16.447  0.00  0.00    +0.063 C 
ATOM      7  C   UNL     1      33.956 -23.510 -16.103  0.00  0.00    +0.091 A 
ATOM      8  C   UNL     1      30.918 -23.803 -13.873  0.00  0.00    +0.090 C 
ATOM      9  C   UNL     1      34.652 -24.044 -15.042  0.00  0.00    +0.087 A 
ENDROOT
BRANCH   9  11
ATOM     10  O   UNL     1      36.107 -26.587 -15.658  0.00  0.00    -0.263 OA
ATOM     11  N   UNL     1      35.978 -24.350 -14.892  0.00  0.00    -0.270 N 
ATOM     12  C   UNL     1      36.592 -25.565 -15.201  0.00  0.00    +0.326 C 
ATOM     13  H   UNL     1      36.556 -23.642 -14.528  0.00  0.00    +0.156 HD
BRANCH  12  15
ATOM     14  O   UNL     1      38.695 -26.536 -14.543  0.00  0.00    -0.240 OA
ATOM     15  C   UNL     1      38.080 -25.553 -14.907  0.00  0.00    +0.393 C 
BRANCH  15  16
ATOM     16  O   UNL     1      38.582 -24.325 -15.107  0.00  0.00    -0.474 OA
ATOM     17  H   UNL     1      38.010 -23.584 -15.138  0.00  0.00    +0.296 HD
ENDBRANCH  15  16
ENDBRANCH  12  15
ENDBRANCH   9  11
BRANCH   7  19
ATOM     18  O   UNL     1      34.143 -23.378 -18.469  0.00  0.00    -0.245 OA
ATOM     19  C   UNL     1      34.603 -23.154 -17.343  0.00  0.00    +0.339 C 
BRANCH  19  20
ATOM     20  O   UNL     1      35.810 -22.523 -17.198  0.00  0.00    -0.477 OA
ATOM     21  H   UNL     1      35.843 -21.640 -16.887  0.00  0.00    +0.295 HD
ENDBRANCH  19  20
ENDBRANCH   7  19
TORSDOF 5
ENDMDL
MODEL 7
REMARK VINA RESULT:      -7.3      2.291      3.163
REMARK  Name = 1521
REMARK  5 active torsions:
REMARK  status: ('A' for Active; 'I' for Inactive)
REMARK    1  A    between atoms: C_7  and  C_19
REMARK    2  A    between atoms: C_9  and  N_11
REMARK    3  A    between atoms: C_12  and  C_15
REMARK    4  A    between atoms: C_15  and  O_16
REMARK    5  A    between atoms: C_19  and  O_20
REMARK                            x       y       z     vdW  Elec       q    Type
REMARK                         _______ _______ _______ _____ _____    ______ ____
ROOT
ATOM      1  S   UNL     1      31.413 -23.579 -13.930  0.00  0.00    -0.135 S 
ATOM      2  S   UNL     1      35.564 -24.944 -13.655  0.00  0.00    -0.076 S 
ATOM      3  C   UNL     1      34.235 -23.450 -15.278  0.00  0.00    -0.010 A 
ATOM      4  C   UNL     1      33.105 -22.727 -15.950  0.00  0.00    +0.038 C 
ATOM      5  C   UNL     1      34.075 -24.294 -14.192  0.00  0.00    +0.016 A 
ATOM      6  C   UNL     1      31.743 -23.379 -15.712  0.00  0.00    +0.063 C 
ATOM      7  C   UNL     1      35.612 -23.338 -15.652  0.00  0.00    +0.091 A 
ATOM      8  C   UNL     1      32.800 -24.689 -13.517  0.00  0.00    +0.090 C 
ATOM      9  C   UNL     1      36.437 -24.097 -14.854  0.00  0.00    +0.087 A 
ENDROOT
BRANCH   9  11
ATOM     10  O   UNL     1      38.030 -26.628 -15.013  0.00  0.00    -0.263 OA
ATOM     11  N   UNL     1      37.795 -24.276 -14.867  0.00  0.00    -0.270 N 
ATOM     12  C   UNL     1      38.474 -25.494 -14.942  0.00  0.00    +0.326 C 
ATOM     13  H   UNL     1      38.347 -23.463 -14.817  0.00  0.00    +0.156 HD
BRANCH  12  15
ATOM     14  O   UNL     1      40.580 -24.751 -14.042  0.00  0.00    -0.240 OA
ATOM     15  C   UNL     1      39.981 -25.318 -14.934  0.00  0.00    +0.393 C 
BRANCH  15  16
ATOM     16  O   UNL     1      40.518 -25.869 -16.033  0.00  0.00    -0.474 OA
ATOM     17  H   UNL     1      41.364 -25.597 -16.329  0.00  0.00    +0.296 HD
ENDBRANCH  15  16
ENDBRANCH  12  15
ENDBRANCH   9  11
BRANCH   7  19
ATOM     18  O   UNL     1      35.720 -22.579 -17.901  0.00  0.00    -0.245 OA
ATOM     19  C   UNL     1      36.122 -22.530 -16.732  0.00  0.00    +0.339 C 
BRANCH  19  20
ATOM     20  O   UNL     1      37.122 -21.664 -16.377  0.00  0.00    -0.477 OA
ATOM     21  H   UNL     1      37.916 -21.993 -16.003  0.00  0.00    +0.295 HD
ENDBRANCH  19  20
ENDBRANCH   7  19
TORSDOF 5
ENDMDL
MODEL 8
REMARK VINA RESULT:      -7.3      4.840      7.229
REMARK  Name = 1521
REMARK  5 active torsions:
REMARK  status: ('A' for Active; 'I' for Inactive)
REMARK    1  A    between atoms: C_7  and  C_19
REMARK    2  A    between atoms: C_9  and  N_11
REMARK    3  A    between atoms: C_12  and  C_15
REMARK    4  A    between atoms: C_15  and  O_16
REMARK    5  A    between atoms: C_19  and  O_20
REMARK                            x       y       z     vdW  Elec       q    Type
REMARK                         _______ _______ _______ _____ _____    ______ ____
ROOT
ATOM      1  S   UNL     1      37.110 -21.759 -16.611  0.00  0.00    -0.135 S 
ATOM      2  S   UNL     1      33.061 -23.153 -17.523  0.00  0.00    -0.076 S 
ATOM      3  C   UNL     1      34.558 -23.133 -15.427  0.00  0.00    -0.010 A 
ATOM      4  C   UNL     1      35.742 -22.959 -14.523  0.00  0.00    +0.038 C 
ATOM      5  C   UNL     1      34.579 -22.868 -16.786  0.00  0.00    +0.016 A 
ATOM      6  C   UNL     1      37.079 -22.987 -15.263  0.00  0.00    +0.063 C 
ATOM      7  C   UNL     1      33.262 -23.564 -15.001  0.00  0.00    +0.091 A 
ATOM      8  C   UNL     1      35.740 -22.421 -17.617  0.00  0.00    +0.090 C 
ATOM      9  C   UNL     1      32.358 -23.618 -16.037  0.00  0.00    +0.087 A 
ENDROOT
BRANCH   9  11
ATOM     10  O   UNL     1      29.995 -22.099 -17.073  0.00  0.00    -0.263 OA
ATOM     11  N   UNL     1      31.036 -23.973 -16.067  0.00  0.00    -0.270 N 
ATOM     12  C   UNL     1      29.979 -23.209 -16.567  0.00  0.00    +0.326 C 
ATOM     13  H   UNL     1      30.807 -24.855 -15.696  0.00  0.00    +0.156 HD
BRANCH  12  15
ATOM     14  O   UNL     1      27.864 -24.039 -17.362  0.00  0.00    -0.240 OA
ATOM     15  C   UNL     1      28.643 -23.915 -16.439  0.00  0.00    +0.393 C 
BRANCH  15  16
ATOM     16  O   UNL     1      28.473 -24.359 -15.184  0.00  0.00    -0.474 OA
ATOM     17  H   UNL     1      28.673 -25.249 -14.970  0.00  0.00    +0.296 HD
ENDBRANCH  15  16
ENDBRANCH  12  15
ENDBRANCH   9  11
BRANCH   7  19
ATOM     18  O   UNL     1      31.939 -23.427 -13.031  0.00  0.00    -0.245 OA
ATOM     19  C   UNL     1      32.899 -23.907 -13.647  0.00  0.00    +0.339 C 
BRANCH  19  20
ATOM     20  O   UNL     1      33.711 -24.835 -13.054  0.00  0.00    -0.477 OA
ATOM     21  H   UNL     1      33.339 -25.600 -12.659  0.00  0.00    +0.295 HD
ENDBRANCH  19  20
ENDBRANCH   7  19
TORSDOF 5
ENDMDL
MODEL 9
REMARK VINA RESULT:      -7.3     13.351     15.256
REMARK  Name = 1521
REMARK  5 active torsions:
REMARK  status: ('A' for Active; 'I' for Inactive)
REMARK    1  A    between atoms: C_7  and  C_19
REMARK    2  A    between atoms: C_9  and  N_11
REMARK    3  A    between atoms: C_12  and  C_15
REMARK    4  A    between atoms: C_15  and  O_16
REMARK    5  A    between atoms: C_19  and  O_20
REMARK                            x       y       z     vdW  Elec       q    Type
REMARK                         _______ _______ _______ _____ _____    ______ ____
ROOT
ATOM      1  S   UNL     1      34.820 -19.156 -22.016  0.00  0.00    -0.135 S 
ATOM      2  S   UNL     1      34.672 -14.785 -21.820  0.00  0.00    -0.076 S 
ATOM      3  C   UNL     1      34.321 -16.545 -23.668  0.00  0.00    -0.010 A 
ATOM      4  C   UNL     1      34.260 -17.855 -24.396  0.00  0.00    +0.038 C 
ATOM      5  C   UNL     1      34.736 -16.410 -22.354  0.00  0.00    +0.016 A 
ATOM      6  C   UNL     1      35.168 -18.926 -23.791  0.00  0.00    +0.063 C 
ATOM      7  C   UNL     1      33.936 -15.284 -24.224  0.00  0.00    +0.091 A 
ATOM      8  C   UNL     1      35.237 -17.478 -21.435  0.00  0.00    +0.090 C 
ATOM      9  C   UNL     1      34.077 -14.248 -23.329  0.00  0.00    +0.087 A 
ENDROOT
BRANCH   9  11
ATOM     10  O   UNL     1      31.829 -12.616 -22.213  0.00  0.00    -0.263 OA
ATOM     11  N   UNL     1      33.827 -12.908 -23.450  0.00  0.00    -0.270 N 
ATOM     12  C   UNL     1      32.751 -12.208 -22.899  0.00  0.00    +0.326 C 
ATOM     13  H   UNL     1      34.471 -12.385 -23.979  0.00  0.00    +0.156 HD
BRANCH  12  15
ATOM     14  O   UNL     1      31.907  -9.953 -22.926  0.00  0.00    -0.240 OA
ATOM     15  C   UNL     1      32.789 -10.729 -23.236  0.00  0.00    +0.393 C 
BRANCH  15  16
ATOM     16  O   UNL     1      33.913 -10.436 -23.907  0.00  0.00    -0.474 OA
ATOM     17  H   UNL     1      34.742 -10.473 -23.473  0.00  0.00    +0.296 HD
ENDBRANCH  15  16
ENDBRANCH  12  15
ENDBRANCH   9  11
BRANCH   7  19
ATOM     18  O   UNL     1      33.972 -15.528 -26.588  0.00  0.00    -0.245 OA
ATOM     19  C   UNL     1      33.444 -15.077 -25.565  0.00  0.00    +0.339 C 
BRANCH  19  20
ATOM     20  O   UNL     1      32.306 -14.319 -25.646  0.00  0.00    -0.477 OA
ATOM     21  H   UNL     1      31.753 -14.383 -26.400  0.00  0.00    +0.295 HD
ENDBRANCH  19  20
ENDBRANCH   7  19
TORSDOF 5
ENDMDL
