MODEL 1
REMARK VINA RESULT:      -8.8      0.000      0.000
REMARK  Name = 446816
REMARK  3 active torsions:
REMARK  status: ('A' for Active; 'I' for Inactive)
REMARK    1  A    between atoms: N_2  and  C_18
REMARK    2  A    between atoms: N_3  and  C_8
REMARK    3  A    between atoms: C_16  and  C_20
REMARK                            x       y       z     vdW  Elec       q    Type
REMARK                         _______ _______ _______ _____ _____    ______ ____
ROOT
ATOM      1  O   UNL     1      32.818  -8.843 -21.951  0.00  0.00    -0.252 OA
ATOM      2  N   UNL     1      31.138 -10.411 -22.439  0.00  0.00    -0.255 N 
ATOM      3  N   UNL     1      30.900  -8.213 -23.126  0.00  0.00    -0.268 N 
ATOM      4  C   UNL     1      31.735  -9.122 -22.453  0.00  0.00    +0.309 C 
ATOM      5  H   UNL     1      30.263 -10.491 -22.881  0.00  0.00    +0.158 HD
ATOM      6  H   UNL     1      30.057  -8.581 -23.478  0.00  0.00    +0.156 HD
ENDROOT
BRANCH   3   8
ATOM      7 CL   UNL     1      31.822  -2.463 -24.106  0.00  0.00    -0.082 Cl
ATOM      8  C   UNL     1      31.121  -6.836 -23.361  0.00  0.00    +0.052 C 
ATOM      9  C   UNL     1      31.665  -6.434 -24.569  0.00  0.00    +0.016 C 
ATOM     10  C   UNL     1      30.788  -5.919 -22.377  0.00  0.00    +0.016 C 
ATOM     11  C   UNL     1      31.883  -5.075 -24.801  0.00  0.00    +0.013 C 
ATOM     12  C   UNL     1      31.005  -4.561 -22.609  0.00  0.00    +0.013 C 
ATOM     13  C   UNL     1      31.553  -4.139 -23.821  0.00  0.00    +0.058 C 
ENDBRANCH   3   8
BRANCH   2  18
ATOM     14  N   UNL     1      31.666 -11.788 -20.537  0.00  0.00    -0.197 N 
ATOM     15  N   UNL     1      32.205 -12.971 -20.200  0.00  0.00    -0.181 NA
ATOM     16  C   UNL     1      32.504 -13.443 -21.379  0.00  0.00    +0.078 C 
ATOM     17  C   UNL     1      32.206 -12.664 -22.464  0.00  0.00    +0.048 C 
ATOM     18  C   UNL     1      31.643 -11.555 -21.881  0.00  0.00    +0.124 C 
ATOM     19  C   UNL     1      31.184 -10.912 -19.493  0.00  0.00    +0.141 C 
BRANCH  16  20
ATOM     20  C   UNL     1      33.163 -14.832 -21.435  0.00  0.00    +0.037 C 
ATOM     21  C   UNL     1      33.464 -15.222 -22.901  0.00  0.00    +0.006 C 
ATOM     22  C   UNL     1      32.227 -15.895 -20.815  0.00  0.00    +0.006 C 
ATOM     23  C   UNL     1      34.503 -14.914 -20.667  0.00  0.00    +0.006 C 
ENDBRANCH  16  20
ENDBRANCH   2  18
TORSDOF 3
ENDMDL
MODEL 2
REMARK VINA RESULT:      -8.6     11.561     14.858
REMARK  Name = 446816
REMARK  3 active torsions:
REMARK  status: ('A' for Active; 'I' for Inactive)
REMARK    1  A    between atoms: N_2  and  C_18
REMARK    2  A    between atoms: N_3  and  C_8
REMARK    3  A    between atoms: C_16  and  C_20
REMARK                            x       y       z     vdW  Elec       q    Type
REMARK                         _______ _______ _______ _____ _____    ______ ____
ROOT
ATOM      1  O   UNL     1      36.202 -21.749 -17.176  0.00  0.00    -0.252 OA
ATOM      2  N   UNL     1      34.763 -23.483 -16.510  0.00  0.00    -0.255 N 
ATOM      3  N   UNL     1      34.304 -22.277 -18.432  0.00  0.00    -0.268 N 
ATOM      4  C   UNL     1      35.197 -22.428 -17.356  0.00  0.00    +0.309 C 
ATOM      5  H   UNL     1      33.936 -23.944 -16.777  0.00  0.00    +0.158 HD
ATOM      6  H   UNL     1      33.538 -22.896 -18.447  0.00  0.00    +0.156 HD
ENDROOT
BRANCH   3   8
ATOM      7 CL   UNL     1      34.578 -18.394 -22.872  0.00  0.00    -0.082 Cl
ATOM      8  C   UNL     1      34.370 -21.347 -19.496  0.00  0.00    +0.052 C 
ATOM      9  C   UNL     1      33.207 -20.735 -19.933  0.00  0.00    +0.016 C 
ATOM     10  C   UNL     1      35.596 -21.068 -20.077  0.00  0.00    +0.016 C 
ATOM     11  C   UNL     1      33.272 -19.818 -20.983  0.00  0.00    +0.013 C 
ATOM     12  C   UNL     1      35.661 -20.151 -21.126  0.00  0.00    +0.013 C 
ATOM     13  C   UNL     1      34.498 -19.526 -21.578  0.00  0.00    +0.058 C 
ENDBRANCH   3   8
BRANCH   2  18
ATOM     14  N   UNL     1      34.685 -24.199 -14.213  0.00  0.00    -0.197 N 
ATOM     15  N   UNL     1      35.465 -24.627 -13.207  0.00  0.00    -0.181 NA
ATOM     16  C   UNL     1      36.634 -24.608 -13.786  0.00  0.00    +0.078 C 
ATOM     17  C   UNL     1      36.684 -24.201 -15.092  0.00  0.00    +0.048 C 
ATOM     18  C   UNL     1      35.365 -23.930 -15.365  0.00  0.00    +0.124 C 
ATOM     19  C   UNL     1      33.262 -24.070 -13.993  0.00  0.00    +0.141 C 
BRANCH  16  20
ATOM     20  C   UNL     1      37.844 -25.046 -12.944  0.00  0.00    +0.037 C 
ATOM     21  C   UNL     1      37.517 -26.346 -12.173  0.00  0.00    +0.006 C 
ATOM     22  C   UNL     1      38.219 -23.941 -11.928  0.00  0.00    +0.006 C 
ATOM     23  C   UNL     1      39.113 -25.330 -13.782  0.00  0.00    +0.006 C 
ENDBRANCH  16  20
ENDBRANCH   2  18
TORSDOF 3
ENDMDL
MODEL 3
REMARK VINA RESULT:      -8.6      2.852      3.933
REMARK  Name = 446816
REMARK  3 active torsions:
REMARK  status: ('A' for Active; 'I' for Inactive)
REMARK    1  A    between atoms: N_2  and  C_18
REMARK    2  A    between atoms: N_3  and  C_8
REMARK    3  A    between atoms: C_16  and  C_20
REMARK                            x       y       z     vdW  Elec       q    Type
REMARK                         _______ _______ _______ _____ _____    ______ ____
ROOT
ATOM      1  O   UNL     1      32.091 -12.046 -22.603  0.00  0.00    -0.252 OA
ATOM      2  N   UNL     1      34.044 -12.526 -23.819  0.00  0.00    -0.255 N 
ATOM      3  N   UNL     1      33.391 -10.327 -23.506  0.00  0.00    -0.268 N 
ATOM      4  C   UNL     1      33.069 -11.670 -23.240  0.00  0.00    +0.309 C 
ATOM      5  H   UNL     1      34.778 -12.086 -24.304  0.00  0.00    +0.158 HD
ATOM      6  H   UNL     1      34.210 -10.176 -24.032  0.00  0.00    +0.156 HD
ENDROOT
BRANCH   3   8
ATOM      7 CL   UNL     1      30.443  -5.483 -21.859  0.00  0.00    -0.082 Cl
ATOM      8  C   UNL     1      32.685  -9.167 -23.111  0.00  0.00    +0.052 C 
ATOM      9  C   UNL     1      33.048  -8.517 -21.943  0.00  0.00    +0.016 C 
ATOM     10  C   UNL     1      31.645  -8.705 -23.902  0.00  0.00    +0.016 C 
ATOM     11  C   UNL     1      32.351  -7.373 -21.554  0.00  0.00    +0.013 C 
ATOM     12  C   UNL     1      30.949  -7.561 -23.513  0.00  0.00    +0.013 C 
ATOM     13  C   UNL     1      31.302  -6.895 -22.339  0.00  0.00    +0.058 C 
ENDBRANCH   3   8
BRANCH   2  18
ATOM     14  N   UNL     1      33.576 -14.689 -24.766  0.00  0.00    -0.197 N 
ATOM     15  N   UNL     1      33.710 -16.004 -24.528  0.00  0.00    -0.181 NA
ATOM     16  C   UNL     1      34.306 -15.977 -23.367  0.00  0.00    +0.078 C 
ATOM     17  C   UNL     1      34.574 -14.751 -22.824  0.00  0.00    +0.048 C 
ATOM     18  C   UNL     1      34.078 -13.894 -23.777  0.00  0.00    +0.124 C 
ATOM     19  C   UNL     1      32.944 -14.257 -25.992  0.00  0.00    +0.141 C 
BRANCH  16  20
ATOM     20  C   UNL     1      34.651 -17.331 -22.722  0.00  0.00    +0.037 C 
ATOM     21  C   UNL     1      34.273 -18.489 -23.674  0.00  0.00    +0.006 C 
ATOM     22  C   UNL     1      33.879 -17.503 -21.393  0.00  0.00    +0.006 C 
ATOM     23  C   UNL     1      36.153 -17.495 -22.391  0.00  0.00    +0.006 C 
ENDBRANCH  16  20
ENDBRANCH   2  18
TORSDOF 3
ENDMDL
MODEL 4
REMARK VINA RESULT:      -8.6      3.985      8.526
REMARK  Name = 446816
REMARK  3 active torsions:
REMARK  status: ('A' for Active; 'I' for Inactive)
REMARK    1  A    between atoms: N_2  and  C_18
REMARK    2  A    between atoms: N_3  and  C_8
REMARK    3  A    between atoms: C_16  and  C_20
REMARK                            x       y       z     vdW  Elec       q    Type
REMARK                         _______ _______ _______ _____ _____    ______ ____
ROOT
ATOM      1  O   UNL     1      33.998 -12.041 -23.298  0.00  0.00    -0.252 OA
ATOM      2  N   UNL     1      31.919 -11.520 -22.335  0.00  0.00    -0.255 N 
ATOM      3  N   UNL     1      32.549 -13.733 -22.594  0.00  0.00    -0.268 N 
ATOM      4  C   UNL     1      32.937 -12.397 -22.797  0.00  0.00    +0.309 C 
ATOM      5  H   UNL     1      31.118 -11.945 -21.954  0.00  0.00    +0.158 HD
ATOM      6  H   UNL     1      31.666 -13.867 -22.179  0.00  0.00    +0.156 HD
ENDROOT
BRANCH   3   8
ATOM      7 CL   UNL     1      35.557 -18.638 -23.921  0.00  0.00    -0.082 Cl
ATOM      8  C   UNL     1      33.270 -14.908 -22.912  0.00  0.00    +0.052 C 
ATOM      9  C   UNL     1      33.712 -15.729 -21.888  0.00  0.00    +0.016 C 
ATOM     10  C   UNL     1      33.517 -15.212 -24.240  0.00  0.00    +0.016 C 
ATOM     11  C   UNL     1      34.423 -16.888 -22.202  0.00  0.00    +0.013 C 
ATOM     12  C   UNL     1      34.227 -16.371 -24.554  0.00  0.00    +0.013 C 
ATOM     13  C   UNL     1      34.680 -17.209 -23.534  0.00  0.00    +0.058 C 
ENDBRANCH   3   8
BRANCH   2  18
ATOM     14  N   UNL     1      31.860  -9.378 -21.238  0.00  0.00    -0.197 N 
ATOM     15  N   UNL     1      31.880  -8.058 -21.485  0.00  0.00    -0.181 NA
ATOM     16  C   UNL     1      31.962  -8.059 -22.787  0.00  0.00    +0.078 C 
ATOM     17  C   UNL     1      31.996  -9.274 -23.416  0.00  0.00    +0.048 C 
ATOM     18  C   UNL     1      31.927 -10.151 -22.360  0.00  0.00    +0.124 C 
ATOM     19  C   UNL     1      31.773  -9.837 -19.870  0.00  0.00    +0.141 C 
BRANCH  16  20
ATOM     20  C   UNL     1      32.013  -6.692 -23.491  0.00  0.00    +0.037 C 
ATOM     21  C   UNL     1      33.352  -6.530 -24.248  0.00  0.00    +0.006 C 
ATOM     22  C   UNL     1      31.882  -5.551 -22.455  0.00  0.00    +0.006 C 
ATOM     23  C   UNL     1      30.884  -6.486 -24.528  0.00  0.00    +0.006 C 
ENDBRANCH  16  20
ENDBRANCH   2  18
TORSDOF 3
ENDMDL
MODEL 5
REMARK VINA RESULT:      -8.6      4.993      9.281
REMARK  Name = 446816
REMARK  3 active torsions:
REMARK  status: ('A' for Active; 'I' for Inactive)
REMARK    1  A    between atoms: N_2  and  C_18
REMARK    2  A    between atoms: N_3  and  C_8
REMARK    3  A    between atoms: C_16  and  C_20
REMARK                            x       y       z     vdW  Elec       q    Type
REMARK                         _______ _______ _______ _____ _____    ______ ____
ROOT
ATOM      1  O   UNL     1      33.967 -13.607 -21.913  0.00  0.00    -0.252 OA
ATOM      2  N   UNL     1      34.071 -12.753 -24.100  0.00  0.00    -0.255 N 
ATOM      3  N   UNL     1      34.504 -14.994 -23.715  0.00  0.00    -0.268 N 
ATOM      4  C   UNL     1      34.161 -13.771 -23.113  0.00  0.00    +0.309 C 
ATOM      5  H   UNL     1      34.253 -13.027 -25.027  0.00  0.00    +0.158 HD
ATOM      6  H   UNL     1      34.629 -14.974 -24.691  0.00  0.00    +0.156 HD
ENDROOT
BRANCH   3   8
ATOM      7 CL   UNL     1      35.292 -20.236 -21.112  0.00  0.00    -0.082 Cl
ATOM      8  C   UNL     1      34.693 -16.250 -23.091  0.00  0.00    +0.052 C 
ATOM      9  C   UNL     1      34.764 -17.390 -23.874  0.00  0.00    +0.016 C 
ATOM     10  C   UNL     1      34.802 -16.312 -21.712  0.00  0.00    +0.016 C 
ATOM     11  C   UNL     1      34.950 -18.629 -23.259  0.00  0.00    +0.013 C 
ATOM     12  C   UNL     1      34.988 -17.550 -21.097  0.00  0.00    +0.013 C 
ATOM     13  C   UNL     1      35.062 -18.708 -21.871  0.00  0.00    +0.058 C 
ENDBRANCH   3   8
BRANCH   2  18
ATOM     14  N   UNL     1      34.355 -10.413 -24.591  0.00  0.00    -0.197 N 
ATOM     15  N   UNL     1      33.906  -9.195 -24.248  0.00  0.00    -0.181 NA
ATOM     16  C   UNL     1      33.025  -9.511 -23.340  0.00  0.00    +0.078 C 
ATOM     17  C   UNL     1      32.859 -10.839 -23.057  0.00  0.00    +0.048 C 
ATOM     18  C   UNL     1      33.761 -11.433 -23.907  0.00  0.00    +0.124 C 
ATOM     19  C   UNL     1      35.379 -10.527 -25.605  0.00  0.00    +0.141 C 
BRANCH  16  20
ATOM     20  C   UNL     1      32.255  -8.357 -22.674  0.00  0.00    +0.037 C 
ATOM     21  C   UNL     1      33.132  -7.084 -22.629  0.00  0.00    +0.006 C 
ATOM     22  C   UNL     1      31.856  -8.742 -21.230  0.00  0.00    +0.006 C 
ATOM     23  C   UNL     1      30.950  -7.975 -23.412  0.00  0.00    +0.006 C 
ENDBRANCH  16  20
ENDBRANCH   2  18
TORSDOF 3
ENDMDL
MODEL 6
REMARK VINA RESULT:      -8.3      2.578      3.572
REMARK  Name = 446816
REMARK  3 active torsions:
REMARK  status: ('A' for Active; 'I' for Inactive)
REMARK    1  A    between atoms: N_2  and  C_18
REMARK    2  A    between atoms: N_3  and  C_8
REMARK    3  A    between atoms: C_16  and  C_20
REMARK                            x       y       z     vdW  Elec       q    Type
REMARK                         _______ _______ _______ _____ _____    ______ ____
ROOT
ATOM      1  O   UNL     1      32.240 -11.525 -22.271  0.00  0.00    -0.252 OA
ATOM      2  N   UNL     1      33.856 -12.213 -23.831  0.00  0.00    -0.255 N 
ATOM      3  N   UNL     1      33.233  -9.986 -23.720  0.00  0.00    -0.268 N 
ATOM      4  C   UNL     1      33.024 -11.265 -23.176  0.00  0.00    +0.309 C 
ATOM      5  H   UNL     1      34.439 -11.864 -24.542  0.00  0.00    +0.158 HD
ATOM      6  H   UNL     1      33.897  -9.929 -24.446  0.00  0.00    +0.156 HD
ENDROOT
BRANCH   3   8
ATOM      7 CL   UNL     1      30.625  -4.912 -22.196  0.00  0.00    -0.082 Cl
ATOM      8  C   UNL     1      32.609  -8.770 -23.355  0.00  0.00    +0.052 C 
ATOM      9  C   UNL     1      31.375  -8.453 -23.899  0.00  0.00    +0.016 C 
ATOM     10  C   UNL     1      33.244  -7.924 -22.462  0.00  0.00    +0.016 C 
ATOM     11  C   UNL     1      30.758  -7.254 -23.538  0.00  0.00    +0.013 C 
ATOM     12  C   UNL     1      32.628  -6.725 -22.101  0.00  0.00    +0.013 C 
ATOM     13  C   UNL     1      31.385  -6.391 -22.640  0.00  0.00    +0.058 C 
ENDBRANCH   3   8
BRANCH   2  18
ATOM     14  N   UNL     1      33.553 -14.511 -24.478  0.00  0.00    -0.197 N 
ATOM     15  N   UNL     1      33.717 -15.769 -24.037  0.00  0.00    -0.181 NA
ATOM     16  C   UNL     1      34.213 -15.544 -22.851  0.00  0.00    +0.078 C 
ATOM     17  C   UNL     1      34.388 -14.239 -22.478  0.00  0.00    +0.048 C 
ATOM     18  C   UNL     1      33.939 -13.557 -23.583  0.00  0.00    +0.124 C 
ATOM     19  C   UNL     1      33.008 -14.295 -25.799  0.00  0.00    +0.141 C 
BRANCH  16  20
ATOM     20  C   UNL     1      34.556 -16.769 -21.987  0.00  0.00    +0.037 C 
ATOM     21  C   UNL     1      34.973 -16.322 -20.566  0.00  0.00    +0.006 C 
ATOM     22  C   UNL     1      35.718 -17.566 -22.623  0.00  0.00    +0.006 C 
ATOM     23  C   UNL     1      33.378 -17.757 -21.817  0.00  0.00    +0.006 C 
ENDBRANCH  16  20
ENDBRANCH   2  18
TORSDOF 3
ENDMDL
MODEL 7
REMARK VINA RESULT:      -8.2     15.118     17.562
REMARK  Name = 446816
REMARK  3 active torsions:
REMARK  status: ('A' for Active; 'I' for Inactive)
REMARK    1  A    between atoms: N_2  and  C_18
REMARK    2  A    between atoms: N_3  and  C_8
REMARK    3  A    between atoms: C_16  and  C_20
REMARK                            x       y       z     vdW  Elec       q    Type
REMARK                         _______ _______ _______ _____ _____    ______ ____
ROOT
ATOM      1  O   UNL     1      34.850 -25.147 -15.591  0.00  0.00    -0.252 OA
ATOM      2  N   UNL     1      34.016 -23.026 -15.019  0.00  0.00    -0.255 N 
ATOM      3  N   UNL     1      36.187 -23.602 -14.458  0.00  0.00    -0.268 N 
ATOM      4  C   UNL     1      35.005 -24.045 -15.077  0.00  0.00    +0.309 C 
ATOM      5  H   UNL     1      34.279 -22.188 -14.575  0.00  0.00    +0.158 HD
ATOM      6  H   UNL     1      36.165 -22.690 -14.088  0.00  0.00    +0.156 HD
ENDROOT
BRANCH   3   8
ATOM      7 CL   UNL     1      41.269 -26.537 -13.800  0.00  0.00    -0.082 Cl
ATOM      8  C   UNL     1      37.405 -24.305 -14.300  0.00  0.00    +0.052 C 
ATOM      9  C   UNL     1      37.607 -25.060 -13.157  0.00  0.00    +0.016 C 
ATOM     10  C   UNL     1      38.368 -24.224 -15.292  0.00  0.00    +0.016 C 
ATOM     11  C   UNL     1      38.808 -25.754 -13.001  0.00  0.00    +0.013 C 
ATOM     12  C   UNL     1      39.568 -24.917 -15.137  0.00  0.00    +0.013 C 
ATOM     13  C   UNL     1      39.788 -25.682 -13.992  0.00  0.00    +0.058 C 
ENDBRANCH   3   8
BRANCH   2  18
ATOM     14  N   UNL     1      32.439 -22.951 -16.836  0.00  0.00    -0.197 N 
ATOM     15  N   UNL     1      31.126 -23.031 -17.105  0.00  0.00    -0.181 NA
ATOM     16  C   UNL     1      30.645 -23.210 -15.906  0.00  0.00    +0.078 C 
ATOM     17  C   UNL     1      31.538 -23.254 -14.869  0.00  0.00    +0.048 C 
ATOM     18  C   UNL     1      32.740 -23.078 -15.511  0.00  0.00    +0.124 C 
ATOM     19  C   UNL     1      33.369 -22.748 -17.923  0.00  0.00    +0.141 C 
BRANCH  16  20
ATOM     20  C   UNL     1      29.120 -23.357 -15.772  0.00  0.00    +0.037 C 
ATOM     21  C   UNL     1      28.529 -22.139 -15.023  0.00  0.00    +0.006 C 
ATOM     22  C   UNL     1      28.771 -24.644 -14.990  0.00  0.00    +0.006 C 
ATOM     23  C   UNL     1      28.384 -23.447 -17.130  0.00  0.00    +0.006 C 
ENDBRANCH  16  20
ENDBRANCH   2  18
TORSDOF 3
ENDMDL
MODEL 8
REMARK VINA RESULT:      -8.2      9.740     12.495
REMARK  Name = 446816
REMARK  3 active torsions:
REMARK  status: ('A' for Active; 'I' for Inactive)
REMARK    1  A    between atoms: N_2  and  C_18
REMARK    2  A    between atoms: N_3  and  C_8
REMARK    3  A    between atoms: C_16  and  C_20
REMARK                            x       y       z     vdW  Elec       q    Type
REMARK                         _______ _______ _______ _____ _____    ______ ____
ROOT
ATOM      1  O   UNL     1      32.597 -20.359 -19.644  0.00  0.00    -0.252 OA
ATOM      2  N   UNL     1      34.099 -21.907 -18.714  0.00  0.00    -0.255 N 
ATOM      3  N   UNL     1      34.772 -20.559 -20.472  0.00  0.00    -0.268 N 
ATOM      4  C   UNL     1      33.705 -20.883 -19.616  0.00  0.00    +0.309 C 
ATOM      5  H   UNL     1      35.022 -22.237 -18.805  0.00  0.00    +0.158 HD
ATOM      6  H   UNL     1      35.606 -21.065 -20.332  0.00  0.00    +0.156 HD
ENDROOT
BRANCH   3   8
ATOM      7 CL   UNL     1      34.878 -16.543 -24.800  0.00  0.00    -0.082 Cl
ATOM      8  C   UNL     1      34.798 -19.597 -21.509  0.00  0.00    +0.052 C 
ATOM      9  C   UNL     1      34.792 -20.022 -22.827  0.00  0.00    +0.016 C 
ATOM     10  C   UNL     1      34.828 -18.251 -21.183  0.00  0.00    +0.016 C 
ATOM     11  C   UNL     1      34.817 -19.073 -23.850  0.00  0.00    +0.013 C 
ATOM     12  C   UNL     1      34.853 -17.302 -22.205  0.00  0.00    +0.013 C 
ATOM     13  C   UNL     1      34.847 -17.714 -23.539  0.00  0.00    +0.058 C 
ENDBRANCH   3   8
BRANCH   2  18
ATOM     14  N   UNL     1      33.873 -23.102 -16.637  0.00  0.00    -0.197 N 
ATOM     15  N   UNL     1      32.954 -23.607 -15.798  0.00  0.00    -0.181 NA
ATOM     16  C   UNL     1      31.855 -23.278 -16.419  0.00  0.00    +0.078 C 
ATOM     17  C   UNL     1      31.978 -22.599 -17.601  0.00  0.00    +0.048 C 
ATOM     18  C   UNL     1      33.342 -22.488 -17.733  0.00  0.00    +0.124 C 
ATOM     19  C   UNL     1      35.275 -23.250 -16.317  0.00  0.00    +0.141 C 
BRANCH  16  20
ATOM     20  C   UNL     1      30.525 -23.686 -15.762  0.00  0.00    +0.037 C 
ATOM     21  C   UNL     1      29.341 -22.993 -16.476  0.00  0.00    +0.006 C 
ATOM     22  C   UNL     1      30.518 -23.280 -14.270  0.00  0.00    +0.006 C 
ATOM     23  C   UNL     1      30.249 -25.207 -15.813  0.00  0.00    +0.006 C 
ENDBRANCH  16  20
ENDBRANCH   2  18
TORSDOF 3
ENDMDL
MODEL 9
REMARK VINA RESULT:      -8.2      4.993      9.310
REMARK  Name = 446816
REMARK  3 active torsions:
REMARK  status: ('A' for Active; 'I' for Inactive)
REMARK    1  A    between atoms: N_2  and  C_18
REMARK    2  A    between atoms: N_3  and  C_8
REMARK    3  A    between atoms: C_16  and  C_20
REMARK                            x       y       z     vdW  Elec       q    Type
REMARK                         _______ _______ _______ _____ _____    ______ ____
ROOT
ATOM      1  O   UNL     1      34.295 -13.344 -22.192  0.00  0.00    -0.252 OA
ATOM      2  N   UNL     1      34.001 -12.540 -24.379  0.00  0.00    -0.255 N 
ATOM      3  N   UNL     1      34.338 -14.802 -24.017  0.00  0.00    -0.268 N 
ATOM      4  C   UNL     1      34.220 -13.545 -23.399  0.00  0.00    +0.309 C 
ATOM      5  H   UNL     1      33.963 -12.844 -25.314  0.00  0.00    +0.158 HD
ATOM      6  H   UNL     1      34.255 -14.809 -24.998  0.00  0.00    +0.156 HD
ENDROOT
BRANCH   3   8
ATOM      7 CL   UNL     1      35.263 -20.042 -21.457  0.00  0.00    -0.082 Cl
ATOM      8  C   UNL     1      34.559 -16.057 -23.404  0.00  0.00    +0.052 C 
ATOM      9  C   UNL     1      34.629 -16.133 -22.022  0.00  0.00    +0.016 C 
ATOM     10  C   UNL     1      34.702 -17.183 -24.197  0.00  0.00    +0.016 C 
ATOM     11  C   UNL     1      34.848 -17.372 -21.418  0.00  0.00    +0.013 C 
ATOM     12  C   UNL     1      34.921 -18.421 -23.593  0.00  0.00    +0.013 C 
ATOM     13  C   UNL     1      34.994 -18.515 -22.203  0.00  0.00    +0.058 C 
ENDBRANCH   3   8
BRANCH   2  18
ATOM     14  N   UNL     1      34.586 -10.243 -24.795  0.00  0.00    -0.197 N 
ATOM     15  N   UNL     1      34.263  -8.986 -24.448  0.00  0.00    -0.181 NA
ATOM     16  C   UNL     1      33.300  -9.211 -23.598  0.00  0.00    +0.078 C 
ATOM     17  C   UNL     1      32.963 -10.516 -23.358  0.00  0.00    +0.048 C 
ATOM     18  C   UNL     1      33.837 -11.197 -24.171  0.00  0.00    +0.124 C 
ATOM     19  C   UNL     1      35.646 -10.458 -25.753  0.00  0.00    +0.141 C 
BRANCH  16  20
ATOM     20  C   UNL     1      32.633  -7.987 -22.948  0.00  0.00    +0.037 C 
ATOM     21  C   UNL     1      32.798  -8.041 -21.411  0.00  0.00    +0.006 C 
ATOM     22  C   UNL     1      31.125  -7.953 -23.290  0.00  0.00    +0.006 C 
ATOM     23  C   UNL     1      33.226  -6.637 -23.415  0.00  0.00    +0.006 C 
ENDBRANCH  16  20
ENDBRANCH   2  18
TORSDOF 3
ENDMDL
