MODEL 1
REMARK VINA RESULT:      -5.6      0.000      0.000
REMARK  Name = 5288464
REMARK  7 active torsions:
REMARK  status: ('A' for Active; 'I' for Inactive)
REMARK    1  A    between atoms: N_1  and  C_4
REMARK    2  A    between atoms: N_1  and  C_11
REMARK    3  A    between atoms: C_4  and  P_5
REMARK    4  A    between atoms: P_5  and  O_7
REMARK    5  A    between atoms: P_5  and  O_9
REMARK    6  A    between atoms: C_11  and  C_13
REMARK    7  A    between atoms: C_13  and  O_14
REMARK                            x       y       z     vdW  Elec       q    Type
REMARK                         _______ _______ _______ _____ _____    ______ ____
ROOT
ATOM      1  N   UNL     1      37.718 -24.215 -12.727  0.00  0.00    +0.399 N 
ATOM      2  H   UNL     1      38.563 -23.647 -12.680  0.00  0.00    -0.083 HD
ATOM      3  H   UNL     1      37.785 -25.078 -12.186  0.00  0.00    -0.083 HD
ENDROOT
BRANCH   1   4
ATOM      4  C   UNL     1      37.506 -24.624 -14.153  0.00  0.00    +0.038 C 
BRANCH   4   5
ATOM      5  P   UNL     1      37.213 -26.350 -14.534  0.00  0.00    +0.316 P 
ATOM      6  O   UNL     1      36.254 -26.582 -15.662  0.00  0.00    -0.260 OA
BRANCH   5   7
ATOM      7  O   UNL     1      38.700 -26.941 -14.760  0.00  0.00    -0.325 OA
ATOM      8  H   UNL     1      39.342 -26.213 -14.757  0.00  0.00    +0.220 HD
ENDBRANCH   5   7
BRANCH   5   9
ATOM      9  O   UNL     1      36.770 -26.977 -13.112  0.00  0.00    -0.325 OA
ATOM     10  H   UNL     1      37.284 -27.780 -12.938  0.00  0.00    +0.220 HD
ENDBRANCH   5   9
ENDBRANCH   4   5
ENDBRANCH   1   4
BRANCH   1  11
ATOM     11  C   UNL     1      36.600 -23.434 -12.135  0.00  0.00    +0.031 C 
BRANCH  11  13
ATOM     12  O   UNL     1      36.065 -24.174  -9.884  0.00  0.00    -0.253 OA
ATOM     13  C   UNL     1      35.879 -24.231 -11.090  0.00  0.00    +0.292 C 
BRANCH  13  14
ATOM     14  O   UNL     1      34.966 -25.046 -11.676  0.00  0.00    -0.482 OA
ATOM     15  H   UNL     1      34.968 -25.161 -12.606  0.00  0.00    +0.295 HD
ENDBRANCH  13  14
ENDBRANCH  11  13
ENDBRANCH   1  11
TORSDOF 7
ENDMDL
MODEL 2
REMARK VINA RESULT:      -5.6      2.110      4.427
REMARK  Name = 5288464
REMARK  7 active torsions:
REMARK  status: ('A' for Active; 'I' for Inactive)
REMARK    1  A    between atoms: N_1  and  C_4
REMARK    2  A    between atoms: N_1  and  C_11
REMARK    3  A    between atoms: C_4  and  P_5
REMARK    4  A    between atoms: P_5  and  O_7
REMARK    5  A    between atoms: P_5  and  O_9
REMARK    6  A    between atoms: C_11  and  C_13
REMARK    7  A    between atoms: C_13  and  O_14
REMARK                            x       y       z     vdW  Elec       q    Type
REMARK                         _______ _______ _______ _____ _____    ______ ____
ROOT
ATOM      1  N   UNL     1      35.380 -25.229 -13.877  0.00  0.00    +0.399 N 
ATOM      2  H   UNL     1      34.414 -25.199 -14.202  0.00  0.00    -0.083 HD
ATOM      3  H   UNL     1      35.584 -26.046 -13.302  0.00  0.00    -0.083 HD
ENDROOT
BRANCH   1   4
ATOM      4  C   UNL     1      35.620 -24.029 -13.011  0.00  0.00    +0.038 C 
BRANCH   4   5
ATOM      5  P   UNL     1      36.483 -24.234 -11.454  0.00  0.00    +0.316 P 
ATOM      6  O   UNL     1      37.119 -22.983 -10.928  0.00  0.00    -0.260 OA
BRANCH   5   7
ATOM      7  O   UNL     1      35.366 -24.897 -10.492  0.00  0.00    -0.325 OA
ATOM      8  H   UNL     1      35.782 -25.570  -9.930  0.00  0.00    +0.220 HD
ENDBRANCH   5   7
BRANCH   5   9
ATOM      9  O   UNL     1      37.501 -25.454 -11.747  0.00  0.00    -0.325 OA
ATOM     10  H   UNL     1      38.394 -25.206 -11.464  0.00  0.00    +0.220 HD
ENDBRANCH   5   9
ENDBRANCH   4   5
ENDBRANCH   1   4
BRANCH   1  11
ATOM     11  C   UNL     1      36.266 -25.320 -15.067  0.00  0.00    +0.031 C 
BRANCH  11  13
ATOM     12  O   UNL     1      37.711 -27.064 -14.189  0.00  0.00    -0.253 OA
ATOM     13  C   UNL     1      37.010 -26.622 -15.087  0.00  0.00    +0.292 C 
BRANCH  13  14
ATOM     14  O   UNL     1      36.797 -27.261 -16.265  0.00  0.00    -0.482 OA
ATOM     15  H   UNL     1      37.333 -27.067 -17.008  0.00  0.00    +0.295 HD
ENDBRANCH  13  14
ENDBRANCH  11  13
ENDBRANCH   1  11
TORSDOF 7
ENDMDL
MODEL 3
REMARK VINA RESULT:      -5.6      2.587      4.868
REMARK  Name = 5288464
REMARK  7 active torsions:
REMARK  status: ('A' for Active; 'I' for Inactive)
REMARK    1  A    between atoms: N_1  and  C_4
REMARK    2  A    between atoms: N_1  and  C_11
REMARK    3  A    between atoms: C_4  and  P_5
REMARK    4  A    between atoms: P_5  and  O_7
REMARK    5  A    between atoms: P_5  and  O_9
REMARK    6  A    between atoms: C_11  and  C_13
REMARK    7  A    between atoms: C_13  and  O_14
REMARK                            x       y       z     vdW  Elec       q    Type
REMARK                         _______ _______ _______ _____ _____    ______ ____
ROOT
ATOM      1  N   UNL     1      38.585 -25.290 -12.917  0.00  0.00    +0.399 N 
ATOM      2  H   UNL     1      39.055 -26.111 -12.536  0.00  0.00    -0.083 HD
ATOM      3  H   UNL     1      38.913 -24.415 -12.508  0.00  0.00    -0.083 HD
ENDROOT
BRANCH   1   4
ATOM      4  C   UNL     1      37.126 -25.392 -12.591  0.00  0.00    +0.038 C 
BRANCH   4   5
ATOM      5  P   UNL     1      36.360 -24.110 -11.600  0.00  0.00    +0.316 P 
ATOM      6  O   UNL     1      37.327 -23.159 -10.962  0.00  0.00    -0.260 OA
BRANCH   5   7
ATOM      7  O   UNL     1      35.299 -23.436 -12.616  0.00  0.00    -0.325 OA
ATOM      8  H   UNL     1      35.187 -22.499 -12.391  0.00  0.00    +0.220 HD
ENDBRANCH   5   7
BRANCH   5   9
ATOM      9  O   UNL     1      35.426 -24.937 -10.573  0.00  0.00    -0.325 OA
ATOM     10  H   UNL     1      34.565 -24.498 -10.494  0.00  0.00    +0.220 HD
ENDBRANCH   5   9
ENDBRANCH   4   5
ENDBRANCH   1   4
BRANCH   1  11
ATOM     11  C   UNL     1      38.890 -25.215 -14.370  0.00  0.00    +0.031 C 
BRANCH  11  13
ATOM     12  O   UNL     1      40.937 -26.427 -13.877  0.00  0.00    -0.253 OA
ATOM     13  C   UNL     1      40.182 -25.908 -14.686  0.00  0.00    +0.292 C 
BRANCH  13  14
ATOM     14  O   UNL     1      40.408 -25.882 -16.024  0.00  0.00    -0.482 OA
ATOM     15  H   UNL     1      40.085 -25.170 -16.541  0.00  0.00    +0.295 HD
ENDBRANCH  13  14
ENDBRANCH  11  13
ENDBRANCH   1  11
TORSDOF 7
ENDMDL
MODEL 4
REMARK VINA RESULT:      -5.4      1.441      2.061
REMARK  Name = 5288464
REMARK  7 active torsions:
REMARK  status: ('A' for Active; 'I' for Inactive)
REMARK    1  A    between atoms: N_1  and  C_4
REMARK    2  A    between atoms: N_1  and  C_11
REMARK    3  A    between atoms: C_4  and  P_5
REMARK    4  A    between atoms: P_5  and  O_7
REMARK    5  A    between atoms: P_5  and  O_9
REMARK    6  A    between atoms: C_11  and  C_13
REMARK    7  A    between atoms: C_13  and  O_14
REMARK                            x       y       z     vdW  Elec       q    Type
REMARK                         _______ _______ _______ _____ _____    ______ ____
ROOT
ATOM      1  N   UNL     1      35.150 -24.894 -13.655  0.00  0.00    +0.399 N 
ATOM      2  H   UNL     1      35.102 -25.808 -13.207  0.00  0.00    -0.083 HD
ATOM      3  H   UNL     1      34.255 -24.589 -14.039  0.00  0.00    -0.083 HD
ENDROOT
BRANCH   1   4
ATOM      4  C   UNL     1      36.099 -24.989 -14.812  0.00  0.00    +0.038 C 
BRANCH   4   5
ATOM      5  P   UNL     1      37.225 -26.379 -14.906  0.00  0.00    +0.316 P 
ATOM      6  O   UNL     1      37.333 -27.176 -13.641  0.00  0.00    -0.260 OA
BRANCH   5   7
ATOM      7  O   UNL     1      36.698 -27.200 -16.195  0.00  0.00    -0.325 OA
ATOM      8  H   UNL     1      35.745 -27.055 -16.304  0.00  0.00    +0.220 HD
ENDBRANCH   5   7
BRANCH   5   9
ATOM      9  O   UNL     1      38.603 -25.712 -15.421  0.00  0.00    -0.325 OA
ATOM     10  H   UNL     1      39.018 -25.224 -14.694  0.00  0.00    +0.220 HD
ENDBRANCH   5   9
ENDBRANCH   4   5
ENDBRANCH   1   4
BRANCH   1  11
ATOM     11  C   UNL     1      35.529 -23.892 -12.624  0.00  0.00    +0.031 C 
BRANCH  11  13
ATOM     12  O   UNL     1      35.250 -25.106 -10.539  0.00  0.00    -0.253 OA
ATOM     13  C   UNL     1      35.975 -24.562 -11.359  0.00  0.00    +0.292 C 
BRANCH  13  14
ATOM     14  O   UNL     1      37.324 -24.483 -11.241  0.00  0.00    -0.482 OA
ATOM     15  H   UNL     1      37.735 -23.653 -11.099  0.00  0.00    +0.295 HD
ENDBRANCH  13  14
ENDBRANCH  11  13
ENDBRANCH   1  11
TORSDOF 7
ENDMDL
MODEL 5
REMARK VINA RESULT:      -5.4      1.638      2.268
REMARK  Name = 5288464
REMARK  7 active torsions:
REMARK  status: ('A' for Active; 'I' for Inactive)
REMARK    1  A    between atoms: N_1  and  C_4
REMARK    2  A    between atoms: N_1  and  C_11
REMARK    3  A    between atoms: C_4  and  P_5
REMARK    4  A    between atoms: P_5  and  O_7
REMARK    5  A    between atoms: P_5  and  O_9
REMARK    6  A    between atoms: C_11  and  C_13
REMARK    7  A    between atoms: C_13  and  O_14
REMARK                            x       y       z     vdW  Elec       q    Type
REMARK                         _______ _______ _______ _____ _____    ______ ____
ROOT
ATOM      1  N   UNL     1      37.186 -23.562 -14.290  0.00  0.00    +0.399 N 
ATOM      2  H   UNL     1      36.937 -22.726 -14.817  0.00  0.00    -0.083 HD
ATOM      3  H   UNL     1      38.192 -23.724 -14.246  0.00  0.00    -0.083 HD
ENDROOT
BRANCH   1   4
ATOM      4  C   UNL     1      36.593 -24.749 -14.988  0.00  0.00    +0.038 C 
BRANCH   4   5
ATOM      5  P   UNL     1      37.416 -26.336 -14.865  0.00  0.00    +0.316 P 
ATOM      6  O   UNL     1      37.285 -27.000 -13.527  0.00  0.00    -0.260 OA
BRANCH   5   7
ATOM      7  O   UNL     1      36.811 -27.169 -16.111  0.00  0.00    -0.325 OA
ATOM      8  H   UNL     1      37.530 -27.631 -16.570  0.00  0.00    +0.220 HD
ENDBRANCH   5   7
BRANCH   5   9
ATOM      9  O   UNL     1      38.930 -26.011 -15.328  0.00  0.00    -0.325 OA
ATOM     10  H   UNL     1      39.204 -26.645 -16.008  0.00  0.00    +0.220 HD
ENDBRANCH   5   9
ENDBRANCH   4   5
ENDBRANCH   1   4
BRANCH   1  11
ATOM     11  C   UNL     1      36.728 -23.378 -12.887  0.00  0.00    +0.031 C 
BRANCH  11  13
ATOM     12  O   UNL     1      38.772 -22.921 -11.657  0.00  0.00    -0.253 OA
ATOM     13  C   UNL     1      37.836 -23.662 -11.917  0.00  0.00    +0.292 C 
BRANCH  13  14
ATOM     14  O   UNL     1      37.657 -24.882 -11.352  0.00  0.00    -0.482 OA
ATOM     15  H   UNL     1      37.517 -24.955 -10.428  0.00  0.00    +0.295 HD
ENDBRANCH  13  14
ENDBRANCH  11  13
ENDBRANCH   1  11
TORSDOF 7
ENDMDL
MODEL 6
REMARK VINA RESULT:      -5.2      1.821      2.487
REMARK  Name = 5288464
REMARK  7 active torsions:
REMARK  status: ('A' for Active; 'I' for Inactive)
REMARK    1  A    between atoms: N_1  and  C_4
REMARK    2  A    between atoms: N_1  and  C_11
REMARK    3  A    between atoms: C_4  and  P_5
REMARK    4  A    between atoms: P_5  and  O_7
REMARK    5  A    between atoms: P_5  and  O_9
REMARK    6  A    between atoms: C_11  and  C_13
REMARK    7  A    between atoms: C_13  and  O_14
REMARK                            x       y       z     vdW  Elec       q    Type
REMARK                         _______ _______ _______ _____ _____    ______ ____
ROOT
ATOM      1  N   UNL     1      37.580 -24.258 -12.935  0.00  0.00    +0.399 N 
ATOM      2  H   UNL     1      37.578 -23.582 -13.698  0.00  0.00    -0.083 HD
ATOM      3  H   UNL     1      37.650 -23.823 -12.014  0.00  0.00    -0.083 HD
ENDROOT
BRANCH   1   4
ATOM      4  C   UNL     1      38.788 -25.132 -13.085  0.00  0.00    +0.038 C 
BRANCH   4   5
ATOM      5  P   UNL     1      39.483 -25.390 -14.717  0.00  0.00    +0.316 P 
ATOM      6  O   UNL     1      40.930 -25.778 -14.720  0.00  0.00    -0.260 OA
BRANCH   5   7
ATOM      7  O   UNL     1      38.478 -26.465 -15.385  0.00  0.00    -0.325 OA
ATOM      8  H   UNL     1      38.606 -27.331 -14.966  0.00  0.00    +0.220 HD
ENDBRANCH   5   7
BRANCH   5   9
ATOM      9  O   UNL     1      39.135 -24.016 -15.493  0.00  0.00    -0.325 OA
ATOM     10  H   UNL     1      39.725 -23.311 -15.184  0.00  0.00    +0.220 HD
ENDBRANCH   5   9
ENDBRANCH   4   5
ENDBRANCH   1   4
BRANCH   1  11
ATOM     11  C   UNL     1      36.283 -24.986 -12.959  0.00  0.00    +0.031 C 
BRANCH  11  13
ATOM     12  O   UNL     1      35.422 -25.095 -10.690  0.00  0.00    -0.253 OA
ATOM     13  C   UNL     1      35.419 -24.585 -11.801  0.00  0.00    +0.292 C 
BRANCH  13  14
ATOM     14  O   UNL     1      34.611 -23.555 -12.159  0.00  0.00    -0.482 OA
ATOM     15  H   UNL     1      33.965 -23.236 -11.560  0.00  0.00    +0.295 HD
ENDBRANCH  13  14
ENDBRANCH  11  13
ENDBRANCH   1  11
TORSDOF 7
ENDMDL
MODEL 7
REMARK VINA RESULT:      -5.2      2.418      4.479
REMARK  Name = 5288464
REMARK  7 active torsions:
REMARK  status: ('A' for Active; 'I' for Inactive)
REMARK    1  A    between atoms: N_1  and  C_4
REMARK    2  A    between atoms: N_1  and  C_11
REMARK    3  A    between atoms: C_4  and  P_5
REMARK    4  A    between atoms: P_5  and  O_7
REMARK    5  A    between atoms: P_5  and  O_9
REMARK    6  A    between atoms: C_11  and  C_13
REMARK    7  A    between atoms: C_13  and  O_14
REMARK                            x       y       z     vdW  Elec       q    Type
REMARK                         _______ _______ _______ _____ _____    ______ ____
ROOT
ATOM      1  N   UNL     1      38.302 -25.998 -13.587  0.00  0.00    +0.399 N 
ATOM      2  H   UNL     1      39.185 -26.506 -13.630  0.00  0.00    -0.083 HD
ATOM      3  H   UNL     1      38.265 -25.204 -14.228  0.00  0.00    -0.083 HD
ENDROOT
BRANCH   1   4
ATOM      4  C   UNL     1      38.151 -25.437 -12.205  0.00  0.00    +0.038 C 
BRANCH   4   5
ATOM      5  P   UNL     1      37.345 -23.852 -11.989  0.00  0.00    +0.316 P 
ATOM      6  O   UNL     1      36.468 -23.441 -13.133  0.00  0.00    -0.260 OA
BRANCH   5   7
ATOM      7  O   UNL     1      36.595 -24.005 -10.565  0.00  0.00    -0.325 OA
ATOM      8  H   UNL     1      36.358 -23.126 -10.229  0.00  0.00    +0.220 HD
ENDBRANCH   5   7
BRANCH   5   9
ATOM      9  O   UNL     1      38.570 -22.849 -11.664  0.00  0.00    -0.325 OA
ATOM     10  H   UNL     1      38.894 -23.014 -10.766  0.00  0.00    +0.220 HD
ENDBRANCH   5   9
ENDBRANCH   4   5
ENDBRANCH   1   4
BRANCH   1  11
ATOM     11  C   UNL     1      37.215 -26.924 -14.002  0.00  0.00    +0.031 C 
BRANCH  11  13
ATOM     12  O   UNL     1      36.661 -27.389 -16.320  0.00  0.00    -0.253 OA
ATOM     13  C   UNL     1      36.734 -26.605 -15.386  0.00  0.00    +0.292 C 
BRANCH  13  14
ATOM     14  O   UNL     1      36.381 -25.297 -15.466  0.00  0.00    -0.482 OA
ATOM     15  H   UNL     1      36.599 -24.709 -14.769  0.00  0.00    +0.295 HD
ENDBRANCH  13  14
ENDBRANCH  11  13
ENDBRANCH   1  11
TORSDOF 7
ENDMDL
MODEL 8
REMARK VINA RESULT:      -5.1      2.086      4.244
REMARK  Name = 5288464
REMARK  7 active torsions:
REMARK  status: ('A' for Active; 'I' for Inactive)
REMARK    1  A    between atoms: N_1  and  C_4
REMARK    2  A    between atoms: N_1  and  C_11
REMARK    3  A    between atoms: C_4  and  P_5
REMARK    4  A    between atoms: P_5  and  O_7
REMARK    5  A    between atoms: P_5  and  O_9
REMARK    6  A    between atoms: C_11  and  C_13
REMARK    7  A    between atoms: C_13  and  O_14
REMARK                            x       y       z     vdW  Elec       q    Type
REMARK                         _______ _______ _______ _____ _____    ______ ____
ROOT
ATOM      1  N   UNL     1      38.149 -25.079 -13.439  0.00  0.00    +0.399 N 
ATOM      2  H   UNL     1      39.103 -25.227 -13.111  0.00  0.00    -0.083 HD
ATOM      3  H   UNL     1      37.962 -24.111 -13.702  0.00  0.00    -0.083 HD
ENDROOT
BRANCH   1   4
ATOM      4  C   UNL     1      37.212 -25.403 -12.316  0.00  0.00    +0.038 C 
BRANCH   4   5
ATOM      5  P   UNL     1      36.314 -24.075 -11.515  0.00  0.00    +0.316 P 
ATOM      6  O   UNL     1      37.184 -23.015 -10.910  0.00  0.00    -0.260 OA
BRANCH   5   7
ATOM      7  O   UNL     1      35.301 -23.562 -12.665  0.00  0.00    -0.325 OA
ATOM      8  H   UNL     1      35.751 -22.909 -13.225  0.00  0.00    +0.220 HD
ENDBRANCH   5   7
BRANCH   5   9
ATOM      9  O   UNL     1      35.346 -24.848 -10.478  0.00  0.00    -0.325 OA
ATOM     10  H   UNL     1      35.198 -25.755 -10.787  0.00  0.00    +0.220 HD
ENDBRANCH   5   9
ENDBRANCH   4   5
ENDBRANCH   1   4
BRANCH   1  11
ATOM     11  C   UNL     1      37.950 -25.894 -14.666  0.00  0.00    +0.031 C 
BRANCH  11  13
ATOM     12  O   UNL     1      35.944 -24.789 -15.476  0.00  0.00    -0.253 OA
ATOM     13  C   UNL     1      36.532 -25.808 -15.146  0.00  0.00    +0.292 C 
BRANCH  13  14
ATOM     14  O   UNL     1      35.973 -27.045 -15.167  0.00  0.00    -0.482 OA
ATOM     15  H   UNL     1      35.224 -27.212 -15.704  0.00  0.00    +0.295 HD
ENDBRANCH  13  14
ENDBRANCH  11  13
ENDBRANCH   1  11
TORSDOF 7
ENDMDL
MODEL 9
REMARK VINA RESULT:      -5.1      3.015      4.230
REMARK  Name = 5288464
REMARK  7 active torsions:
REMARK  status: ('A' for Active; 'I' for Inactive)
REMARK    1  A    between atoms: N_1  and  C_4
REMARK    2  A    between atoms: N_1  and  C_11
REMARK    3  A    between atoms: C_4  and  P_5
REMARK    4  A    between atoms: P_5  and  O_7
REMARK    5  A    between atoms: P_5  and  O_9
REMARK    6  A    between atoms: C_11  and  C_13
REMARK    7  A    between atoms: C_13  and  O_14
REMARK                            x       y       z     vdW  Elec       q    Type
REMARK                         _______ _______ _______ _____ _____    ______ ____
ROOT
ATOM      1  N   UNL     1      37.678 -23.854 -15.663  0.00  0.00    +0.399 N 
ATOM      2  H   UNL     1      37.277 -24.210 -16.530  0.00  0.00    -0.083 HD
ATOM      3  H   UNL     1      38.697 -23.898 -15.645  0.00  0.00    -0.083 HD
ENDROOT
BRANCH   1   4
ATOM      4  C   UNL     1      37.195 -24.716 -14.535  0.00  0.00    +0.038 C 
BRANCH   4   5
ATOM      5  P   UNL     1      37.228 -26.497 -14.722  0.00  0.00    +0.316 P 
ATOM      6  O   UNL     1      36.429 -27.014 -15.880  0.00  0.00    -0.260 OA
BRANCH   5   7
ATOM      7  O   UNL     1      38.807 -26.840 -14.765  0.00  0.00    -0.325 OA
ATOM      8  H   UNL     1      39.055 -27.323 -13.961  0.00  0.00    +0.220 HD
ENDBRANCH   5   7
BRANCH   5   9
ATOM      9  O   UNL     1      36.765 -27.035 -13.270  0.00  0.00    -0.325 OA
ATOM     10  H   UNL     1      37.544 -27.308 -12.762  0.00  0.00    +0.220 HD
ENDBRANCH   5   9
ENDBRANCH   4   5
ENDBRANCH   1   4
BRANCH   1  11
ATOM     11  C   UNL     1      37.316 -22.417 -15.542  0.00  0.00    +0.031 C 
BRANCH  11  13
ATOM     12  O   UNL     1      36.044 -22.439 -17.611  0.00  0.00    -0.253 OA
ATOM     13  C   UNL     1      36.813 -21.876 -16.846  0.00  0.00    +0.292 C 
BRANCH  13  14
ATOM     14  O   UNL     1      37.338 -20.645 -17.072  0.00  0.00    -0.482 OA
ATOM     15  H   UNL     1      36.985 -19.896 -16.633  0.00  0.00    +0.295 HD
ENDBRANCH  13  14
ENDBRANCH  11  13
ENDBRANCH   1  11
TORSDOF 7
ENDMDL
