MODEL 1
REMARK VINA RESULT:      -4.6      0.000      0.000
REMARK  Name = 9935073
REMARK  7 active torsions:
REMARK  status: ('A' for Active; 'I' for Inactive)
REMARK    1  A    between atoms: C_6  and  C_24
REMARK    2  A    between atoms: C_6  and  O_28
REMARK    3  A    between atoms: C_9  and  O_21
REMARK    4  A    between atoms: C_24  and  O_25
REMARK    5  A    between atoms: O_25  and  C_26
REMARK    6  A    between atoms: O_28  and  C_30
REMARK    7  A    between atoms: C_30  and  C_33
REMARK                            x       y       z     vdW  Elec       q    Type
REMARK                         _______ _______ _______ _____ _____    ______ ____
ROOT
ATOM      1  O   UNL     1      36.072 -22.797 -15.075  0.00  0.00    -0.287 OA
ATOM      2  C   UNL     1      34.728 -18.176 -21.745  0.00  0.00    +0.046 C 
ATOM      3  C   UNL     1      33.694 -18.895 -20.850  0.00  0.00    +0.004 C 
ATOM      4  C   UNL     1      34.111 -20.318 -20.453  0.00  0.00    +0.003 C 
ATOM      5  C   UNL     1      35.459 -20.244 -19.653  0.00  0.00    +0.034 C 
ATOM      6  C   UNL     1      33.966 -16.843 -21.991  0.00  0.00    +0.224 C 
ATOM      7  C   UNL     1      36.039 -18.068 -20.942  0.00  0.00    +0.033 C 
ATOM      8  C   UNL     1      32.378 -18.693 -21.597  0.00  0.00    +0.004 C 
ATOM      9  C   UNL     1      36.549 -19.432 -20.422  0.00  0.00    +0.111 C 
ATOM     10  C   UNL     1      35.907 -21.657 -19.104  0.00  0.00    +0.036 C 
ATOM     11  C   UNL     1      32.499 -17.279 -22.201  0.00  0.00    +0.051 C 
ATOM     12  C   UNL     1      33.004 -20.989 -19.617  0.00  0.00    +0.004 C 
ATOM     13  C   UNL     1      34.970 -18.893 -23.101  0.00  0.00    +0.004 C 
ATOM     14  C   UNL     1      33.425 -22.355 -19.090  0.00  0.00    +0.022 C 
ATOM     15  C   UNL     1      34.721 -22.243 -18.329  0.00  0.00    -0.038 C 
ATOM     16  C   UNL     1      36.303 -22.664 -20.208  0.00  0.00    +0.009 C 
ATOM     17  C   UNL     1      37.128 -21.506 -18.209  0.00  0.00    -0.020 C 
ATOM     18  C   UNL     1      34.779 -22.603 -17.037  0.00  0.00    +0.034 C 
ATOM     19  C   UNL     1      37.192 -21.861 -16.922  0.00  0.00    +0.038 C 
ATOM     20  C   UNL     1      36.019 -22.451 -16.250  0.00  0.00    +0.195 C 
ENDROOT
BRANCH   9  21
ATOM     21  O   UNL     1      37.084 -20.182 -21.502  0.00  0.00    -0.384 OA
ATOM     22  H   UNL     1      37.709 -19.633 -22.000  0.00  0.00    +0.210 HD
ENDBRANCH   9  21
BRANCH   6  24
ATOM     23  O   UNL     1      35.647 -15.588 -23.173  0.00  0.00    -0.246 OA
ATOM     24  C   UNL     1      34.502 -16.017 -23.121  0.00  0.00    +0.354 C 
BRANCH  24  25
ATOM     25  O   UNL     1      33.525 -15.831 -24.053  0.00  0.00    -0.446 OA
BRANCH  25  26
ATOM     26  C   UNL     1      33.943 -15.959 -25.416  0.00  0.00    +0.209 C 
ATOM     27  C   UNL     1      33.078 -15.069 -26.283  0.00  0.00    +0.051 C 
ENDBRANCH  25  26
ENDBRANCH  24  25
ENDBRANCH   6  24
BRANCH   6  28
ATOM     28  O   UNL     1      34.047 -15.985 -20.857  0.00  0.00    -0.443 OA
BRANCH  28  30
ATOM     29  O   UNL     1      31.909 -15.781 -20.023  0.00  0.00    -0.247 OA
ATOM     30  C   UNL     1      32.904 -15.296 -20.547  0.00  0.00    +0.348 C 
BRANCH  30  33
ATOM     31 CL   UNL     1      32.234 -13.674 -22.537  0.00  0.00    -0.085 Cl
ATOM     32 CL   UNL     1      32.335 -12.793 -19.760  0.00  0.00    -0.085 Cl
ATOM     33  C   UNL     1      33.050 -13.862 -20.978  0.00  0.00    +0.257 C 
ENDBRANCH  30  33
ENDBRANCH  28  30
ENDBRANCH   6  28
TORSDOF 7
ENDMDL
MODEL 2
REMARK VINA RESULT:      -4.4      4.947     10.665
REMARK  Name = 9935073
REMARK  7 active torsions:
REMARK  status: ('A' for Active; 'I' for Inactive)
REMARK    1  A    between atoms: C_6  and  C_24
REMARK    2  A    between atoms: C_6  and  O_28
REMARK    3  A    between atoms: C_9  and  O_21
REMARK    4  A    between atoms: C_24  and  O_25
REMARK    5  A    between atoms: O_25  and  C_26
REMARK    6  A    between atoms: O_28  and  C_30
REMARK    7  A    between atoms: C_30  and  C_33
REMARK                            x       y       z     vdW  Elec       q    Type
REMARK                         _______ _______ _______ _____ _____    ______ ____
ROOT
ATOM      1  O   UNL     1      30.545  -5.090 -24.591  0.00  0.00    -0.287 OA
ATOM      2  C   UNL     1      33.623 -12.631 -23.443  0.00  0.00    +0.046 C 
ATOM      3  C   UNL     1      32.401 -11.977 -22.759  0.00  0.00    +0.004 C 
ATOM      4  C   UNL     1      32.638 -10.519 -22.342  0.00  0.00    +0.003 C 
ATOM      5  C   UNL     1      32.971  -9.676 -23.624  0.00  0.00    +0.034 C 
ATOM      6  C   UNL     1      33.058 -14.063 -23.655  0.00  0.00    +0.224 C 
ATOM      7  C   UNL     1      33.923 -11.825 -24.722  0.00  0.00    +0.033 C 
ATOM      8  C   UNL     1      32.007 -12.995 -21.693  0.00  0.00    +0.004 C 
ATOM      9  C   UNL     1      34.126 -10.315 -24.458  0.00  0.00    +0.111 C 
ATOM     10  C   UNL     1      33.120  -8.135 -23.303  0.00  0.00    +0.036 C 
ATOM     11  C   UNL     1      32.284 -14.362 -22.352  0.00  0.00    +0.051 C 
ATOM     12  C   UNL     1      31.402  -9.960 -21.614  0.00  0.00    +0.004 C 
ATOM     13  C   UNL     1      34.876 -12.696 -22.528  0.00  0.00    +0.004 C 
ATOM     14  C   UNL     1      31.540  -8.476 -21.294  0.00  0.00    +0.022 C 
ATOM     15  C   UNL     1      31.859  -7.702 -22.547  0.00  0.00    -0.038 C 
ATOM     16  C   UNL     1      34.346  -7.790 -22.427  0.00  0.00    +0.009 C 
ATOM     17  C   UNL     1      33.286  -7.347 -24.594  0.00  0.00    -0.020 C 
ATOM     18  C   UNL     1      31.035  -6.727 -22.967  0.00  0.00    +0.034 C 
ATOM     19  C   UNL     1      32.469  -6.378 -25.018  0.00  0.00    +0.038 C 
ATOM     20  C   UNL     1      31.290  -5.990 -24.221  0.00  0.00    +0.195 C 
ENDROOT
BRANCH   9  21
ATOM     21  O   UNL     1      35.386 -10.106 -23.839  0.00  0.00    -0.384 OA
ATOM     22  H   UNL     1      35.942  -9.557 -24.413  0.00  0.00    +0.210 HD
ENDBRANCH   9  21
BRANCH   6  24
ATOM     23  O   UNL     1      35.020 -14.925 -24.753  0.00  0.00    -0.246 OA
ATOM     24  C   UNL     1      34.092 -15.101 -23.976  0.00  0.00    +0.354 C 
BRANCH  24  25
ATOM     25  O   UNL     1      33.828 -16.239 -23.274  0.00  0.00    -0.446 OA
BRANCH  25  26
ATOM     26  C   UNL     1      34.966 -16.876 -22.684  0.00  0.00    +0.209 C 
ATOM     27  C   UNL     1      34.887 -16.733 -21.179  0.00  0.00    +0.051 C 
ENDBRANCH  25  26
ENDBRANCH  24  25
ENDBRANCH   6  24
BRANCH   6  28
ATOM     28  O   UNL     1      32.160 -14.107 -24.760  0.00  0.00    -0.443 OA
BRANCH  28  30
ATOM     29  O   UNL     1      32.938 -15.637 -26.297  0.00  0.00    -0.247 OA
ATOM     30  C   UNL     1      32.706 -14.484 -25.959  0.00  0.00    +0.348 C 
BRANCH  30  33
ATOM     31 CL   UNL     1      34.386 -13.625 -27.825  0.00  0.00    -0.085 Cl
ATOM     32 CL   UNL     1      31.585 -12.818 -27.741  0.00  0.00    -0.085 Cl
ATOM     33  C   UNL     1      33.006 -13.258 -26.780  0.00  0.00    +0.257 C 
ENDBRANCH  30  33
ENDBRANCH  28  30
ENDBRANCH   6  28
TORSDOF 7
ENDMDL
MODEL 3
REMARK VINA RESULT:      -3.8     14.484     16.270
REMARK  Name = 9935073
REMARK  7 active torsions:
REMARK  status: ('A' for Active; 'I' for Inactive)
REMARK    1  A    between atoms: C_6  and  C_24
REMARK    2  A    between atoms: C_6  and  O_28
REMARK    3  A    between atoms: C_9  and  O_21
REMARK    4  A    between atoms: C_24  and  O_25
REMARK    5  A    between atoms: O_25  and  C_26
REMARK    6  A    between atoms: O_28  and  C_30
REMARK    7  A    between atoms: C_30  and  C_33
REMARK                            x       y       z     vdW  Elec       q    Type
REMARK                         _______ _______ _______ _____ _____    ______ ____
ROOT
ATOM      1  O   UNL     1      43.147  -9.088 -26.087  0.00  0.00    -0.287 OA
ATOM      2  C   UNL     1      37.234  -3.816 -28.302  0.00  0.00    +0.046 C 
ATOM      3  C   UNL     1      37.501  -5.241 -28.837  0.00  0.00    +0.004 C 
ATOM      4  C   UNL     1      38.988  -5.534 -29.085  0.00  0.00    +0.003 C 
ATOM      5  C   UNL     1      39.765  -5.384 -27.729  0.00  0.00    +0.034 C 
ATOM      6  C   UNL     1      35.682  -3.856 -28.237  0.00  0.00    +0.224 C 
ATOM      7  C   UNL     1      37.965  -3.685 -26.951  0.00  0.00    +0.033 C 
ATOM      8  C   UNL     1      36.520  -5.372 -29.998  0.00  0.00    +0.004 C 
ATOM      9  C   UNL     1      39.473  -4.014 -27.039  0.00  0.00    +0.111 C 
ATOM     10  C   UNL     1      41.288  -5.780 -27.867  0.00  0.00    +0.036 C 
ATOM     11  C   UNL     1      35.269  -4.603 -29.526  0.00  0.00    +0.051 C 
ATOM     12  C   UNL     1      39.166  -6.946 -29.675  0.00  0.00    +0.004 C 
ATOM     13  C   UNL     1      37.685  -2.698 -29.282  0.00  0.00    +0.004 C 
ATOM     14  C   UNL     1      40.632  -7.333 -29.818  0.00  0.00    +0.022 C 
ATOM     15  C   UNL     1      41.343  -7.176 -28.498  0.00  0.00    -0.038 C 
ATOM     16  C   UNL     1      42.110  -4.819 -28.756  0.00  0.00    +0.009 C 
ATOM     17  C   UNL     1      41.956  -5.769 -26.500  0.00  0.00    -0.020 C 
ATOM     18  C   UNL     1      41.937  -8.233 -27.921  0.00  0.00    +0.034 C 
ATOM     19  C   UNL     1      42.547  -6.817 -25.919  0.00  0.00    +0.038 C 
ATOM     20  C   UNL     1      42.591  -8.124 -26.601  0.00  0.00    +0.195 C 
ENDROOT
BRANCH   9  21
ATOM     21  O   UNL     1      40.154  -2.953 -27.693  0.00  0.00    -0.384 OA
ATOM     22  H   UNL     1      39.623  -2.144 -27.635  0.00  0.00    +0.210 HD
ENDBRANCH   9  21
BRANCH   6  24
ATOM     23  O   UNL     1      35.159  -1.786 -27.126  0.00  0.00    -0.246 OA
ATOM     24  C   UNL     1      35.028  -2.515 -28.099  0.00  0.00    +0.354 C 
BRANCH  24  25
ATOM     25  O   UNL     1      34.283  -2.254 -29.211  0.00  0.00    -0.446 OA
BRANCH  25  26
ATOM     26  C   UNL     1      32.952  -1.789 -28.965  0.00  0.00    +0.209 C 
ATOM     27  C   UNL     1      31.990  -2.556 -29.847  0.00  0.00    +0.051 C 
ENDBRANCH  25  26
ENDBRANCH  24  25
ENDBRANCH   6  24
BRANCH   6  28
ATOM     28  O   UNL     1      35.231  -4.588 -27.101  0.00  0.00    -0.443 OA
BRANCH  28  30
ATOM     29  O   UNL     1      33.266  -5.274 -28.090  0.00  0.00    -0.247 OA
ATOM     30  C   UNL     1      33.905  -4.934 -27.103  0.00  0.00    +0.348 C 
BRANCH  30  33
ATOM     31 CL   UNL     1      31.830  -3.903 -25.809  0.00  0.00    -0.085 Cl
ATOM     32 CL   UNL     1      33.091  -6.408 -25.012  0.00  0.00    -0.085 Cl
ATOM     33  C   UNL     1      33.351  -4.801 -25.710  0.00  0.00    +0.257 C 
ENDBRANCH  30  33
ENDBRANCH  28  30
ENDBRANCH   6  28
TORSDOF 7
ENDMDL
MODEL 4
REMARK VINA RESULT:      -3.3      7.484      9.509
REMARK  Name = 9935073
REMARK  7 active torsions:
REMARK  status: ('A' for Active; 'I' for Inactive)
REMARK    1  A    between atoms: C_6  and  C_24
REMARK    2  A    between atoms: C_6  and  O_28
REMARK    3  A    between atoms: C_9  and  O_21
REMARK    4  A    between atoms: C_24  and  O_25
REMARK    5  A    between atoms: O_25  and  C_26
REMARK    6  A    between atoms: O_28  and  C_30
REMARK    7  A    between atoms: C_30  and  C_33
REMARK                            x       y       z     vdW  Elec       q    Type
REMARK                         _______ _______ _______ _____ _____    ______ ____
ROOT
ATOM      1  O   UNL     1      39.922 -26.829 -14.488  0.00  0.00    -0.287 OA
ATOM      2  C   UNL     1      32.536 -23.219 -14.758  0.00  0.00    +0.046 C 
ATOM      3  C   UNL     1      33.630 -23.250 -15.847  0.00  0.00    +0.004 C 
ATOM      4  C   UNL     1      35.047 -23.022 -15.302  0.00  0.00    +0.003 C 
ATOM      5  C   UNL     1      35.377 -24.155 -14.266  0.00  0.00    +0.034 C 
ATOM      6  C   UNL     1      31.280 -23.410 -15.653  0.00  0.00    +0.224 C 
ATOM      7  C   UNL     1      32.839 -24.358 -13.764  0.00  0.00    +0.033 C 
ATOM      8  C   UNL     1      33.091 -22.305 -16.917  0.00  0.00    +0.004 C 
ATOM      9  C   UNL     1      34.267 -24.289 -13.176  0.00  0.00    +0.111 C 
ATOM     10  C   UNL     1      36.863 -24.065 -13.735  0.00  0.00    +0.036 C 
ATOM     11  C   UNL     1      31.566 -22.540 -16.898  0.00  0.00    +0.051 C 
ATOM     12  C   UNL     1      36.071 -23.005 -16.452  0.00  0.00    +0.004 C 
ATOM     13  C   UNL     1      32.444 -21.855 -14.019  0.00  0.00    +0.004 C 
ATOM     14  C   UNL     1      37.506 -22.911 -15.949  0.00  0.00    +0.022 C 
ATOM     15  C   UNL     1      37.783 -24.013 -14.960  0.00  0.00    -0.038 C 
ATOM     16  C   UNL     1      37.146 -22.816 -12.868  0.00  0.00    +0.009 C 
ATOM     17  C   UNL     1      37.178 -25.269 -12.861  0.00  0.00    -0.020 C 
ATOM     18  C   UNL     1      38.760 -24.904 -15.197  0.00  0.00    +0.034 C 
ATOM     19  C   UNL     1      38.147 -26.160 -13.092  0.00  0.00    +0.038 C 
ATOM     20  C   UNL     1      39.017 -26.029 -14.275  0.00  0.00    +0.195 C 
ENDROOT
BRANCH   9  21
ATOM     21  O   UNL     1      34.342 -23.230 -12.232  0.00  0.00    -0.384 OA
ATOM     22  H   UNL     1      33.785 -22.493 -12.527  0.00  0.00    +0.210 HD
ENDBRANCH   9  21
BRANCH   6  24
ATOM     23  O   UNL     1      29.728 -23.319 -13.816  0.00  0.00    -0.246 OA
ATOM     24  C   UNL     1      29.980 -23.074 -14.987  0.00  0.00    +0.354 C 
BRANCH  24  25
ATOM     25  O   UNL     1      29.152 -22.467 -15.884  0.00  0.00    -0.446 OA
BRANCH  25  26
ATOM     26  C   UNL     1      27.782 -22.365 -15.484  0.00  0.00    +0.209 C 
ATOM     27  C   UNL     1      26.945 -21.974 -16.684  0.00  0.00    +0.051 C 
ENDBRANCH  25  26
ENDBRANCH  24  25
ENDBRANCH   6  24
BRANCH   6  28
ATOM     28  O   UNL     1      31.132 -24.770 -16.051  0.00  0.00    -0.443 OA
BRANCH  28  30
ATOM     29  O   UNL     1      31.072 -25.866 -14.025  0.00  0.00    -0.247 OA
ATOM     30  C   UNL     1      30.582 -25.608 -15.117  0.00  0.00    +0.348 C 
BRANCH  30  33
ATOM     31 CL   UNL     1      28.125 -26.235 -14.333  0.00  0.00    -0.085 Cl
ATOM     32 CL   UNL     1      28.707 -25.187 -16.991  0.00  0.00    -0.085 Cl
ATOM     33  C   UNL     1      29.300 -26.186 -15.655  0.00  0.00    +0.257 C 
ENDBRANCH  30  33
ENDBRANCH  28  30
ENDBRANCH   6  28
TORSDOF 7
ENDMDL
MODEL 5
REMARK VINA RESULT:      -2.2      4.863      8.051
REMARK  Name = 9935073
REMARK  7 active torsions:
REMARK  status: ('A' for Active; 'I' for Inactive)
REMARK    1  A    between atoms: C_6  and  C_24
REMARK    2  A    between atoms: C_6  and  O_28
REMARK    3  A    between atoms: C_9  and  O_21
REMARK    4  A    between atoms: C_24  and  O_25
REMARK    5  A    between atoms: O_25  and  C_26
REMARK    6  A    between atoms: O_28  and  C_30
REMARK    7  A    between atoms: C_30  and  C_33
REMARK                            x       y       z     vdW  Elec       q    Type
REMARK                         _______ _______ _______ _____ _____    ______ ____
ROOT
ATOM      1  O   UNL     1      36.656 -17.820 -21.861  0.00  0.00    -0.287 OA
ATOM      2  C   UNL     1      32.085 -11.018 -22.563  0.00  0.00    +0.046 C 
ATOM      3  C   UNL     1      32.630 -11.681 -21.278  0.00  0.00    +0.004 C 
ATOM      4  C   UNL     1      32.494 -13.210 -21.272  0.00  0.00    +0.003 C 
ATOM      5  C   UNL     1      33.302 -13.793 -22.485  0.00  0.00    +0.034 C 
ATOM      6  C   UNL     1      32.319  -9.525 -22.197  0.00  0.00    +0.224 C 
ATOM      7  C   UNL     1      32.907 -11.561 -23.749  0.00  0.00    +0.033 C 
ATOM      8  C   UNL     1      31.973 -10.877 -20.160  0.00  0.00    +0.004 C 
ATOM      9  C   UNL     1      32.910 -13.105 -23.831  0.00  0.00    +0.111 C 
ATOM     10  C   UNL     1      33.313 -15.373 -22.492  0.00  0.00    +0.036 C 
ATOM     11  C   UNL     1      31.926  -9.435 -20.705  0.00  0.00    +0.051 C 
ATOM     12  C   UNL     1      33.000 -13.790 -19.937  0.00  0.00    +0.004 C 
ATOM     13  C   UNL     1      30.568 -11.266 -22.786  0.00  0.00    +0.004 C 
ATOM     14  C   UNL     1      33.006 -15.313 -19.933  0.00  0.00    +0.022 C 
ATOM     15  C   UNL     1      33.790 -15.833 -21.110  0.00  0.00    -0.038 C 
ATOM     16  C   UNL     1      31.929 -16.010 -22.759  0.00  0.00    +0.009 C 
ATOM     17  C   UNL     1      34.234 -15.884 -23.590  0.00  0.00    -0.020 C 
ATOM     18  C   UNL     1      34.865 -16.615 -20.914  0.00  0.00    +0.034 C 
ATOM     19  C   UNL     1      35.305 -16.660 -23.402  0.00  0.00    +0.038 C 
ATOM     20  C   UNL     1      35.686 -17.092 -22.044  0.00  0.00    +0.195 C 
ENDROOT
BRANCH   9  21
ATOM     21  O   UNL     1      31.646 -13.559 -24.292  0.00  0.00    -0.384 OA
ATOM     22  H   UNL     1      30.947 -12.989 -23.935  0.00  0.00    +0.210 HD
ENDBRANCH   9  21
BRANCH   6  24
ATOM     23  O   UNL     1      31.584  -8.574 -24.283  0.00  0.00    -0.246 OA
ATOM     24  C   UNL     1      31.581  -8.547 -23.060  0.00  0.00    +0.354 C 
BRANCH  24  25
ATOM     25  O   UNL     1      30.925  -7.649 -22.272  0.00  0.00    -0.446 OA
BRANCH  25  26
ATOM     26  C   UNL     1      30.593  -6.407 -22.901  0.00  0.00    +0.209 C 
ATOM     27  C   UNL     1      30.531  -5.321 -21.847  0.00  0.00    +0.051 C 
ENDBRANCH  25  26
ENDBRANCH  24  25
ENDBRANCH   6  24
BRANCH   6  28
ATOM     28  O   UNL     1      33.689  -9.165 -22.348  0.00  0.00    -0.443 OA
BRANCH  28  30
ATOM     29  O   UNL     1      33.563  -7.020 -21.517  0.00  0.00    -0.247 OA
ATOM     30  C   UNL     1      33.955  -7.821 -22.355  0.00  0.00    +0.348 C 
BRANCH  30  33
ATOM     31 CL   UNL     1      35.138  -8.984 -24.426  0.00  0.00    -0.085 Cl
ATOM     32 CL   UNL     1      33.874  -6.363 -24.608  0.00  0.00    -0.085 Cl
ATOM     33  C   UNL     1      34.776  -7.479 -23.569  0.00  0.00    +0.257 C 
ENDBRANCH  30  33
ENDBRANCH  28  30
ENDBRANCH   6  28
TORSDOF 7
ENDMDL
MODEL 6
REMARK VINA RESULT:      -2.2      4.275      8.858
REMARK  Name = 9935073
REMARK  7 active torsions:
REMARK  status: ('A' for Active; 'I' for Inactive)
REMARK    1  A    between atoms: C_6  and  C_24
REMARK    2  A    between atoms: C_6  and  O_28
REMARK    3  A    between atoms: C_9  and  O_21
REMARK    4  A    between atoms: C_24  and  O_25
REMARK    5  A    between atoms: O_25  and  C_26
REMARK    6  A    between atoms: O_28  and  C_30
REMARK    7  A    between atoms: C_30  and  C_33
REMARK                            x       y       z     vdW  Elec       q    Type
REMARK                         _______ _______ _______ _____ _____    ______ ____
ROOT
ATOM      1  O   UNL     1      35.661 -17.334 -21.436  0.00  0.00    -0.287 OA
ATOM      2  C   UNL     1      33.786 -23.624 -16.477  0.00  0.00    +0.046 C 
ATOM      3  C   UNL     1      34.932 -22.597 -16.336  0.00  0.00    +0.004 C 
ATOM      4  C   UNL     1      35.655 -22.298 -17.657  0.00  0.00    +0.003 C 
ATOM      5  C   UNL     1      34.617 -21.711 -18.678  0.00  0.00    +0.034 C 
ATOM      6  C   UNL     1      33.350 -23.723 -14.989  0.00  0.00    +0.224 C 
ATOM      7  C   UNL     1      32.749 -23.028 -17.449  0.00  0.00    +0.033 C 
ATOM      8  C   UNL     1      35.741 -23.131 -15.157  0.00  0.00    +0.004 C 
ATOM      9  C   UNL     1      33.354 -22.620 -18.812  0.00  0.00    +0.111 C 
ATOM     10  C   UNL     1      35.297 -21.267 -20.033  0.00  0.00    +0.036 C 
ATOM     11  C   UNL     1      34.680 -23.717 -14.203  0.00  0.00    +0.051 C 
ATOM     12  C   UNL     1      36.820 -21.318 -17.424  0.00  0.00    +0.004 C 
ATOM     13  C   UNL     1      34.267 -25.016 -16.972  0.00  0.00    +0.004 C 
ATOM     14  C   UNL     1      37.486 -20.890 -18.725  0.00  0.00    +0.022 C 
ATOM     15  C   UNL     1      36.459 -20.333 -19.677  0.00  0.00    -0.038 C 
ATOM     16  C   UNL     1      35.863 -22.440 -20.868  0.00  0.00    +0.009 C 
ATOM     17  C   UNL     1      34.281 -20.565 -20.922  0.00  0.00    -0.020 C 
ATOM     18  C   UNL     1      36.569 -19.072 -20.127  0.00  0.00    +0.034 C 
ATOM     19  C   UNL     1      34.383 -19.311 -21.372  0.00  0.00    +0.038 C 
ATOM     20  C   UNL     1      35.548 -18.480 -21.014  0.00  0.00    +0.195 C 
ENDROOT
BRANCH   9  21
ATOM     21  O   UNL     1      33.636 -23.785 -19.574  0.00  0.00    -0.384 OA
ATOM     22  H   UNL     1      34.113 -24.425 -19.024  0.00  0.00    +0.210 HD
ENDBRANCH   9  21
BRANCH   6  24
ATOM     23  O   UNL     1      32.715 -25.699 -13.769  0.00  0.00    -0.246 OA
ATOM     24  C   UNL     1      32.484 -24.904 -14.670  0.00  0.00    +0.354 C 
BRANCH  24  25
ATOM     25  O   UNL     1      31.426 -24.940 -15.529  0.00  0.00    -0.446 OA
BRANCH  25  26
ATOM     26  C   UNL     1      30.294 -25.691 -15.081  0.00  0.00    +0.209 C 
ATOM     27  C   UNL     1      29.047 -25.150 -15.747  0.00  0.00    +0.051 C 
ENDBRANCH  25  26
ENDBRANCH  24  25
ENDBRANCH   6  24
BRANCH   6  28
ATOM     28  O   UNL     1      32.567 -22.597 -14.604  0.00  0.00    -0.443 OA
BRANCH  28  30
ATOM     29  O   UNL     1      32.879 -22.693 -12.323  0.00  0.00    -0.247 OA
ATOM     30  C   UNL     1      32.149 -22.579 -13.299  0.00  0.00    +0.348 C 
BRANCH  30  33
ATOM     31 CL   UNL     1      30.078 -22.176 -14.908  0.00  0.00    -0.085 Cl
ATOM     32 CL   UNL     1      29.925 -23.881 -12.548  0.00  0.00    -0.085 Cl
ATOM     33  C   UNL     1      30.653 -22.428 -13.254  0.00  0.00    +0.257 C 
ENDBRANCH  30  33
ENDBRANCH  28  30
ENDBRANCH   6  28
TORSDOF 7
ENDMDL
MODEL 7
REMARK VINA RESULT:      -2.2      4.119      9.323
REMARK  Name = 9935073
REMARK  7 active torsions:
REMARK  status: ('A' for Active; 'I' for Inactive)
REMARK    1  A    between atoms: C_6  and  C_24
REMARK    2  A    between atoms: C_6  and  O_28
REMARK    3  A    between atoms: C_9  and  O_21
REMARK    4  A    between atoms: C_24  and  O_25
REMARK    5  A    between atoms: O_25  and  C_26
REMARK    6  A    between atoms: O_28  and  C_30
REMARK    7  A    between atoms: C_30  and  C_33
REMARK                            x       y       z     vdW  Elec       q    Type
REMARK                         _______ _______ _______ _____ _____    ______ ____
ROOT
ATOM      1  O   UNL     1      34.345 -17.786 -21.818  0.00  0.00    -0.287 OA
ATOM      2  C   UNL     1      34.494 -23.537 -15.940  0.00  0.00    +0.046 C 
ATOM      3  C   UNL     1      35.469 -22.358 -16.156  0.00  0.00    +0.004 C 
ATOM      4  C   UNL     1      35.862 -22.148 -17.625  0.00  0.00    +0.003 C 
ATOM      5  C   UNL     1      34.565 -21.848 -18.456  0.00  0.00    +0.034 C 
ATOM      6  C   UNL     1      34.379 -23.491 -14.391  0.00  0.00    +0.224 C 
ATOM      7  C   UNL     1      33.205 -23.222 -16.725  0.00  0.00    +0.033 C 
ATOM      8  C   UNL     1      36.567 -22.615 -15.127  0.00  0.00    +0.004 C 
ATOM      9  C   UNL     1      33.460 -22.926 -18.221  0.00  0.00    +0.111 C 
ATOM     10  C   UNL     1      34.888 -21.505 -19.964  0.00  0.00    +0.036 C 
ATOM     11  C   UNL     1      35.819 -23.202 -13.912  0.00  0.00    +0.051 C 
ATOM     12  C   UNL     1      36.881 -20.999 -17.750  0.00  0.00    +0.004 C 
ATOM     13  C   UNL     1      35.082 -24.908 -16.377  0.00  0.00    +0.004 C 
ATOM     14  C   UNL     1      37.203 -20.667 -19.201  0.00  0.00    +0.022 C 
ATOM     15  C   UNL     1      35.935 -20.386 -19.965  0.00  0.00    -0.038 C 
ATOM     16  C   UNL     1      35.457 -22.694 -20.772  0.00  0.00    +0.009 C 
ATOM     17  C   UNL     1      33.619 -21.071 -20.685  0.00  0.00    -0.020 C 
ATOM     18  C   UNL     1      35.754 -19.194 -20.558  0.00  0.00    +0.034 C 
ATOM     19  C   UNL     1      33.432 -19.888 -21.275  0.00  0.00    +0.038 C 
ATOM     20  C   UNL     1      34.498 -18.869 -21.264  0.00  0.00    +0.195 C 
ENDROOT
BRANCH   9  21
ATOM     21  O   UNL     1      33.767 -24.135 -18.899  0.00  0.00    -0.384 OA
ATOM     22  H   UNL     1      33.786 -23.975 -19.855  0.00  0.00    +0.210 HD
ENDBRANCH   9  21
BRANCH   6  24
ATOM     23  O   UNL     1      33.174 -25.575 -14.395  0.00  0.00    -0.246 OA
ATOM     24  C   UNL     1      33.789 -24.722 -13.771  0.00  0.00    +0.354 C 
BRANCH  24  25
ATOM     25  O   UNL     1      34.049 -24.728 -12.433  0.00  0.00    -0.446 OA
BRANCH  25  26
ATOM     26  C   UNL     1      35.401 -25.026 -12.070  0.00  0.00    +0.209 C 
ATOM     27  C   UNL     1      35.690 -24.428 -10.709  0.00  0.00    +0.051 C 
ENDBRANCH  25  26
ENDBRANCH  24  25
ENDBRANCH   6  24
BRANCH   6  28
ATOM     28  O   UNL     1      33.519 -22.437 -13.968  0.00  0.00    -0.443 OA
BRANCH  28  30
ATOM     29  O   UNL     1      32.306 -22.701 -12.027  0.00  0.00    -0.247 OA
ATOM     30  C   UNL     1      32.422 -22.817 -13.240  0.00  0.00    +0.348 C 
BRANCH  30  33
ATOM     31 CL   UNL     1      30.416 -24.553 -13.210  0.00  0.00    -0.085 Cl
ATOM     32 CL   UNL     1      30.392 -22.155 -14.867  0.00  0.00    -0.085 Cl
ATOM     33  C   UNL     1      31.398 -23.429 -14.158  0.00  0.00    +0.257 C 
ENDBRANCH  30  33
ENDBRANCH  28  30
ENDBRANCH   6  28
TORSDOF 7
ENDMDL
MODEL 8
REMARK VINA RESULT:      -2.1      6.232      9.662
REMARK  Name = 9935073
REMARK  7 active torsions:
REMARK  status: ('A' for Active; 'I' for Inactive)
REMARK    1  A    between atoms: C_6  and  C_24
REMARK    2  A    between atoms: C_6  and  O_28
REMARK    3  A    between atoms: C_9  and  O_21
REMARK    4  A    between atoms: C_24  and  O_25
REMARK    5  A    between atoms: O_25  and  C_26
REMARK    6  A    between atoms: O_28  and  C_30
REMARK    7  A    between atoms: C_30  and  C_33
REMARK                            x       y       z     vdW  Elec       q    Type
REMARK                         _______ _______ _______ _____ _____    ______ ____
ROOT
ATOM      1  O   UNL     1      34.404 -15.686 -19.844  0.00  0.00    -0.287 OA
ATOM      2  C   UNL     1      32.709  -8.808 -24.024  0.00  0.00    +0.046 C 
ATOM      3  C   UNL     1      31.897  -9.466 -22.887  0.00  0.00    +0.004 C 
ATOM      4  C   UNL     1      31.789 -10.992 -23.013  0.00  0.00    +0.003 C 
ATOM      5  C   UNL     1      33.234 -11.605 -22.978  0.00  0.00    +0.034 C 
ATOM      6  C   UNL     1      32.554  -7.316 -23.617  0.00  0.00    +0.224 C 
ATOM      7  C   UNL     1      34.139  -9.381 -23.963  0.00  0.00    +0.033 C 
ATOM      8  C   UNL     1      30.617  -8.637 -22.842  0.00  0.00    +0.004 C 
ATOM      9  C   UNL     1      34.179 -10.925 -24.019  0.00  0.00    +0.111 C 
ATOM     10  C   UNL     1      33.213 -13.185 -22.989  0.00  0.00    +0.036 C 
ATOM     11  C   UNL     1      31.083  -7.200 -23.157  0.00  0.00    +0.051 C 
ATOM     12  C   UNL     1      30.915 -11.565 -21.881  0.00  0.00    +0.004 C 
ATOM     13  C   UNL     1      32.088  -9.030 -25.431  0.00  0.00    +0.004 C 
ATOM     14  C   UNL     1      30.884 -13.088 -21.888  0.00  0.00    +0.022 C 
ATOM     15  C   UNL     1      32.287 -13.637 -21.855  0.00  0.00    -0.038 C 
ATOM     16  C   UNL     1      32.692 -13.799 -24.308  0.00  0.00    +0.009 C 
ATOM     17  C   UNL     1      34.622 -13.726 -22.797  0.00  0.00    -0.020 C 
ATOM     18  C   UNL     1      32.675 -14.436 -20.847  0.00  0.00    +0.034 C 
ATOM     19  C   UNL     1      35.016 -14.520 -21.796  0.00  0.00    +0.038 C 
ATOM     20  C   UNL     1      34.059 -14.943 -20.756  0.00  0.00    +0.195 C 
ENDROOT
BRANCH   9  21
ATOM     21  O   UNL     1      33.889 -11.361 -25.340  0.00  0.00    -0.384 OA
ATOM     22  H   UNL     1      32.980 -11.116 -25.569  0.00  0.00    +0.210 HD
ENDBRANCH   9  21
BRANCH   6  24
ATOM     23  O   UNL     1      34.039  -6.202 -25.150  0.00  0.00    -0.246 OA
ATOM     24  C   UNL     1      32.912  -6.335 -24.692  0.00  0.00    +0.354 C 
BRANCH  24  25
ATOM     25  O   UNL     1      31.801  -5.636 -25.060  0.00  0.00    -0.446 OA
BRANCH  25  26
ATOM     26  C   UNL     1      32.018  -4.256 -25.371  0.00  0.00    +0.209 C 
ATOM     27  C   UNL     1      31.252  -3.401 -24.384  0.00  0.00    +0.051 C 
ENDBRANCH  25  26
ENDBRANCH  24  25
ENDBRANCH   6  24
BRANCH   6  28
ATOM     28  O   UNL     1      33.416  -6.983 -22.534  0.00  0.00    -0.443 OA
BRANCH  28  30
ATOM     29  O   UNL     1      32.158  -5.290 -21.606  0.00  0.00    -0.247 OA
ATOM     30  C   UNL     1      32.835  -6.304 -21.495  0.00  0.00    +0.348 C 
BRANCH  30  33
ATOM     31 CL   UNL     1      32.420  -6.072 -18.885  0.00  0.00    -0.085 Cl
ATOM     32 CL   UNL     1      32.616  -8.657 -20.220  0.00  0.00    -0.085 Cl
ATOM     33  C   UNL     1      33.185  -6.979 -20.196  0.00  0.00    +0.257 C 
ENDBRANCH  30  33
ENDBRANCH  28  30
ENDBRANCH   6  28
TORSDOF 7
ENDMDL
MODEL 9
REMARK VINA RESULT:      -2.1      8.643     12.326
REMARK  Name = 9935073
REMARK  7 active torsions:
REMARK  status: ('A' for Active; 'I' for Inactive)
REMARK    1  A    between atoms: C_6  and  C_24
REMARK    2  A    between atoms: C_6  and  O_28
REMARK    3  A    between atoms: C_9  and  O_21
REMARK    4  A    between atoms: C_24  and  O_25
REMARK    5  A    between atoms: O_25  and  C_26
REMARK    6  A    between atoms: O_28  and  C_30
REMARK    7  A    between atoms: C_30  and  C_33
REMARK                            x       y       z     vdW  Elec       q    Type
REMARK                         _______ _______ _______ _____ _____    ______ ____
ROOT
ATOM      1  O   UNL     1      33.498 -14.056 -27.703  0.00  0.00    -0.287 OA
ATOM      2  C   UNL     1      32.219  -7.292 -23.201  0.00  0.00    +0.046 C 
ATOM      3  C   UNL     1      33.290  -7.535 -24.288  0.00  0.00    +0.004 C 
ATOM      4  C   UNL     1      33.954  -8.916 -24.198  0.00  0.00    +0.003 C 
ATOM      5  C   UNL     1      32.849 -10.018 -24.367  0.00  0.00    +0.034 C 
ATOM      6  C   UNL     1      31.831  -5.828 -23.551  0.00  0.00    +0.224 C 
ATOM      7  C   UNL     1      31.116  -8.351 -23.395  0.00  0.00    +0.033 C 
ATOM      8  C   UNL     1      34.167  -6.288 -24.205  0.00  0.00    +0.004 C 
ATOM      9  C   UNL     1      31.654  -9.800 -23.387  0.00  0.00    +0.111 C 
ATOM     10  C   UNL     1      33.460 -11.476 -24.401  0.00  0.00    +0.036 C 
ATOM     11  C   UNL     1      33.177  -5.149 -23.887  0.00  0.00    +0.051 C 
ATOM     12  C   UNL     1      35.050  -9.058 -25.271  0.00  0.00    +0.004 C 
ATOM     13  C   UNL     1      32.787  -7.348 -21.756  0.00  0.00    +0.004 C 
ATOM     14  C   UNL     1      35.649 -10.458 -25.305  0.00  0.00    +0.022 C 
ATOM     15  C   UNL     1      34.559 -11.486 -25.469  0.00  0.00    -0.038 C 
ATOM     16  C   UNL     1      34.087 -11.926 -23.062  0.00  0.00    +0.009 C 
ATOM     17  C   UNL     1      32.372 -12.490 -24.722  0.00  0.00    -0.020 C 
ATOM     18  C   UNL     1      34.564 -12.313 -26.527  0.00  0.00    +0.034 C 
ATOM     19  C   UNL     1      32.370 -13.314 -25.774  0.00  0.00    +0.038 C 
ATOM     20  C   UNL     1      33.480 -13.291 -26.745  0.00  0.00    +0.195 C 
ENDROOT
BRANCH   9  21
ATOM     21  O   UNL     1      32.000 -10.171 -22.061  0.00  0.00    -0.384 OA
ATOM     22  H   UNL     1      32.156  -9.374 -21.532  0.00  0.00    +0.210 HD
ENDBRANCH   9  21
BRANCH   6  24
ATOM     23  O   UNL     1      30.017  -5.526 -21.996  0.00  0.00    -0.246 OA
ATOM     24  C   UNL     1      31.062  -5.114 -22.481  0.00  0.00    +0.354 C 
BRANCH  24  25
ATOM     25  O   UNL     1      31.707  -3.959 -22.150  0.00  0.00    -0.446 OA
BRANCH  25  26
ATOM     26  C   UNL     1      31.007  -2.751 -22.467  0.00  0.00    +0.209 C 
ATOM     27  C   UNL     1      31.965  -1.786 -23.131  0.00  0.00    +0.051 C 
ENDBRANCH  25  26
ENDBRANCH  24  25
ENDBRANCH   6  24
BRANCH   6  28
ATOM     28  O   UNL     1      30.978  -5.778 -24.691  0.00  0.00    -0.443 OA
BRANCH  28  30
ATOM     29  O   UNL     1      29.871  -3.893 -25.419  0.00  0.00    -0.247 OA
ATOM     30  C   UNL     1      30.891  -4.563 -25.318  0.00  0.00    +0.348 C 
BRANCH  30  33
ATOM     31 CL   UNL     1      32.493  -5.169 -27.345  0.00  0.00    -0.085 Cl
ATOM     32 CL   UNL     1      32.271  -2.467 -26.272  0.00  0.00    -0.085 Cl
ATOM     33  C   UNL     1      32.234  -4.197 -25.890  0.00  0.00    +0.257 C 
ENDBRANCH  30  33
ENDBRANCH  28  30
ENDBRANCH   6  28
TORSDOF 7
ENDMDL
