MODEL 1
REMARK VINA RESULT:      -5.8      0.000      0.000
REMARK  Name = 3260017
REMARK  4 active torsions:
REMARK  status: ('A' for Active; 'I' for Inactive)
REMARK    1  A    between atoms: C_2  and  C_4
REMARK    2  A    between atoms: C_2  and  C_7
REMARK    3  A    between atoms: C_4  and  O_5
REMARK    4  A    between atoms: C_7  and  C_10
REMARK                            x       y       z     vdW  Elec       q    Type
REMARK                         _______ _______ _______ _____ _____    ______ ____
ROOT
ATOM      1  O   UNL     1      38.443 -26.928 -14.588  0.00  0.00    -0.284 OA
ATOM      2  C   UNL     1      38.809 -25.772 -14.435  0.00  0.00    +0.259 C 
ENDROOT
BRANCH   2   4
ATOM      3  O   UNL     1      40.938 -24.726 -14.235  0.00  0.00    -0.242 OA
ATOM      4  C   UNL     1      40.196 -25.425 -14.896  0.00  0.00    +0.374 C 
BRANCH   4   5
ATOM      5  O   UNL     1      40.420 -25.944 -16.109  0.00  0.00    -0.475 OA
ATOM      6  H   UNL     1      41.019 -26.658 -16.210  0.00  0.00    +0.295 HD
ENDBRANCH   4   5
ENDBRANCH   2   4
BRANCH   2   7
ATOM      7  C   UNL     1      37.994 -24.655 -13.836  0.00  0.00    +0.190 C 
BRANCH   7  10
ATOM      8  O   UNL     1      37.577 -25.627 -11.730  0.00  0.00    -0.245 OA
ATOM      9  O   UNL     1      38.734 -23.657 -11.834  0.00  0.00    -0.245 OA
ATOM     10  C   UNL     1      38.115 -24.647 -12.316  0.00  0.00    +0.373 C 
ENDBRANCH   7  10
ENDBRANCH   2   7
TORSDOF 4
ENDMDL
MODEL 2
REMARK VINA RESULT:      -5.8      1.807      2.865
REMARK  Name = 3260017
REMARK  4 active torsions:
REMARK  status: ('A' for Active; 'I' for Inactive)
REMARK    1  A    between atoms: C_2  and  C_4
REMARK    2  A    between atoms: C_2  and  C_7
REMARK    3  A    between atoms: C_4  and  O_5
REMARK    4  A    between atoms: C_7  and  C_10
REMARK                            x       y       z     vdW  Elec       q    Type
REMARK                         _______ _______ _______ _____ _____    ______ ____
ROOT
ATOM      1  O   UNL     1      38.835 -24.309 -14.008  0.00  0.00    -0.284 OA
ATOM      2  C   UNL     1      38.884 -25.502 -14.264  0.00  0.00    +0.259 C 
ENDROOT
BRANCH   2   4
ATOM      3  O   UNL     1      41.016 -26.520 -13.974  0.00  0.00    -0.242 OA
ATOM      4  C   UNL     1      40.200 -26.050 -14.740  0.00  0.00    +0.374 C 
BRANCH   4   5
ATOM      5  O   UNL     1      40.317 -25.877 -16.062  0.00  0.00    -0.475 OA
ATOM      6  H   UNL     1      39.591 -25.552 -16.558  0.00  0.00    +0.295 HD
ENDBRANCH   4   5
ENDBRANCH   2   4
BRANCH   2   7
ATOM      7  C   UNL     1      37.747 -26.484 -14.138  0.00  0.00    +0.190 C 
BRANCH   7  10
ATOM      8  O   UNL     1      36.875 -27.355 -16.147  0.00  0.00    -0.245 OA
ATOM      9  O   UNL     1      36.089 -25.352 -15.370  0.00  0.00    -0.245 OA
ATOM     10  C   UNL     1      36.809 -26.389 -15.336  0.00  0.00    +0.373 C 
ENDBRANCH   7  10
ENDBRANCH   2   7
TORSDOF 4
ENDMDL
MODEL 3
REMARK VINA RESULT:      -5.5      1.153      3.623
REMARK  Name = 3260017
REMARK  4 active torsions:
REMARK  status: ('A' for Active; 'I' for Inactive)
REMARK    1  A    between atoms: C_2  and  C_4
REMARK    2  A    between atoms: C_2  and  C_7
REMARK    3  A    between atoms: C_4  and  O_5
REMARK    4  A    between atoms: C_7  and  C_10
REMARK                            x       y       z     vdW  Elec       q    Type
REMARK                         _______ _______ _______ _____ _____    ______ ____
ROOT
ATOM      1  O   UNL     1      38.697 -24.236 -12.410  0.00  0.00    -0.284 OA
ATOM      2  C   UNL     1      38.338 -25.103 -13.192  0.00  0.00    +0.259 C 
ENDROOT
BRANCH   2   4
ATOM      3  O   UNL     1      36.695 -25.904 -11.666  0.00  0.00    -0.242 OA
ATOM      4  C   UNL     1      37.279 -26.058 -12.720  0.00  0.00    +0.374 C 
BRANCH   4   5
ATOM      5  O   UNL     1      37.154 -27.069 -13.589  0.00  0.00    -0.475 OA
ATOM      6  H   UNL     1      36.407 -27.112 -14.153  0.00  0.00    +0.295 HD
ENDBRANCH   4   5
ENDBRANCH   2   4
BRANCH   2   7
ATOM      7  C   UNL     1      38.852 -25.300 -14.595  0.00  0.00    +0.190 C 
BRANCH   7  10
ATOM      8  O   UNL     1      40.564 -26.917 -14.506  0.00  0.00    -0.245 OA
ATOM      9  O   UNL     1      41.130 -24.705 -14.657  0.00  0.00    -0.245 OA
ATOM     10  C   UNL     1      40.328 -25.678 -14.587  0.00  0.00    +0.373 C 
ENDBRANCH   7  10
ENDBRANCH   2   7
TORSDOF 4
ENDMDL
MODEL 4
REMARK VINA RESULT:      -5.5      0.972      3.659
REMARK  Name = 3260017
REMARK  4 active torsions:
REMARK  status: ('A' for Active; 'I' for Inactive)
REMARK    1  A    between atoms: C_2  and  C_4
REMARK    2  A    between atoms: C_2  and  C_7
REMARK    3  A    between atoms: C_4  and  O_5
REMARK    4  A    between atoms: C_7  and  C_10
REMARK                            x       y       z     vdW  Elec       q    Type
REMARK                         _______ _______ _______ _____ _____    ______ ____
ROOT
ATOM      1  O   UNL     1      37.345 -26.245 -12.061  0.00  0.00    -0.284 OA
ATOM      2  C   UNL     1      37.748 -25.194 -12.535  0.00  0.00    +0.259 C 
ENDROOT
BRANCH   2   4
ATOM      3  O   UNL     1      38.673 -23.157 -11.722  0.00  0.00    -0.242 OA
ATOM      4  C   UNL     1      37.811 -24.006 -11.618  0.00  0.00    +0.374 C 
BRANCH   4   5
ATOM      5  O   UNL     1      36.845 -24.087 -10.695  0.00  0.00    -0.475 OA
ATOM      6  H   UNL     1      37.064 -24.060  -9.784  0.00  0.00    +0.295 HD
ENDBRANCH   4   5
ENDBRANCH   2   4
BRANCH   2   7
ATOM      7  C   UNL     1      38.198 -24.977 -13.957  0.00  0.00    +0.190 C 
BRANCH   7  10
ATOM      8  O   UNL     1      39.531 -26.812 -14.596  0.00  0.00    -0.245 OA
ATOM      9  O   UNL     1      40.551 -24.863 -13.969  0.00  0.00    -0.245 OA
ATOM     10  C   UNL     1      39.562 -25.613 -14.200  0.00  0.00    +0.373 C 
ENDBRANCH   7  10
ENDBRANCH   2   7
TORSDOF 4
ENDMDL
MODEL 5
REMARK VINA RESULT:      -5.4      1.830      2.240
REMARK  Name = 3260017
REMARK  4 active torsions:
REMARK  status: ('A' for Active; 'I' for Inactive)
REMARK    1  A    between atoms: C_2  and  C_4
REMARK    2  A    between atoms: C_2  and  C_7
REMARK    3  A    between atoms: C_4  and  O_5
REMARK    4  A    between atoms: C_7  and  C_10
REMARK                            x       y       z     vdW  Elec       q    Type
REMARK                         _______ _______ _______ _____ _____    ______ ____
ROOT
ATOM      1  O   UNL     1      38.507 -26.999 -14.664  0.00  0.00    -0.284 OA
ATOM      2  C   UNL     1      38.914 -25.889 -14.357  0.00  0.00    +0.259 C 
ENDROOT
BRANCH   2   4
ATOM      3  O   UNL     1      40.882 -24.550 -14.354  0.00  0.00    -0.242 OA
ATOM      4  C   UNL     1      40.398 -25.663 -14.406  0.00  0.00    +0.374 C 
BRANCH   4   5
ATOM      5  O   UNL     1      41.034 -26.829 -14.568  0.00  0.00    -0.475 OA
ATOM      6  H   UNL     1      41.345 -27.079 -15.416  0.00  0.00    +0.295 HD
ENDBRANCH   4   5
ENDBRANCH   2   4
BRANCH   2   7
ATOM      7  C   UNL     1      38.063 -24.717 -13.940  0.00  0.00    +0.190 C 
BRANCH   7  10
ATOM      8  O   UNL     1      36.373 -24.557 -15.576  0.00  0.00    -0.245 OA
ATOM      9  O   UNL     1      38.082 -23.035 -15.591  0.00  0.00    -0.245 OA
ATOM     10  C   UNL     1      37.443 -24.034 -15.155  0.00  0.00    +0.373 C 
ENDBRANCH   7  10
ENDBRANCH   2   7
TORSDOF 4
ENDMDL
MODEL 6
REMARK VINA RESULT:      -5.4      1.953      3.432
REMARK  Name = 3260017
REMARK  4 active torsions:
REMARK  status: ('A' for Active; 'I' for Inactive)
REMARK    1  A    between atoms: C_2  and  C_4
REMARK    2  A    between atoms: C_2  and  C_7
REMARK    3  A    between atoms: C_4  and  O_5
REMARK    4  A    between atoms: C_7  and  C_10
REMARK                            x       y       z     vdW  Elec       q    Type
REMARK                         _______ _______ _______ _____ _____    ______ ____
ROOT
ATOM      1  O   UNL     1      38.018 -23.500 -15.093  0.00  0.00    -0.284 OA
ATOM      2  C   UNL     1      37.993 -24.628 -14.625  0.00  0.00    +0.259 C 
ENDROOT
BRANCH   2   4
ATOM      3  O   UNL     1      35.718 -25.316 -14.761  0.00  0.00    -0.242 OA
ATOM      4  C   UNL     1      36.874 -25.529 -15.064  0.00  0.00    +0.374 C 
BRANCH   4   5
ATOM      5  O   UNL     1      37.366 -26.568 -15.751  0.00  0.00    -0.475 OA
ATOM      6  H   UNL     1      38.248 -26.544 -16.068  0.00  0.00    +0.295 HD
ENDBRANCH   4   5
ENDBRANCH   2   4
BRANCH   2   7
ATOM      7  C   UNL     1      38.987 -25.207 -13.651  0.00  0.00    +0.190 C 
BRANCH   7  10
ATOM      8  O   UNL     1      40.305 -26.865 -14.685  0.00  0.00    -0.245 OA
ATOM      9  O   UNL     1      41.113 -24.729 -14.546  0.00  0.00    -0.245 OA
ATOM     10  C   UNL     1      40.260 -25.643 -14.367  0.00  0.00    +0.373 C 
ENDBRANCH   7  10
ENDBRANCH   2   7
TORSDOF 4
ENDMDL
MODEL 7
REMARK VINA RESULT:      -5.3      1.742      2.634
REMARK  Name = 3260017
REMARK  4 active torsions:
REMARK  status: ('A' for Active; 'I' for Inactive)
REMARK    1  A    between atoms: C_2  and  C_4
REMARK    2  A    between atoms: C_2  and  C_7
REMARK    3  A    between atoms: C_4  and  O_5
REMARK    4  A    between atoms: C_7  and  C_10
REMARK                            x       y       z     vdW  Elec       q    Type
REMARK                         _______ _______ _______ _____ _____    ______ ____
ROOT
ATOM      1  O   UNL     1      38.820 -24.385 -14.614  0.00  0.00    -0.284 OA
ATOM      2  C   UNL     1      37.884 -24.775 -13.932  0.00  0.00    +0.259 C 
ENDROOT
BRANCH   2   4
ATOM      3  O   UNL     1      38.258 -27.041 -14.559  0.00  0.00    -0.242 OA
ATOM      4  C   UNL     1      37.681 -26.260 -13.829  0.00  0.00    +0.374 C 
BRANCH   4   5
ATOM      5  O   UNL     1      36.766 -26.534 -12.891  0.00  0.00    -0.475 OA
ATOM      6  H   UNL     1      36.598 -25.916 -12.207  0.00  0.00    +0.295 HD
ENDBRANCH   4   5
ENDBRANCH   2   4
BRANCH   2   7
ATOM      7  C   UNL     1      36.915 -23.905 -13.173  0.00  0.00    +0.190 C 
BRANCH   7  10
ATOM      8  O   UNL     1      37.231 -24.223 -10.860  0.00  0.00    -0.245 OA
ATOM      9  O   UNL     1      38.187 -22.408 -11.872  0.00  0.00    -0.245 OA
ATOM     10  C   UNL     1      37.505 -23.470 -11.836  0.00  0.00    +0.373 C 
ENDBRANCH   7  10
ENDBRANCH   2   7
TORSDOF 4
ENDMDL
MODEL 8
REMARK VINA RESULT:      -5.3      2.292      4.819
REMARK  Name = 3260017
REMARK  4 active torsions:
REMARK  status: ('A' for Active; 'I' for Inactive)
REMARK    1  A    between atoms: C_2  and  C_4
REMARK    2  A    between atoms: C_2  and  C_7
REMARK    3  A    between atoms: C_4  and  O_5
REMARK    4  A    between atoms: C_7  and  C_10
REMARK                            x       y       z     vdW  Elec       q    Type
REMARK                         _______ _______ _______ _____ _____    ______ ____
ROOT
ATOM      1  O   UNL     1      37.323 -22.873 -11.140  0.00  0.00    -0.284 OA
ATOM      2  C   UNL     1      36.949 -23.978 -11.502  0.00  0.00    +0.259 C 
ENDROOT
BRANCH   2   4
ATOM      3  O   UNL     1      35.420 -24.488  -9.750  0.00  0.00    -0.242 OA
ATOM      4  C   UNL     1      35.649 -24.481 -10.943  0.00  0.00    +0.374 C 
BRANCH   4   5
ATOM      5  O   UNL     1      34.872 -24.941 -11.932  0.00  0.00    -0.475 OA
ATOM      6  H   UNL     1      34.033 -24.552 -12.088  0.00  0.00    +0.295 HD
ENDBRANCH   4   5
ENDBRANCH   2   4
BRANCH   2   7
ATOM      7  C   UNL     1      37.667 -24.885 -12.469  0.00  0.00    +0.190 C 
BRANCH   7  10
ATOM      8  O   UNL     1      38.763 -24.164 -14.427  0.00  0.00    -0.245 OA
ATOM      9  O   UNL     1      36.481 -24.051 -14.326  0.00  0.00    -0.245 OA
ATOM     10  C   UNL     1      37.634 -24.312 -13.881  0.00  0.00    +0.373 C 
ENDBRANCH   7  10
ENDBRANCH   2   7
TORSDOF 4
ENDMDL
MODEL 9
REMARK VINA RESULT:      -5.3      1.971      2.630
REMARK  Name = 3260017
REMARK  4 active torsions:
REMARK  status: ('A' for Active; 'I' for Inactive)
REMARK    1  A    between atoms: C_2  and  C_4
REMARK    2  A    between atoms: C_2  and  C_7
REMARK    3  A    between atoms: C_4  and  O_5
REMARK    4  A    between atoms: C_7  and  C_10
REMARK                            x       y       z     vdW  Elec       q    Type
REMARK                         _______ _______ _______ _____ _____    ______ ____
ROOT
ATOM      1  O   UNL     1      36.985 -26.435 -12.145  0.00  0.00    -0.284 OA
ATOM      2  C   UNL     1      37.661 -25.701 -12.850  0.00  0.00    +0.259 C 
ENDROOT
BRANCH   2   4
ATOM      3  O   UNL     1      38.329 -27.208 -14.568  0.00  0.00    -0.242 OA
ATOM      4  C   UNL     1      37.870 -26.122 -14.277  0.00  0.00    +0.374 C 
BRANCH   4   5
ATOM      5  O   UNL     1      37.536 -25.123 -15.103  0.00  0.00    -0.475 OA
ATOM      6  H   UNL     1      38.194 -24.706 -15.625  0.00  0.00    +0.295 HD
ENDBRANCH   4   5
ENDBRANCH   2   4
BRANCH   2   7
ATOM      7  C   UNL     1      38.299 -24.403 -12.426  0.00  0.00    +0.190 C 
BRANCH   7  10
ATOM      8  O   UNL     1      37.387 -22.748 -11.018  0.00  0.00    -0.245 OA
ATOM      9  O   UNL     1      36.346 -23.217 -13.000  0.00  0.00    -0.245 OA
ATOM     10  C   UNL     1      37.240 -23.350 -12.118  0.00  0.00    +0.373 C 
ENDBRANCH   7  10
ENDBRANCH   2   7
TORSDOF 4
ENDMDL
