MODEL 1
REMARK VINA RESULT:      -9.7      0.000      0.000
REMARK  Name = 54678486
REMARK  5 active torsions:
REMARK  status: ('A' for Active; 'I' for Inactive)
REMARK    1  A    between atoms: C_3  and  C_14
REMARK    2  A    between atoms: C_4  and  O_12
REMARK    3  A    between atoms: C_14  and  C_15
REMARK    4  A    between atoms: C_14  and  C_21
REMARK    5  A    between atoms: C_21  and  C_23
REMARK                            x       y       z     vdW  Elec       q    Type
REMARK                         _______ _______ _______ _____ _____    ______ ____
ROOT
ATOM      1  O   UNL     1      36.472 -20.037 -20.107  0.00  0.00    -0.421 OA
ATOM      2  O   UNL     1      36.826 -18.391 -21.637  0.00  0.00    -0.245 OA
ATOM      3  C   UNL     1      34.588 -19.181 -21.440  0.00  0.00    +0.092 A 
ATOM      4  C   UNL     1      33.752 -20.029 -20.812  0.00  0.00    +0.139 A 
ATOM      5  C   UNL     1      34.242 -20.945 -19.779  0.00  0.00    +0.068 A 
ATOM      6  C   UNL     1      36.038 -19.156 -21.088  0.00  0.00    +0.345 A 
ATOM      7  C   UNL     1      35.595 -20.922 -19.457  0.00  0.00    +0.152 A 
ATOM      8  C   UNL     1      33.421 -21.851 -19.095  0.00  0.00    +0.006 C 
ATOM      9  C   UNL     1      36.144 -21.761 -18.488  0.00  0.00    +0.038 C 
ATOM     10  C   UNL     1      33.956 -22.700 -18.120  0.00  0.00    +0.000 C 
ATOM     11  C   UNL     1      35.315 -22.655 -17.817  0.00  0.00    +0.003 C 
ENDROOT
BRANCH   4  12
ATOM     12  O   UNL     1      32.398 -20.121 -21.061  0.00  0.00    -0.506 OA
ATOM     13  H   UNL     1      31.783 -19.794 -20.434  0.00  0.00    +0.292 HD
ENDBRANCH   4  12
BRANCH   3  14
ATOM     14  C   UNL     1      34.201 -18.207 -22.519  0.00  0.00    +0.061 C 
BRANCH  14  15
ATOM     15  C   UNL     1      33.959 -16.819 -21.944  0.00  0.00    -0.018 C 
ATOM     16  C   UNL     1      33.014 -16.638 -20.934  0.00  0.00    -0.004 C 
ATOM     17  C   UNL     1      34.683 -15.729 -22.426  0.00  0.00    -0.004 C 
ATOM     18  C   UNL     1      32.792 -15.366 -20.406  0.00  0.00    -0.000 C 
ATOM     19  C   UNL     1      34.460 -14.457 -21.898  0.00  0.00    -0.000 C 
ATOM     20  C   UNL     1      33.515 -14.275 -20.888  0.00  0.00    -0.000 C 
ENDBRANCH  14  15
BRANCH  14  21
ATOM     21  C   UNL     1      35.247 -18.206 -23.651  0.00  0.00    +0.074 C 
BRANCH  21  23
ATOM     22  O   UNL     1      34.922 -17.105 -25.784  0.00  0.00    -0.296 OA
ATOM     23  C   UNL     1      34.646 -18.045 -25.041  0.00  0.00    +0.152 C 
ATOM     24  C   UNL     1      33.640 -19.089 -25.454  0.00  0.00    +0.072 C 
ENDBRANCH  21  23
ENDBRANCH  14  21
ENDBRANCH   3  14
TORSDOF 5
ENDMDL
MODEL 2
REMARK VINA RESULT:      -9.5      1.190      2.370
REMARK  Name = 54678486
REMARK  5 active torsions:
REMARK  status: ('A' for Active; 'I' for Inactive)
REMARK    1  A    between atoms: C_3  and  C_14
REMARK    2  A    between atoms: C_4  and  O_12
REMARK    3  A    between atoms: C_14  and  C_15
REMARK    4  A    between atoms: C_14  and  C_21
REMARK    5  A    between atoms: C_21  and  C_23
REMARK                            x       y       z     vdW  Elec       q    Type
REMARK                         _______ _______ _______ _____ _____    ______ ____
ROOT
ATOM      1  O   UNL     1      33.199 -21.556 -19.410  0.00  0.00    -0.421 OA
ATOM      2  O   UNL     1      32.049 -20.475 -21.048  0.00  0.00    -0.245 OA
ATOM      3  C   UNL     1      34.344 -19.887 -20.812  0.00  0.00    +0.092 A 
ATOM      4  C   UNL     1      35.491 -20.103 -20.141  0.00  0.00    +0.139 A 
ATOM      5  C   UNL     1      35.553 -21.074 -19.046  0.00  0.00    +0.068 A 
ATOM      6  C   UNL     1      33.109 -20.644 -20.452  0.00  0.00    +0.345 A 
ATOM      7  C   UNL     1      34.399 -21.774 -18.711  0.00  0.00    +0.152 A 
ATOM      8  C   UNL     1      36.716 -21.339 -18.310  0.00  0.00    +0.006 C 
ATOM      9  C   UNL     1      34.370 -22.715 -17.682  0.00  0.00    +0.038 C 
ATOM     10  C   UNL     1      36.705 -22.279 -17.275  0.00  0.00    +0.000 C 
ATOM     11  C   UNL     1      35.534 -22.967 -16.961  0.00  0.00    +0.003 C 
ENDROOT
BRANCH   4  12
ATOM     12  O   UNL     1      36.684 -19.460 -20.403  0.00  0.00    -0.506 OA
ATOM     13  H   UNL     1      36.757 -18.895 -21.146  0.00  0.00    +0.292 HD
ENDBRANCH   4  12
BRANCH   3  14
ATOM     14  C   UNL     1      34.160 -18.911 -21.942  0.00  0.00    +0.061 C 
BRANCH  14  15
ATOM     15  C   UNL     1      33.919 -17.504 -21.415  0.00  0.00    -0.018 C 
ATOM     16  C   UNL     1      32.636 -17.112 -21.032  0.00  0.00    -0.004 C 
ATOM     17  C   UNL     1      34.982 -16.606 -21.316  0.00  0.00    -0.004 C 
ATOM     18  C   UNL     1      32.416 -15.822 -20.549  0.00  0.00    -0.000 C 
ATOM     19  C   UNL     1      34.760 -15.315 -20.834  0.00  0.00    -0.000 C 
ATOM     20  C   UNL     1      33.477 -14.923 -20.451  0.00  0.00    -0.000 C 
ENDBRANCH  14  15
BRANCH  14  21
ATOM     21  C   UNL     1      35.347 -18.984 -22.922  0.00  0.00    +0.074 C 
BRANCH  21  23
ATOM     22  O   UNL     1      34.909 -20.185 -24.980  0.00  0.00    -0.296 OA
ATOM     23  C   UNL     1      34.930 -19.111 -24.381  0.00  0.00    +0.152 C 
ATOM     24  C   UNL     1      34.580 -17.825 -25.085  0.00  0.00    +0.072 C 
ENDBRANCH  21  23
ENDBRANCH  14  21
ENDBRANCH   3  14
TORSDOF 5
ENDMDL
MODEL 3
REMARK VINA RESULT:      -9.4      4.600      8.979
REMARK  Name = 54678486
REMARK  5 active torsions:
REMARK  status: ('A' for Active; 'I' for Inactive)
REMARK    1  A    between atoms: C_3  and  C_14
REMARK    2  A    between atoms: C_4  and  O_12
REMARK    3  A    between atoms: C_14  and  C_15
REMARK    4  A    between atoms: C_14  and  C_21
REMARK    5  A    between atoms: C_21  and  C_23
REMARK                            x       y       z     vdW  Elec       q    Type
REMARK                         _______ _______ _______ _____ _____    ______ ____
ROOT
ATOM      1  O   UNL     1      31.959 -10.817 -22.267  0.00  0.00    -0.421 OA
ATOM      2  O   UNL     1      31.717 -13.076 -22.381  0.00  0.00    -0.245 OA
ATOM      3  C   UNL     1      33.466 -12.138 -23.695  0.00  0.00    +0.092 A 
ATOM      4  C   UNL     1      34.111 -11.015 -24.063  0.00  0.00    +0.139 A 
ATOM      5  C   UNL     1      33.703  -9.707 -23.543  0.00  0.00    +0.068 A 
ATOM      6  C   UNL     1      32.322 -12.070 -22.740  0.00  0.00    +0.345 A 
ATOM      7  C   UNL     1      32.633  -9.648 -22.657  0.00  0.00    +0.152 A 
ATOM      8  C   UNL     1      34.333  -8.505 -23.892  0.00  0.00    +0.006 C 
ATOM      9  C   UNL     1      32.180  -8.444 -22.116  0.00  0.00    +0.038 C 
ATOM     10  C   UNL     1      33.891  -7.289 -23.359  0.00  0.00    +0.000 C 
ATOM     11  C   UNL     1      32.817  -7.259 -22.472  0.00  0.00    +0.003 C 
ENDROOT
BRANCH   4  12
ATOM     12  O   UNL     1      35.182 -10.976 -24.932  0.00  0.00    -0.506 OA
ATOM     13  H   UNL     1      35.570 -11.774 -25.232  0.00  0.00    +0.292 HD
ENDBRANCH   4  12
BRANCH   3  14
ATOM     14  C   UNL     1      33.788 -13.529 -24.171  0.00  0.00    +0.061 C 
BRANCH  14  15
ATOM     15  C   UNL     1      34.109 -14.447 -23.001  0.00  0.00    -0.018 C 
ATOM     16  C   UNL     1      34.431 -13.905 -21.757  0.00  0.00    -0.004 C 
ATOM     17  C   UNL     1      34.080 -15.831 -23.174  0.00  0.00    -0.004 C 
ATOM     18  C   UNL     1      34.724 -14.747 -20.684  0.00  0.00    -0.000 C 
ATOM     19  C   UNL     1      34.375 -16.673 -22.101  0.00  0.00    -0.000 C 
ATOM     20  C   UNL     1      34.697 -16.131 -20.856  0.00  0.00    -0.000 C 
ENDBRANCH  14  15
BRANCH  14  21
ATOM     21  C   UNL     1      32.654 -14.074 -25.061  0.00  0.00    +0.074 C 
BRANCH  21  23
ATOM     22  O   UNL     1      33.241 -15.609 -26.842  0.00  0.00    -0.296 OA
ATOM     23  C   UNL     1      33.104 -14.445 -26.468  0.00  0.00    +0.152 C 
ATOM     24  C   UNL     1      33.427 -13.294 -27.386  0.00  0.00    +0.072 C 
ENDBRANCH  21  23
ENDBRANCH  14  21
ENDBRANCH   3  14
TORSDOF 5
ENDMDL
MODEL 4
REMARK VINA RESULT:      -9.0      5.315     10.427
REMARK  Name = 54678486
REMARK  5 active torsions:
REMARK  status: ('A' for Active; 'I' for Inactive)
REMARK    1  A    between atoms: C_3  and  C_14
REMARK    2  A    between atoms: C_4  and  O_12
REMARK    3  A    between atoms: C_14  and  C_15
REMARK    4  A    between atoms: C_14  and  C_21
REMARK    5  A    between atoms: C_21  and  C_23
REMARK                            x       y       z     vdW  Elec       q    Type
REMARK                         _______ _______ _______ _____ _____    ______ ____
ROOT
ATOM      1  O   UNL     1      33.834 -23.549 -16.487  0.00  0.00    -0.421 OA
ATOM      2  O   UNL     1      33.813 -24.655 -14.500  0.00  0.00    -0.245 OA
ATOM      3  C   UNL     1      35.863 -23.599 -15.094  0.00  0.00    +0.092 A 
ATOM      4  C   UNL     1      36.515 -22.855 -16.007  0.00  0.00    +0.139 A 
ATOM      5  C   UNL     1      35.848 -22.412 -17.234  0.00  0.00    +0.068 A 
ATOM      6  C   UNL     1      34.438 -23.983 -15.315  0.00  0.00    +0.345 A 
ATOM      7  C   UNL     1      34.521 -22.775 -17.438  0.00  0.00    +0.152 A 
ATOM      8  C   UNL     1      36.476 -21.640 -18.221  0.00  0.00    +0.006 C 
ATOM      9  C   UNL     1      33.812 -22.397 -18.579  0.00  0.00    +0.038 C 
ATOM     10  C   UNL     1      35.779 -21.251 -19.371  0.00  0.00    +0.000 C 
ATOM     11  C   UNL     1      34.450 -21.629 -19.549  0.00  0.00    +0.003 C 
ENDROOT
BRANCH   4  12
ATOM     12  O   UNL     1      37.827 -22.445 -15.890  0.00  0.00    -0.506 OA
ATOM     13  H   UNL     1      38.347 -22.314 -16.659  0.00  0.00    +0.292 HD
ENDBRANCH   4  12
BRANCH   3  14
ATOM     14  C   UNL     1      36.447 -24.119 -13.808  0.00  0.00    +0.061 C 
BRANCH  14  15
ATOM     15  C   UNL     1      37.707 -24.930 -14.068  0.00  0.00    -0.018 C 
ATOM     16  C   UNL     1      38.925 -24.520 -13.524  0.00  0.00    -0.004 C 
ATOM     17  C   UNL     1      37.645 -26.084 -14.849  0.00  0.00    -0.004 C 
ATOM     18  C   UNL     1      40.080 -25.265 -13.762  0.00  0.00    -0.000 C 
ATOM     19  C   UNL     1      38.801 -26.827 -15.087  0.00  0.00    -0.000 C 
ATOM     20  C   UNL     1      40.019 -26.418 -14.544  0.00  0.00    -0.000 C 
ENDBRANCH  14  15
BRANCH  14  21
ATOM     21  C   UNL     1      36.677 -22.966 -12.811  0.00  0.00    +0.074 C 
BRANCH  21  23
ATOM     22  O   UNL     1      37.089 -22.818 -10.428  0.00  0.00    -0.296 OA
ATOM     23  C   UNL     1      36.498 -23.371 -11.354  0.00  0.00    +0.152 C 
ATOM     24  C   UNL     1      35.578 -24.537 -11.098  0.00  0.00    +0.072 C 
ENDBRANCH  21  23
ENDBRANCH  14  21
ENDBRANCH   3  14
TORSDOF 5
ENDMDL
MODEL 5
REMARK VINA RESULT:      -8.8      4.382      9.414
REMARK  Name = 54678486
REMARK  5 active torsions:
REMARK  status: ('A' for Active; 'I' for Inactive)
REMARK    1  A    between atoms: C_3  and  C_14
REMARK    2  A    between atoms: C_4  and  O_12
REMARK    3  A    between atoms: C_14  and  C_15
REMARK    4  A    between atoms: C_14  and  C_21
REMARK    5  A    between atoms: C_21  and  C_23
REMARK                            x       y       z     vdW  Elec       q    Type
REMARK                         _______ _______ _______ _____ _____    ______ ____
ROOT
ATOM      1  O   UNL     1      32.931 -22.452 -18.422  0.00  0.00    -0.421 OA
ATOM      2  O   UNL     1      31.788 -23.632 -16.849  0.00  0.00    -0.245 OA
ATOM      3  C   UNL     1      34.115 -23.328 -16.449  0.00  0.00    +0.092 A 
ATOM      4  C   UNL     1      35.267 -22.794 -16.897  0.00  0.00    +0.139 A 
ATOM      5  C   UNL     1      35.313 -22.048 -18.157  0.00  0.00    +0.068 A 
ATOM      6  C   UNL     1      32.855 -23.163 -17.232  0.00  0.00    +0.345 A 
ATOM      7  C   UNL     1      34.137 -21.900 -18.886  0.00  0.00    +0.152 A 
ATOM      8  C   UNL     1      36.482 -21.474 -18.674  0.00  0.00    +0.006 C 
ATOM      9  C   UNL     1      34.093 -21.206 -20.095  0.00  0.00    +0.038 C 
ATOM     10  C   UNL     1      36.455 -20.775 -19.886  0.00  0.00    +0.000 C 
ATOM     11  C   UNL     1      35.263 -20.641 -20.595  0.00  0.00    +0.003 C 
ENDROOT
BRANCH   4  12
ATOM     12  O   UNL     1      36.478 -22.886 -16.243  0.00  0.00    -0.506 OA
ATOM     13  H   UNL     1      36.623 -22.400 -15.456  0.00  0.00    +0.292 HD
ENDBRANCH   4  12
BRANCH   3  14
ATOM     14  C   UNL     1      33.951 -24.120 -15.181  0.00  0.00    +0.061 C 
BRANCH  14  15
ATOM     15  C   UNL     1      35.248 -24.817 -14.798  0.00  0.00    -0.018 C 
ATOM     16  C   UNL     1      35.704 -25.902 -15.547  0.00  0.00    -0.004 C 
ATOM     17  C   UNL     1      35.981 -24.370 -13.699  0.00  0.00    -0.004 C 
ATOM     18  C   UNL     1      36.893 -26.541 -15.196  0.00  0.00    -0.000 C 
ATOM     19  C   UNL     1      37.170 -25.010 -13.348  0.00  0.00    -0.000 C 
ATOM     20  C   UNL     1      37.627 -26.095 -14.097  0.00  0.00    -0.000 C 
ENDBRANCH  14  15
BRANCH  14  21
ATOM     21  C   UNL     1      33.400 -23.228 -14.051  0.00  0.00    +0.074 C 
BRANCH  21  23
ATOM     22  O   UNL     1      31.446 -23.104 -12.623  0.00  0.00    -0.296 OA
ATOM     23  C   UNL     1      32.112 -23.752 -13.429  0.00  0.00    +0.152 C 
ATOM     24  C   UNL     1      31.707 -25.150 -13.821  0.00  0.00    +0.072 C 
ENDBRANCH  21  23
ENDBRANCH  14  21
ENDBRANCH   3  14
TORSDOF 5
ENDMDL
MODEL 6
REMARK VINA RESULT:      -8.8      3.846      6.194
REMARK  Name = 54678486
REMARK  5 active torsions:
REMARK  status: ('A' for Active; 'I' for Inactive)
REMARK    1  A    between atoms: C_3  and  C_14
REMARK    2  A    between atoms: C_4  and  O_12
REMARK    3  A    between atoms: C_14  and  C_15
REMARK    4  A    between atoms: C_14  and  C_21
REMARK    5  A    between atoms: C_21  and  C_23
REMARK                            x       y       z     vdW  Elec       q    Type
REMARK                         _______ _______ _______ _____ _____    ______ ____
ROOT
ATOM      1  O   UNL     1      33.434 -16.169 -25.474  0.00  0.00    -0.421 OA
ATOM      2  O   UNL     1      32.410 -14.275 -26.207  0.00  0.00    -0.245 OA
ATOM      3  C   UNL     1      33.649 -14.084 -24.183  0.00  0.00    +0.092 A 
ATOM      4  C   UNL     1      34.421 -14.718 -23.279  0.00  0.00    +0.139 A 
ATOM      5  C   UNL     1      34.745 -16.139 -23.428  0.00  0.00    +0.068 A 
ATOM      6  C   UNL     1      33.112 -14.824 -25.362  0.00  0.00    +0.345 A 
ATOM      7  C   UNL     1      34.238 -16.825 -24.527  0.00  0.00    +0.152 A 
ATOM      8  C   UNL     1      35.539 -16.851 -22.519  0.00  0.00    +0.006 C 
ATOM      9  C   UNL     1      34.496 -18.179 -24.743  0.00  0.00    +0.038 C 
ATOM     10  C   UNL     1      35.808 -18.210 -22.722  0.00  0.00    +0.000 C 
ATOM     11  C   UNL     1      35.287 -18.872 -23.832  0.00  0.00    +0.003 C 
ENDROOT
BRANCH   4  12
ATOM     12  O   UNL     1      34.970 -14.121 -22.163  0.00  0.00    -0.506 OA
ATOM     13  H   UNL     1      35.217 -13.218 -22.190  0.00  0.00    +0.292 HD
ENDBRANCH   4  12
BRANCH   3  14
ATOM     14  C   UNL     1      33.244 -12.637 -24.127  0.00  0.00    +0.061 C 
BRANCH  14  15
ATOM     15  C   UNL     1      32.549 -12.313 -22.814  0.00  0.00    -0.018 C 
ATOM     16  C   UNL     1      32.283 -13.329 -21.895  0.00  0.00    -0.004 C 
ATOM     17  C   UNL     1      32.177 -10.999 -22.528  0.00  0.00    -0.004 C 
ATOM     18  C   UNL     1      31.646 -13.031 -20.691  0.00  0.00    -0.000 C 
ATOM     19  C   UNL     1      31.539 -10.702 -21.323  0.00  0.00    -0.000 C 
ATOM     20  C   UNL     1      31.274 -11.718 -20.404  0.00  0.00    -0.000 C 
ENDBRANCH  14  15
BRANCH  14  21
ATOM     21  C   UNL     1      34.455 -11.723 -24.401  0.00  0.00    +0.074 C 
BRANCH  21  23
ATOM     22  O   UNL     1      33.897 -11.783 -26.758  0.00  0.00    -0.296 OA
ATOM     23  C   UNL     1      34.594 -11.312 -25.860  0.00  0.00    +0.152 C 
ATOM     24  C   UNL     1      35.681 -10.314 -26.168  0.00  0.00    +0.072 C 
ENDBRANCH  21  23
ENDBRANCH  14  21
ENDBRANCH   3  14
TORSDOF 5
ENDMDL
MODEL 7
REMARK VINA RESULT:      -8.7      4.580      8.903
REMARK  Name = 54678486
REMARK  5 active torsions:
REMARK  status: ('A' for Active; 'I' for Inactive)
REMARK    1  A    between atoms: C_3  and  C_14
REMARK    2  A    between atoms: C_4  and  O_12
REMARK    3  A    between atoms: C_14  and  C_15
REMARK    4  A    between atoms: C_14  and  C_21
REMARK    5  A    between atoms: C_21  and  C_23
REMARK                            x       y       z     vdW  Elec       q    Type
REMARK                         _______ _______ _______ _____ _____    ______ ____
ROOT
ATOM      1  O   UNL     1      37.103 -21.739 -16.973  0.00  0.00    -0.421 OA
ATOM      2  O   UNL     1      37.458 -22.710 -14.947  0.00  0.00    -0.245 OA
ATOM      3  C   UNL     1      35.419 -23.273 -16.039  0.00  0.00    +0.092 A 
ATOM      4  C   UNL     1      34.649 -23.099 -17.130  0.00  0.00    +0.139 A 
ATOM      5  C   UNL     1      35.073 -22.217 -18.220  0.00  0.00    +0.068 A 
ATOM      6  C   UNL     1      36.730 -22.568 -15.925  0.00  0.00    +0.345 A 
ATOM      7  C   UNL     1      36.293 -21.559 -18.107  0.00  0.00    +0.152 A 
ATOM      8  C   UNL     1      34.313 -21.995 -19.377  0.00  0.00    +0.006 C 
ATOM      9  C   UNL     1      36.771 -20.701 -19.098  0.00  0.00    +0.038 C 
ATOM     10  C   UNL     1      34.778 -21.137 -20.380  0.00  0.00    +0.000 C 
ATOM     11  C   UNL     1      36.005 -20.491 -20.241  0.00  0.00    +0.003 C 
ENDROOT
BRANCH   4  12
ATOM     12  O   UNL     1      33.428 -23.710 -17.332  0.00  0.00    -0.506 OA
ATOM     13  H   UNL     1      33.269 -24.188 -18.122  0.00  0.00    +0.292 HD
ENDBRANCH   4  12
BRANCH   3  14
ATOM     14  C   UNL     1      35.083 -24.141 -14.858  0.00  0.00    +0.061 C 
BRANCH  14  15
ATOM     15  C   UNL     1      33.618 -24.000 -14.474  0.00  0.00    -0.018 C 
ATOM     16  C   UNL     1      32.887 -25.122 -14.084  0.00  0.00    -0.004 C 
ATOM     17  C   UNL     1      33.006 -22.746 -14.511  0.00  0.00    -0.004 C 
ATOM     18  C   UNL     1      31.543 -24.991 -13.732  0.00  0.00    -0.000 C 
ATOM     19  C   UNL     1      31.662 -22.617 -14.159  0.00  0.00    -0.000 C 
ATOM     20  C   UNL     1      30.931 -23.739 -13.769  0.00  0.00    -0.000 C 
ENDBRANCH  14  15
BRANCH  14  21
ATOM     21  C   UNL     1      35.488 -25.604 -15.127  0.00  0.00    +0.074 C 
BRANCH  21  23
ATOM     22  O   UNL     1      37.740 -26.496 -15.183  0.00  0.00    -0.296 OA
ATOM     23  C   UNL     1      36.833 -25.987 -14.525  0.00  0.00    +0.152 C 
ATOM     24  C   UNL     1      36.989 -25.753 -13.045  0.00  0.00    +0.072 C 
ENDBRANCH  21  23
ENDBRANCH  14  21
ENDBRANCH   3  14
TORSDOF 5
ENDMDL
MODEL 8
REMARK VINA RESULT:      -8.7      5.065      9.034
REMARK  Name = 54678486
REMARK  5 active torsions:
REMARK  status: ('A' for Active; 'I' for Inactive)
REMARK    1  A    between atoms: C_3  and  C_14
REMARK    2  A    between atoms: C_4  and  O_12
REMARK    3  A    between atoms: C_14  and  C_15
REMARK    4  A    between atoms: C_14  and  C_21
REMARK    5  A    between atoms: C_21  and  C_23
REMARK                            x       y       z     vdW  Elec       q    Type
REMARK                         _______ _______ _______ _____ _____    ______ ____
ROOT
ATOM      1  O   UNL     1      34.243  -9.518 -24.430  0.00  0.00    -0.421 OA
ATOM      2  O   UNL     1      35.043 -11.366 -25.487  0.00  0.00    -0.245 OA
ATOM      3  C   UNL     1      33.452 -11.750 -23.758  0.00  0.00    +0.092 A 
ATOM      4  C   UNL     1      32.652 -11.192 -22.829  0.00  0.00    +0.139 A 
ATOM      5  C   UNL     1      32.607  -9.739 -22.648  0.00  0.00    +0.068 A 
ATOM      6  C   UNL     1      34.307 -10.890 -24.627  0.00  0.00    +0.345 A 
ATOM      7  C   UNL     1      33.408  -8.942 -23.458  0.00  0.00    +0.152 A 
ATOM      8  C   UNL     1      31.797  -9.102 -21.697  0.00  0.00    +0.006 C 
ATOM      9  C   UNL     1      33.426  -7.551 -23.350  0.00  0.00    +0.038 C 
ATOM     10  C   UNL     1      31.803  -7.709 -21.575  0.00  0.00    +0.000 C 
ATOM     11  C   UNL     1      32.616  -6.934 -22.401  0.00  0.00    +0.003 C 
ENDROOT
BRANCH   4  12
ATOM     12  O   UNL     1      31.821 -11.900 -21.985  0.00  0.00    -0.506 OA
ATOM     13  H   UNL     1      31.662 -11.587 -21.116  0.00  0.00    +0.292 HD
ENDBRANCH   4  12
BRANCH   3  14
ATOM     14  C   UNL     1      33.589 -13.224 -24.025  0.00  0.00    +0.061 C 
BRANCH  14  15
ATOM     15  C   UNL     1      33.578 -14.019 -22.728  0.00  0.00    -0.018 C 
ATOM     16  C   UNL     1      34.719 -14.060 -21.926  0.00  0.00    -0.004 C 
ATOM     17  C   UNL     1      32.427 -14.706 -22.342  0.00  0.00    -0.004 C 
ATOM     18  C   UNL     1      34.708 -14.789 -20.737  0.00  0.00    -0.000 C 
ATOM     19  C   UNL     1      32.418 -15.436 -21.153  0.00  0.00    -0.000 C 
ATOM     20  C   UNL     1      33.559 -15.477 -20.350  0.00  0.00    -0.000 C 
ENDBRANCH  14  15
BRANCH  14  21
ATOM     21  C   UNL     1      32.513 -13.697 -25.022  0.00  0.00    +0.074 C 
BRANCH  21  23
ATOM     22  O   UNL     1      33.464 -15.435 -26.417  0.00  0.00    -0.296 OA
ATOM     23  C   UNL     1      33.083 -14.270 -26.313  0.00  0.00    +0.152 C 
ATOM     24  C   UNL     1      33.205 -13.310 -27.468  0.00  0.00    +0.072 C 
ENDBRANCH  21  23
ENDBRANCH  14  21
ENDBRANCH   3  14
TORSDOF 5
ENDMDL
MODEL 9
REMARK VINA RESULT:      -8.6      4.912      9.538
REMARK  Name = 54678486
REMARK  5 active torsions:
REMARK  status: ('A' for Active; 'I' for Inactive)
REMARK    1  A    between atoms: C_3  and  C_14
REMARK    2  A    between atoms: C_4  and  O_12
REMARK    3  A    between atoms: C_14  and  C_15
REMARK    4  A    between atoms: C_14  and  C_21
REMARK    5  A    between atoms: C_21  and  C_23
REMARK                            x       y       z     vdW  Elec       q    Type
REMARK                         _______ _______ _______ _____ _____    ______ ____
ROOT
ATOM      1  O   UNL     1      31.650  -9.947 -22.159  0.00  0.00    -0.421 OA
ATOM      2  O   UNL     1      31.059 -12.017 -21.424  0.00  0.00    -0.245 OA
ATOM      3  C   UNL     1      32.962 -11.911 -22.850  0.00  0.00    +0.092 A 
ATOM      4  C   UNL     1      33.783 -11.117 -23.564  0.00  0.00    +0.139 A 
ATOM      5  C   UNL     1      33.574  -9.668 -23.616  0.00  0.00    +0.068 A 
ATOM      6  C   UNL     1      31.822 -11.322 -22.089  0.00  0.00    +0.345 A 
ATOM      7  C   UNL     1      32.508  -9.124 -22.908  0.00  0.00    +0.152 A 
ATOM      8  C   UNL     1      34.393  -8.793 -24.344  0.00  0.00    +0.006 C 
ATOM      9  C   UNL     1      32.237  -7.756 -22.905  0.00  0.00    +0.038 C 
ATOM     10  C   UNL     1      34.135  -7.418 -24.351  0.00  0.00    +0.000 C 
ATOM     11  C   UNL     1      33.059  -6.900 -23.632  0.00  0.00    +0.003 C 
ENDROOT
BRANCH   4  12
ATOM     12  O   UNL     1      34.866 -11.565 -24.293  0.00  0.00    -0.506 OA
ATOM     13  H   UNL     1      34.734 -12.138 -25.022  0.00  0.00    +0.292 HD
ENDBRANCH   4  12
BRANCH   3  14
ATOM     14  C   UNL     1      33.072 -13.407 -22.734  0.00  0.00    +0.061 C 
BRANCH  14  15
ATOM     15  C   UNL     1      33.100 -14.062 -24.106  0.00  0.00    -0.018 C 
ATOM     16  C   UNL     1      33.766 -15.275 -24.287  0.00  0.00    -0.004 C 
ATOM     17  C   UNL     1      32.458 -13.451 -25.183  0.00  0.00    -0.004 C 
ATOM     18  C   UNL     1      33.791 -15.875 -25.546  0.00  0.00    -0.000 C 
ATOM     19  C   UNL     1      32.484 -14.052 -26.442  0.00  0.00    -0.000 C 
ATOM     20  C   UNL     1      33.150 -15.265 -26.623  0.00  0.00    -0.000 C 
ENDBRANCH  14  15
BRANCH  14  21
ATOM     21  C   UNL     1      34.284 -13.796 -21.865  0.00  0.00    +0.074 C 
BRANCH  21  23
ATOM     22  O   UNL     1      34.835 -15.437 -20.170  0.00  0.00    -0.296 OA
ATOM     23  C   UNL     1      33.966 -14.838 -20.801  0.00  0.00    +0.152 C 
ATOM     24  C   UNL     1      32.505 -15.140 -20.585  0.00  0.00    +0.072 C 
ENDBRANCH  21  23
ENDBRANCH  14  21
ENDBRANCH   3  14
TORSDOF 5
ENDMDL
