MODEL 1
REMARK VINA RESULT:      -8.0      0.000      0.000
REMARK  Name = 6253
REMARK  5 active torsions:
REMARK  status: ('A' for Active; 'I' for Inactive)
REMARK    1  A    between atoms: C2*_2  and  O2*_16
REMARK    2  A    between atoms: C3*_3  and  O3*_18
REMARK    3  A    between atoms: C1*_4  and  N1_7
REMARK    4  A    between atoms: C4*_5  and  C5*_20
REMARK    5  A    between atoms: C5*_20  and  O5*_21
REMARK                            x       y       z     vdW  Elec       q    Type
REMARK                         _______ _______ _______ _____ _____    ______ ____
ROOT
ATOM      1  O4* C   A   1      38.041 -23.925 -13.791  0.00  0.00    -0.332 OA
ATOM      2  C2* C   A   1      36.628 -25.708 -14.438  0.00  0.00    +0.188 C 
ATOM      3  C3* C   A   1      37.500 -26.201 -13.302  0.00  0.00    +0.171 C 
ATOM      4  C1* C   A   1      36.713 -24.200 -14.257  0.00  0.00    +0.236 C 
ATOM      5  C4* C   A   1      38.573 -25.119 -13.181  0.00  0.00    +0.175 C 
ENDROOT
BRANCH   4   7
ATOM      6  O2  C   A   1      34.247 -24.108 -15.618  0.00  0.00    -0.193 OA
ATOM      7  N1  C   A   1      36.453 -23.450 -15.449  0.00  0.00    -0.178 N 
ATOM      8  N3  C   A   1      35.002 -22.701 -17.231  0.00  0.00    -0.306 NA
ATOM      9  N4  C   A   1      35.782 -21.261 -18.882  0.00  0.00    -0.332 N 
ATOM     10  C6  C   A   1      37.480 -22.698 -16.005  0.00  0.00    +0.083 C 
ATOM     11  C2  C   A   1      35.181 -23.450 -16.081  0.00  0.00    +0.276 C 
ATOM     12  C5  C   A   1      37.327 -21.971 -17.110  0.00  0.00    +0.065 C 
ATOM     13  C4  C   A   1      35.981 -21.999 -17.739  0.00  0.00    +0.193 C 
ATOM     14  H41 C   A   1      34.900 -21.261 -19.320  0.00  0.00    +0.145 HD
ATOM     15  H42 C   A   1      36.521 -20.734 -19.263  0.00  0.00    +0.145 HD
ENDBRANCH   4   7
BRANCH   2  16
ATOM     16  O2* C   A   1      37.215 -26.115 -15.669  0.00  0.00    -0.378 OA
ATOM     17  H2* C   A   1      36.818 -26.952 -15.955  0.00  0.00    +0.211 HD
ENDBRANCH   2  16
BRANCH   3  18
ATOM     18  O3* C   A   1      36.737 -26.215 -12.097  0.00  0.00    -0.379 OA
ATOM     19  H3* C   A   1      35.801 -26.350 -12.308  0.00  0.00    +0.211 HD
ENDBRANCH   3  18
BRANCH   5  20
ATOM     20  C5* C   A   1      39.870 -25.470 -13.898  0.00  0.00    +0.169 C 
BRANCH  20  21
ATOM     21  O5* C   A   1      39.741 -26.763 -14.464  0.00  0.00    -0.379 OA
ATOM     22  H5* C   A   1      39.190 -27.314 -13.887  0.00  0.00    +0.211 HD
ENDBRANCH  20  21
ENDBRANCH   5  20
TORSDOF 5
ENDMDL
MODEL 2
REMARK VINA RESULT:      -7.2      2.630      4.141
REMARK  Name = 6253
REMARK  5 active torsions:
REMARK  status: ('A' for Active; 'I' for Inactive)
REMARK    1  A    between atoms: C2*_2  and  O2*_16
REMARK    2  A    between atoms: C3*_3  and  O3*_18
REMARK    3  A    between atoms: C1*_4  and  N1_7
REMARK    4  A    between atoms: C4*_5  and  C5*_20
REMARK    5  A    between atoms: C5*_20  and  O5*_21
REMARK                            x       y       z     vdW  Elec       q    Type
REMARK                         _______ _______ _______ _____ _____    ______ ____
ROOT
ATOM      1  O4* C   A   1      34.974 -25.010 -14.500  0.00  0.00    -0.332 OA
ATOM      2  C2* C   A   1      35.991 -23.099 -15.454  0.00  0.00    +0.188 C 
ATOM      3  C3* C   A   1      37.030 -23.796 -14.601  0.00  0.00    +0.171 C 
ATOM      4  C1* C   A   1      34.993 -24.221 -15.697  0.00  0.00    +0.236 C 
ATOM      5  C4* C   A   1      36.210 -24.799 -13.788  0.00  0.00    +0.175 C 
ENDROOT
BRANCH   4   7
ATOM      6  O2  C   A   1      34.132 -23.270 -18.206  0.00  0.00    -0.193 OA
ATOM      7  N1  C   A   1      33.667 -23.772 -16.001  0.00  0.00    -0.178 N 
ATOM      8  N3  C   A   1      32.004 -22.887 -17.516  0.00  0.00    -0.306 NA
ATOM      9  N4  C   A   1      29.826 -22.494 -16.803  0.00  0.00    -0.332 N 
ATOM     10  C6  C   A   1      32.706 -23.793 -15.000  0.00  0.00    +0.083 C 
ATOM     11  C2  C   A   1      33.305 -23.305 -17.294  0.00  0.00    +0.276 C 
ATOM     12  C5  C   A   1      31.450 -23.394 -15.194  0.00  0.00    +0.065 C 
ATOM     13  C4  C   A   1      31.113 -22.914 -16.560  0.00  0.00    +0.193 C 
ATOM     14  H41 C   A   1      29.574 -22.172 -17.698  0.00  0.00    +0.145 HD
ATOM     15  H42 C   A   1      29.157 -22.516 -16.081  0.00  0.00    +0.145 HD
ENDBRANCH   4   7
BRANCH   2  16
ATOM     16  O2* C   A   1      35.411 -22.047 -14.692  0.00  0.00    -0.378 OA
ATOM     17  H2* C   A   1      35.447 -22.273 -13.750  0.00  0.00    +0.211 HD
ENDBRANCH   2  16
BRANCH   3  18
ATOM     18  O3* C   A   1      37.921 -24.523 -15.445  0.00  0.00    -0.379 OA
ATOM     19  H3* C   A   1      38.059 -24.032 -16.270  0.00  0.00    +0.211 HD
ENDBRANCH   3  18
BRANCH   5  20
ATOM     20  C5* C   A   1      35.865 -24.305 -12.390  0.00  0.00    +0.169 C 
BRANCH  20  21
ATOM     21  O5* C   A   1      34.668 -24.937 -11.967  0.00  0.00    -0.379 OA
ATOM     22  H5* C   A   1      33.980 -24.807 -12.637  0.00  0.00    +0.211 HD
ENDBRANCH  20  21
ENDBRANCH   5  20
TORSDOF 5
ENDMDL
MODEL 3
REMARK VINA RESULT:      -7.2      1.175      1.721
REMARK  Name = 6253
REMARK  5 active torsions:
REMARK  status: ('A' for Active; 'I' for Inactive)
REMARK    1  A    between atoms: C2*_2  and  O2*_16
REMARK    2  A    between atoms: C3*_3  and  O3*_18
REMARK    3  A    between atoms: C1*_4  and  N1_7
REMARK    4  A    between atoms: C4*_5  and  C5*_20
REMARK    5  A    between atoms: C5*_20  and  O5*_21
REMARK                            x       y       z     vdW  Elec       q    Type
REMARK                         _______ _______ _______ _____ _____    ______ ____
ROOT
ATOM      1  O4* C   A   1      37.769 -23.851 -14.006  0.00  0.00    -0.332 OA
ATOM      2  C2* C   A   1      36.357 -25.708 -14.402  0.00  0.00    +0.188 C 
ATOM      3  C3* C   A   1      37.339 -26.099 -13.318  0.00  0.00    +0.171 C 
ATOM      4  C1* C   A   1      36.414 -24.189 -14.331  0.00  0.00    +0.236 C 
ATOM      5  C4* C   A   1      38.387 -24.987 -13.366  0.00  0.00    +0.175 C 
ENDROOT
BRANCH   4   7
ATOM      6  O2  C   A   1      38.079 -22.522 -15.877  0.00  0.00    -0.193 OA
ATOM      7  N1  C   A   1      36.030 -23.530 -15.544  0.00  0.00    -0.178 N 
ATOM      8  N3  C   A   1      36.487 -22.098 -17.437  0.00  0.00    -0.306 NA
ATOM      9  N4  C   A   1      34.850 -21.665 -19.031  0.00  0.00    -0.332 N 
ATOM     10  C6  C   A   1      34.738 -23.706 -16.022  0.00  0.00    +0.083 C 
ATOM     11  C2  C   A   1      36.927 -22.703 -16.272  0.00  0.00    +0.276 C 
ATOM     12  C5  C   A   1      34.297 -23.133 -17.140  0.00  0.00    +0.065 C 
ATOM     13  C4  C   A   1      35.267 -22.276 -17.871  0.00  0.00    +0.193 C 
ATOM     14  H41 C   A   1      35.471 -21.093 -19.536  0.00  0.00    +0.145 HD
ATOM     15  H42 C   A   1      33.930 -21.801 -19.356  0.00  0.00    +0.145 HD
ENDBRANCH   4   7
BRANCH   2  16
ATOM     16  O2* C   A   1      36.846 -26.186 -15.650  0.00  0.00    -0.378 OA
ATOM     17  H2* C   A   1      36.573 -25.581 -16.357  0.00  0.00    +0.211 HD
ENDBRANCH   2  16
BRANCH   3  18
ATOM     18  O3* C   A   1      36.686 -26.047 -12.051  0.00  0.00    -0.379 OA
ATOM     19  H3* C   A   1      36.547 -26.948 -11.721  0.00  0.00    +0.211 HD
ENDBRANCH   3  18
BRANCH   5  20
ATOM     20  C5* C   A   1      39.626 -25.357 -14.170  0.00  0.00    +0.169 C 
BRANCH  20  21
ATOM     21  O5* C   A   1      39.556 -24.718 -15.434  0.00  0.00    -0.379 OA
ATOM     22  H5* C   A   1      39.514 -25.388 -16.133  0.00  0.00    +0.211 HD
ENDBRANCH  20  21
ENDBRANCH   5  20
TORSDOF 5
ENDMDL
MODEL 4
REMARK VINA RESULT:      -7.1      2.338      3.687
REMARK  Name = 6253
REMARK  5 active torsions:
REMARK  status: ('A' for Active; 'I' for Inactive)
REMARK    1  A    between atoms: C2*_2  and  O2*_16
REMARK    2  A    between atoms: C3*_3  and  O3*_18
REMARK    3  A    between atoms: C1*_4  and  N1_7
REMARK    4  A    between atoms: C4*_5  and  C5*_20
REMARK    5  A    between atoms: C5*_20  and  O5*_21
REMARK                            x       y       z     vdW  Elec       q    Type
REMARK                         _______ _______ _______ _____ _____    ______ ____
ROOT
ATOM      1  O4* C   A   1      36.109 -25.655 -14.759  0.00  0.00    -0.332 OA
ATOM      2  C2* C   A   1      36.696 -23.374 -14.532  0.00  0.00    +0.188 C 
ATOM      3  C3* C   A   1      37.923 -24.200 -14.205  0.00  0.00    +0.171 C 
ATOM      4  C1* C   A   1      35.867 -24.365 -15.336  0.00  0.00    +0.236 C 
ATOM      5  C4* C   A   1      37.370 -25.618 -14.059  0.00  0.00    +0.175 C 
ENDROOT
BRANCH   4   7
ATOM      6  O2  C   A   1      34.461 -23.054 -17.396  0.00  0.00    -0.193 OA
ATOM      7  N1  C   A   1      34.461 -24.091 -15.334  0.00  0.00    -0.178 N 
ATOM      8  N3  C   A   1      32.456 -23.193 -16.342  0.00  0.00    -0.306 NA
ATOM      9  N4  C   A   1      30.404 -23.338 -15.256  0.00  0.00    -0.332 N 
ATOM     10  C6  C   A   1      33.701 -24.490 -14.242  0.00  0.00    +0.083 C 
ATOM     11  C2  C   A   1      33.819 -23.424 -16.412  0.00  0.00    +0.276 C 
ATOM     12  C5  C   A   1      32.390 -24.277 -14.157  0.00  0.00    +0.065 C 
ATOM     13  C4  C   A   1      31.758 -23.577 -15.306  0.00  0.00    +0.193 C 
ATOM     14  H41 C   A   1      29.959 -22.877 -16.004  0.00  0.00    +0.145 HD
ATOM     15  H42 C   A   1      29.881 -23.628 -14.474  0.00  0.00    +0.145 HD
ENDBRANCH   4   7
BRANCH   2  16
ATOM     16  O2* C   A   1      36.048 -23.025 -13.315  0.00  0.00    -0.378 OA
ATOM     17  H2* C   A   1      35.102 -23.230 -13.382  0.00  0.00    +0.211 HD
ENDBRANCH   2  16
BRANCH   3  18
ATOM     18  O3* C   A   1      38.815 -24.177 -15.317  0.00  0.00    -0.379 OA
ATOM     19  H3* C   A   1      38.317 -23.991 -16.128  0.00  0.00    +0.211 HD
ENDBRANCH   3  18
BRANCH   5  20
ATOM     20  C5* C   A   1      37.113 -26.021 -12.614  0.00  0.00    +0.169 C 
BRANCH  20  21
ATOM     21  O5* C   A   1      37.768 -25.098 -11.761  0.00  0.00    -0.379 OA
ATOM     22  H5* C   A   1      37.110 -24.532 -11.330  0.00  0.00    +0.211 HD
ENDBRANCH  20  21
ENDBRANCH   5  20
TORSDOF 5
ENDMDL
MODEL 5
REMARK VINA RESULT:      -7.1      2.202      2.441
REMARK  Name = 6253
REMARK  5 active torsions:
REMARK  status: ('A' for Active; 'I' for Inactive)
REMARK    1  A    between atoms: C2*_2  and  O2*_16
REMARK    2  A    between atoms: C3*_3  and  O3*_18
REMARK    3  A    between atoms: C1*_4  and  N1_7
REMARK    4  A    between atoms: C4*_5  and  C5*_20
REMARK    5  A    between atoms: C5*_20  and  O5*_21
REMARK                            x       y       z     vdW  Elec       q    Type
REMARK                         _______ _______ _______ _____ _____    ______ ____
ROOT
ATOM      1  O4* C   A   1      37.441 -23.481 -13.966  0.00  0.00    -0.332 OA
ATOM      2  C2* C   A   1      36.428 -25.393 -13.010  0.00  0.00    +0.188 C 
ATOM      3  C3* C   A   1      37.881 -25.380 -12.583  0.00  0.00    +0.171 C 
ATOM      4  C1* C   A   1      36.209 -23.937 -13.392  0.00  0.00    +0.236 C 
ATOM      5  C4* C   A   1      38.511 -24.325 -13.494  0.00  0.00    +0.175 C 
ENDROOT
BRANCH   4   7
ATOM      6  O2  C   A   1      33.467 -24.209 -12.799  0.00  0.00    -0.193 OA
ATOM      7  N1  C   A   1      35.137 -23.728 -14.319  0.00  0.00    -0.178 N 
ATOM      8  N3  C   A   1      32.790 -23.664 -14.895  0.00  0.00    -0.306 NA
ATOM      9  N4  C   A   1      32.102 -23.107 -17.046  0.00  0.00    -0.332 N 
ATOM     10  C6  C   A   1      35.440 -23.361 -15.623  0.00  0.00    +0.083 C 
ATOM     11  C2  C   A   1      33.774 -23.883 -13.947  0.00  0.00    +0.276 C 
ATOM     12  C5  C   A   1      34.508 -23.147 -16.549  0.00  0.00    +0.065 C 
ATOM     13  C4  C   A   1      33.096 -23.320 -16.118  0.00  0.00    +0.193 C 
ATOM     14  H41 C   A   1      31.158 -23.214 -16.788  0.00  0.00    +0.145 HD
ATOM     15  H42 C   A   1      32.336 -22.847 -17.967  0.00  0.00    +0.145 HD
ENDBRANCH   4   7
BRANCH   2  16
ATOM     16  O2* C   A   1      36.295 -26.249 -14.138  0.00  0.00    -0.378 OA
ATOM     17  H2* C   A   1      35.844 -27.065 -13.873  0.00  0.00    +0.211 HD
ENDBRANCH   2  16
BRANCH   3  18
ATOM     18  O3* C   A   1      37.971 -24.922 -11.236  0.00  0.00    -0.379 OA
ATOM     19  H3* C   A   1      37.086 -24.909 -10.838  0.00  0.00    +0.211 HD
ENDBRANCH   3  18
BRANCH   5  20
ATOM     20  C5* C   A   1      39.210 -24.916 -14.710  0.00  0.00    +0.169 C 
BRANCH  20  21
ATOM     21  O5* C   A   1      39.092 -24.004 -15.790  0.00  0.00    -0.379 OA
ATOM     22  H5* C   A   1      38.203 -23.617 -15.790  0.00  0.00    +0.211 HD
ENDBRANCH  20  21
ENDBRANCH   5  20
TORSDOF 5
ENDMDL
MODEL 6
REMARK VINA RESULT:      -7.0      1.917      2.178
REMARK  Name = 6253
REMARK  5 active torsions:
REMARK  status: ('A' for Active; 'I' for Inactive)
REMARK    1  A    between atoms: C2*_2  and  O2*_16
REMARK    2  A    between atoms: C3*_3  and  O3*_18
REMARK    3  A    between atoms: C1*_4  and  N1_7
REMARK    4  A    between atoms: C4*_5  and  C5*_20
REMARK    5  A    between atoms: C5*_20  and  O5*_21
REMARK                            x       y       z     vdW  Elec       q    Type
REMARK                         _______ _______ _______ _____ _____    ______ ____
ROOT
ATOM      1  O4* C   A   1      36.410 -23.112 -14.585  0.00  0.00    -0.332 OA
ATOM      2  C2* C   A   1      35.248 -25.172 -14.636  0.00  0.00    +0.188 C 
ATOM      3  C3* C   A   1      36.326 -25.277 -13.578  0.00  0.00    +0.171 C 
ATOM      4  C1* C   A   1      35.100 -23.664 -14.772  0.00  0.00    +0.236 C 
ATOM      5  C4* C   A   1      37.208 -24.057 -13.843  0.00  0.00    +0.175 C 
ENDROOT
BRANCH   4   7
ATOM      6  O2  C   A   1      32.388 -23.788 -15.526  0.00  0.00    -0.193 OA
ATOM      7  N1  C   A   1      34.571 -23.237 -16.033  0.00  0.00    -0.178 N 
ATOM      8  N3  C   A   1      32.747 -22.897 -17.582  0.00  0.00    -0.306 NA
ATOM      9  N4  C   A   1      33.121 -21.985 -19.688  0.00  0.00    -0.332 N 
ATOM     10  C6  C   A   1      35.440 -22.716 -16.983  0.00  0.00    +0.083 C 
ATOM     11  C2  C   A   1      33.188 -23.329 -16.343  0.00  0.00    +0.276 C 
ATOM     12  C5  C   A   1      35.035 -22.295 -18.179  0.00  0.00    +0.065 C 
ATOM     13  C4  C   A   1      33.580 -22.409 -18.463  0.00  0.00    +0.193 C 
ATOM     14  H41 C   A   1      32.162 -22.048 -19.903  0.00  0.00    +0.145 HD
ATOM     15  H42 C   A   1      33.751 -21.618 -20.350  0.00  0.00    +0.145 HD
ENDBRANCH   4   7
BRANCH   2  16
ATOM     16  O2* C   A   1      35.737 -25.754 -15.839  0.00  0.00    -0.378 OA
ATOM     17  H2* C   A   1      35.988 -25.051 -16.459  0.00  0.00    +0.211 HD
ENDBRANCH   2  16
BRANCH   3  18
ATOM     18  O3* C   A   1      35.734 -25.132 -12.288  0.00  0.00    -0.379 OA
ATOM     19  H3* C   A   1      34.792 -24.921 -12.386  0.00  0.00    +0.211 HD
ENDBRANCH   3  18
BRANCH   5  20
ATOM     20  C5* C   A   1      38.446 -24.374 -14.672  0.00  0.00    +0.169 C 
BRANCH  20  21
ATOM     21  O5* C   A   1      38.515 -23.461 -15.753  0.00  0.00    -0.379 OA
ATOM     22  H5* C   A   1      39.153 -22.761 -15.546  0.00  0.00    +0.211 HD
ENDBRANCH  20  21
ENDBRANCH   5  20
TORSDOF 5
ENDMDL
MODEL 7
REMARK VINA RESULT:      -7.0      3.550      6.158
REMARK  Name = 6253
REMARK  5 active torsions:
REMARK  status: ('A' for Active; 'I' for Inactive)
REMARK    1  A    between atoms: C2*_2  and  O2*_16
REMARK    2  A    between atoms: C3*_3  and  O3*_18
REMARK    3  A    between atoms: C1*_4  and  N1_7
REMARK    4  A    between atoms: C4*_5  and  C5*_20
REMARK    5  A    between atoms: C5*_20  and  O5*_21
REMARK                            x       y       z     vdW  Elec       q    Type
REMARK                         _______ _______ _______ _____ _____    ______ ____
ROOT
ATOM      1  O4* C   A   1      30.885 -24.101 -16.063  0.00  0.00    -0.332 OA
ATOM      2  C2* C   A   1      31.995 -23.303 -14.133  0.00  0.00    +0.188 C 
ATOM      3  C3* C   A   1      30.601 -23.726 -13.720  0.00  0.00    +0.171 C 
ATOM      4  C1* C   A   1      32.173 -24.069 -15.435  0.00  0.00    +0.236 C 
ATOM      5  C4* C   A   1      29.873 -23.908 -15.052  0.00  0.00    +0.175 C 
ENDROOT
BRANCH   4   7
ATOM      6  O2  C   A   1      34.949 -23.924 -14.972  0.00  0.00    -0.193 OA
ATOM      7  N1  C   A   1      33.132 -23.492 -16.329  0.00  0.00    -0.178 N 
ATOM      8  N3  C   A   1      35.390 -22.882 -16.940  0.00  0.00    -0.306 NA
ATOM      9  N4  C   A   1      35.836 -21.813 -18.956  0.00  0.00    -0.332 N 
ATOM     10  C6  C   A   1      32.690 -22.950 -17.529  0.00  0.00    +0.083 C 
ATOM     11  C2  C   A   1      34.520 -23.455 -16.028  0.00  0.00    +0.276 C 
ATOM     12  C5  C   A   1      33.510 -22.395 -18.418  0.00  0.00    +0.065 C 
ATOM     13  C4  C   A   1      34.954 -22.378 -18.064  0.00  0.00    +0.193 C 
ATOM     14  H41 C   A   1      36.798 -21.788 -18.749  0.00  0.00    +0.145 HD
ATOM     15  H42 C   A   1      35.504 -21.434 -19.803  0.00  0.00    +0.145 HD
ENDBRANCH   4   7
BRANCH   2  16
ATOM     16  O2* C   A   1      31.995 -21.898 -14.355  0.00  0.00    -0.378 OA
ATOM     17  H2* C   A   1      32.813 -21.643 -14.809  0.00  0.00    +0.211 HD
ENDBRANCH   2  16
BRANCH   3  18
ATOM     18  O3* C   A   1      30.667 -24.992 -13.067  0.00  0.00    -0.379 OA
ATOM     19  H3* C   A   1      31.529 -25.401 -13.242  0.00  0.00    +0.211 HD
ENDBRANCH   3  18
BRANCH   5  20
ATOM     20  C5* C   A   1      29.037 -22.700 -15.455  0.00  0.00    +0.169 C 
BRANCH  20  21
ATOM     21  O5* C   A   1      29.277 -22.418 -16.823  0.00  0.00    -0.379 OA
ATOM     22  H5* C   A   1      29.508 -21.482 -16.924  0.00  0.00    +0.211 HD
ENDBRANCH  20  21
ENDBRANCH   5  20
TORSDOF 5
ENDMDL
MODEL 8
REMARK VINA RESULT:      -7.0      2.352      3.573
REMARK  Name = 6253
REMARK  5 active torsions:
REMARK  status: ('A' for Active; 'I' for Inactive)
REMARK    1  A    between atoms: C2*_2  and  O2*_16
REMARK    2  A    between atoms: C3*_3  and  O3*_18
REMARK    3  A    between atoms: C1*_4  and  N1_7
REMARK    4  A    between atoms: C4*_5  and  C5*_20
REMARK    5  A    between atoms: C5*_20  and  O5*_21
REMARK                            x       y       z     vdW  Elec       q    Type
REMARK                         _______ _______ _______ _____ _____    ______ ____
ROOT
ATOM      1  O4* C   A   1      36.079 -24.516 -15.816  0.00  0.00    -0.332 OA
ATOM      2  C2* C   A   1      35.541 -23.891 -13.599  0.00  0.00    +0.188 C 
ATOM      3  C3* C   A   1      36.905 -24.550 -13.573  0.00  0.00    +0.171 C 
ATOM      4  C1* C   A   1      35.424 -23.488 -15.061  0.00  0.00    +0.236 C 
ATOM      5  C4* C   A   1      37.014 -25.198 -14.954  0.00  0.00    +0.175 C 
ENDROOT
BRANCH   4   7
ATOM      6  O2  C   A   1      34.657 -23.065 -17.739  0.00  0.00    -0.193 OA
ATOM      7  N1  C   A   1      34.076 -23.335 -15.522  0.00  0.00    -0.178 N 
ATOM      8  N3  C   A   1      32.439 -22.985 -17.266  0.00  0.00    -0.306 NA
ATOM      9  N4  C   A   1      30.168 -22.902 -16.773  0.00  0.00    -0.332 N 
ATOM     10  C6  C   A   1      33.041 -23.393 -14.598  0.00  0.00    +0.083 C 
ATOM     11  C2  C   A   1      33.765 -23.125 -16.892  0.00  0.00    +0.276 C 
ATOM     12  C5  C   A   1      31.761 -23.261 -14.938  0.00  0.00    +0.065 C 
ATOM     13  C4  C   A   1      31.479 -23.043 -16.381  0.00  0.00    +0.193 C 
ATOM     14  H41 C   A   1      29.952 -22.757 -17.723  0.00  0.00    +0.145 HD
ATOM     15  H42 C   A   1      29.447 -22.946 -16.105  0.00  0.00    +0.145 HD
ENDBRANCH   4   7
BRANCH   2  16
ATOM     16  O2* C   A   1      34.562 -24.862 -13.250  0.00  0.00    -0.378 OA
ATOM     17  H2* C   A   1      34.753 -25.210 -12.365  0.00  0.00    +0.211 HD
ENDBRANCH   2  16
BRANCH   3  18
ATOM     18  O3* C   A   1      37.910 -23.544 -13.467  0.00  0.00    -0.379 OA
ATOM     19  H3* C   A   1      37.592 -22.827 -12.898  0.00  0.00    +0.211 HD
ENDBRANCH   3  18
BRANCH   5  20
ATOM     20  C5* C   A   1      36.657 -26.678 -14.957  0.00  0.00    +0.169 C 
BRANCH  20  21
ATOM     21  O5* C   A   1      36.802 -27.177 -16.276  0.00  0.00    -0.379 OA
ATOM     22  H5* C   A   1      37.261 -26.520 -16.822  0.00  0.00    +0.211 HD
ENDBRANCH  20  21
ENDBRANCH   5  20
TORSDOF 5
ENDMDL
MODEL 9
REMARK VINA RESULT:      -6.8      2.611      3.941
REMARK  Name = 6253
REMARK  5 active torsions:
REMARK  status: ('A' for Active; 'I' for Inactive)
REMARK    1  A    between atoms: C2*_2  and  O2*_16
REMARK    2  A    between atoms: C3*_3  and  O3*_18
REMARK    3  A    between atoms: C1*_4  and  N1_7
REMARK    4  A    between atoms: C4*_5  and  C5*_20
REMARK    5  A    between atoms: C5*_20  and  O5*_21
REMARK                            x       y       z     vdW  Elec       q    Type
REMARK                         _______ _______ _______ _____ _____    ______ ____
ROOT
ATOM      1  O4* C   A   1      36.297 -25.482 -14.281  0.00  0.00    -0.332 OA
ATOM      2  C2* C   A   1      36.812 -23.179 -14.448  0.00  0.00    +0.188 C 
ATOM      3  C3* C   A   1      38.117 -23.933 -14.297  0.00  0.00    +0.171 C 
ATOM      4  C1* C   A   1      35.880 -24.277 -14.937  0.00  0.00    +0.236 C 
ATOM      5  C4* C   A   1      37.674 -25.334 -13.875  0.00  0.00    +0.175 C 
ENDROOT
BRANCH   4   7
ATOM      6  O2  C   A   1      34.625 -24.620 -12.437  0.00  0.00    -0.193 OA
ATOM      7  N1  C   A   1      34.494 -24.035 -14.666  0.00  0.00    -0.178 N 
ATOM      8  N3  C   A   1      32.583 -23.975 -13.187  0.00  0.00    -0.306 NA
ATOM      9  N4  C   A   1      30.492 -23.314 -13.963  0.00  0.00    -0.332 N 
ATOM     10  C6  C   A   1      33.676 -23.596 -15.698  0.00  0.00    +0.083 C 
ATOM     11  C2  C   A   1      33.930 -24.229 -13.376  0.00  0.00    +0.276 C 
ATOM     12  C5  C   A   1      32.379 -23.346 -15.536  0.00  0.00    +0.065 C 
ATOM     13  C4  C   A   1      31.829 -23.561 -14.172  0.00  0.00    +0.193 C 
ATOM     14  H41 C   A   1      30.101 -23.447 -13.069  0.00  0.00    +0.145 HD
ATOM     15  H42 C   A   1      29.927 -23.003 -14.707  0.00  0.00    +0.145 HD
ENDBRANCH   4   7
BRANCH   2  16
ATOM     16  O2* C   A   1      36.417 -22.698 -13.169  0.00  0.00    -0.378 OA
ATOM     17  H2* C   A   1      35.687 -22.068 -13.272  0.00  0.00    +0.211 HD
ENDBRANCH   2  16
BRANCH   3  18
ATOM     18  O3* C   A   1      38.754 -24.027 -15.570  0.00  0.00    -0.379 OA
ATOM     19  H3* C   A   1      38.091 -23.939 -16.272  0.00  0.00    +0.211 HD
ENDBRANCH   3  18
BRANCH   5  20
ATOM     20  C5* C   A   1      37.743 -25.563 -12.371  0.00  0.00    +0.169 C 
BRANCH  20  21
ATOM     21  O5* C   A   1      36.771 -26.530 -12.013  0.00  0.00    -0.379 OA
ATOM     22  H5* C   A   1      37.201 -27.389 -11.888  0.00  0.00    +0.211 HD
ENDBRANCH  20  21
ENDBRANCH   5  20
TORSDOF 5
ENDMDL
