MODEL 1
REMARK VINA RESULT:      -4.6      0.000      0.000
REMARK  Name = 87087973
REMARK  6 active torsions:
REMARK  status: ('A' for Active; 'I' for Inactive)
REMARK    1  A    between atoms: C_1  and  N_2
REMARK    2  A    between atoms: C_1  and  C_6
REMARK    3  A    between atoms: C_1  and  C_11
REMARK    4  A    between atoms: C_6  and  C_8
REMARK    5  A    between atoms: C_8  and  O_9
REMARK    6  A    between atoms: C_11  and  S_12
REMARK                            x       y       z     vdW  Elec       q    Type
REMARK                         _______ _______ _______ _____ _____    ______ ____
ROOT
ATOM      1  C   UNL     1      37.753 -24.827 -14.566  0.00  0.00    -0.044 C 
ENDROOT
BRANCH   1   2
ATOM      2  N   UNL     1      38.194 -23.889 -15.603  0.00  0.00    +0.383 N 
ATOM      3  H   UNL     1      37.775 -24.147 -16.497  0.00  0.00    -0.089 HD
ATOM      4  H   UNL     1      39.211 -23.923 -15.683  0.00  0.00    -0.089 HD
ATOM      5  H   UNL     1      37.904 -22.944 -15.353  0.00  0.00    -0.089 HD
ENDBRANCH   1   2
BRANCH   1   6
ATOM      6  C   UNL     1      38.868 -25.855 -14.327  0.00  0.00    +0.088 C 
BRANCH   6   8
ATOM      7  O   UNL     1      40.954 -24.633 -14.322  0.00  0.00    -0.250 OA
ATOM      8  C   UNL     1      40.195 -25.408 -14.890  0.00  0.00    +0.312 C 
BRANCH   8   9
ATOM      9  O   UNL     1      40.462 -25.962 -16.099  0.00  0.00    -0.480 OA
ATOM     10  H   UNL     1      39.802 -26.453 -16.545  0.00  0.00    +0.295 HD
ENDBRANCH   8   9
ENDBRANCH   6   8
ENDBRANCH   1   6
BRANCH   1  11
ATOM     11  C   UNL     1      36.444 -25.511 -14.994  0.00  0.00    +0.032 C 
BRANCH  11  12
ATOM     12  S   UNL     1      34.975 -24.483 -14.669  0.00  0.00    -0.170 S 
ATOM     13  H   UNL     1      35.173 -23.754 -13.537  0.00  0.00    +0.102 HD
ENDBRANCH  11  12
ENDBRANCH   1  11
TORSDOF 6
ENDMDL
MODEL 2
REMARK VINA RESULT:      -4.5      1.894      1.899
REMARK  Name = 87087973
REMARK  6 active torsions:
REMARK  status: ('A' for Active; 'I' for Inactive)
REMARK    1  A    between atoms: C_1  and  N_2
REMARK    2  A    between atoms: C_1  and  C_6
REMARK    3  A    between atoms: C_1  and  C_11
REMARK    4  A    between atoms: C_6  and  C_8
REMARK    5  A    between atoms: C_8  and  O_9
REMARK    6  A    between atoms: C_11  and  S_12
REMARK                            x       y       z     vdW  Elec       q    Type
REMARK                         _______ _______ _______ _____ _____    ______ ____
ROOT
ATOM      1  C   UNL     1      37.754 -26.066 -14.663  0.00  0.00    -0.044 C 
ENDROOT
BRANCH   1   2
ATOM      2  N   UNL     1      37.207 -27.010 -13.682  0.00  0.00    +0.383 N 
ATOM      3  H   UNL     1      37.239 -27.955 -14.065  0.00  0.00    -0.089 HD
ATOM      4  H   UNL     1      36.241 -26.760 -13.472  0.00  0.00    -0.089 HD
ATOM      5  H   UNL     1      37.762 -26.970 -12.827  0.00  0.00    -0.089 HD
ENDBRANCH   1   2
BRANCH   1   6
ATOM      6  C   UNL     1      39.036 -25.447 -14.088  0.00  0.00    +0.088 C 
BRANCH   6   8
ATOM      7  O   UNL     1      41.169 -26.586 -14.092  0.00  0.00    -0.250 OA
ATOM      8  C   UNL     1      40.285 -26.016 -14.718  0.00  0.00    +0.312 C 
BRANCH   8   9
ATOM      9  O   UNL     1      40.323 -25.830 -16.061  0.00  0.00    -0.480 OA
ATOM     10  H   UNL     1      39.932 -26.460 -16.633  0.00  0.00    +0.295 HD
ENDBRANCH   8   9
ENDBRANCH   6   8
ENDBRANCH   1   6
BRANCH   1  11
ATOM     11  C   UNL     1      36.712 -24.986 -14.996  0.00  0.00    +0.032 C 
BRANCH  11  12
ATOM     12  S   UNL     1      37.468 -23.367 -15.353  0.00  0.00    -0.170 S 
ATOM     13  H   UNL     1      37.119 -22.479 -14.382  0.00  0.00    +0.102 HD
ENDBRANCH  11  12
ENDBRANCH   1  11
TORSDOF 6
ENDMDL
MODEL 3
REMARK VINA RESULT:      -4.3      2.584      2.885
REMARK  Name = 87087973
REMARK  6 active torsions:
REMARK  status: ('A' for Active; 'I' for Inactive)
REMARK    1  A    between atoms: C_1  and  N_2
REMARK    2  A    between atoms: C_1  and  C_6
REMARK    3  A    between atoms: C_1  and  C_11
REMARK    4  A    between atoms: C_6  and  C_8
REMARK    5  A    between atoms: C_8  and  O_9
REMARK    6  A    between atoms: C_11  and  S_12
REMARK                            x       y       z     vdW  Elec       q    Type
REMARK                         _______ _______ _______ _____ _____    ______ ____
ROOT
ATOM      1  C   UNL     1      37.161 -24.187 -14.786  0.00  0.00    -0.044 C 
ENDROOT
BRANCH   1   2
ATOM      2  N   UNL     1      38.432 -24.440 -15.472  0.00  0.00    +0.383 N 
ATOM      3  H   UNL     1      38.742 -23.588 -15.939  0.00  0.00    -0.089 HD
ATOM      4  H   UNL     1      38.305 -25.180 -16.162  0.00  0.00    -0.089 HD
ATOM      5  H   UNL     1      39.134 -24.728 -14.791  0.00  0.00    -0.089 HD
ENDBRANCH   1   2
BRANCH   1   6
ATOM      6  C   UNL     1      36.481 -25.533 -14.498  0.00  0.00    +0.088 C 
BRANCH   6   8
ATOM      7  O   UNL     1      38.225 -27.208 -14.508  0.00  0.00    -0.250 OA
ATOM      8  C   UNL     1      37.255 -26.702 -15.058  0.00  0.00    +0.312 C 
BRANCH   8   9
ATOM      9  O   UNL     1      36.758 -27.137 -16.243  0.00  0.00    -0.480 OA
ATOM     10  H   UNL     1      36.162 -27.859 -16.265  0.00  0.00    +0.295 HD
ENDBRANCH   8   9
ENDBRANCH   6   8
ENDBRANCH   1   6
BRANCH   1  11
ATOM     11  C   UNL     1      36.266 -23.281 -15.648  0.00  0.00    +0.032 C 
BRANCH  11  12
ATOM     12  S   UNL     1      37.188 -21.912 -16.421  0.00  0.00    -0.170 S 
ATOM     13  H   UNL     1      38.480 -22.291 -16.617  0.00  0.00    +0.102 HD
ENDBRANCH  11  12
ENDBRANCH   1  11
TORSDOF 6
ENDMDL
MODEL 4
REMARK VINA RESULT:      -4.3      9.247     10.075
REMARK  Name = 87087973
REMARK  6 active torsions:
REMARK  status: ('A' for Active; 'I' for Inactive)
REMARK    1  A    between atoms: C_1  and  N_2
REMARK    2  A    between atoms: C_1  and  C_6
REMARK    3  A    between atoms: C_1  and  C_11
REMARK    4  A    between atoms: C_6  and  C_8
REMARK    5  A    between atoms: C_8  and  O_9
REMARK    6  A    between atoms: C_11  and  S_12
REMARK                            x       y       z     vdW  Elec       q    Type
REMARK                         _______ _______ _______ _____ _____    ______ ____
ROOT
ATOM      1  C   UNL     1      30.117 -23.630 -15.781  0.00  0.00    -0.044 C 
ENDROOT
BRANCH   1   2
ATOM      2  N   UNL     1      30.587 -22.707 -16.820  0.00  0.00    +0.383 N 
ATOM      3  H   UNL     1      30.115 -21.809 -16.717  0.00  0.00    -0.089 HD
ATOM      4  H   UNL     1      30.381 -23.097 -17.740  0.00  0.00    -0.089 HD
ATOM      5  H   UNL     1      31.594 -22.574 -16.725  0.00  0.00    -0.089 HD
ENDBRANCH   1   2
BRANCH   1   6
ATOM      6  C   UNL     1      28.587 -23.533 -15.695  0.00  0.00    +0.088 C 
BRANCH   6   8
ATOM      7  O   UNL     1      27.741 -23.518 -17.960  0.00  0.00    -0.250 OA
ATOM      8  C   UNL     1      27.978 -22.907 -16.927  0.00  0.00    +0.312 C 
BRANCH   8   9
ATOM      9  O   UNL     1      27.717 -21.585 -16.765  0.00  0.00    -0.480 OA
ATOM     10  H   UNL     1      27.087 -21.161 -17.313  0.00  0.00    +0.295 HD
ENDBRANCH   8   9
ENDBRANCH   6   8
ENDBRANCH   1   6
BRANCH   1  11
ATOM     11  C   UNL     1      30.775 -23.289 -14.434  0.00  0.00    +0.032 C 
BRANCH  11  12
ATOM     12  S   UNL     1      32.057 -24.492 -13.954  0.00  0.00    -0.170 S 
ATOM     13  H   UNL     1      31.804 -25.687 -14.555  0.00  0.00    +0.102 HD
ENDBRANCH  11  12
ENDBRANCH   1  11
TORSDOF 6
ENDMDL
MODEL 5
REMARK VINA RESULT:      -4.2      2.789      3.259
REMARK  Name = 87087973
REMARK  6 active torsions:
REMARK  status: ('A' for Active; 'I' for Inactive)
REMARK    1  A    between atoms: C_1  and  N_2
REMARK    2  A    between atoms: C_1  and  C_6
REMARK    3  A    between atoms: C_1  and  C_11
REMARK    4  A    between atoms: C_6  and  C_8
REMARK    5  A    between atoms: C_8  and  O_9
REMARK    6  A    between atoms: C_11  and  S_12
REMARK                            x       y       z     vdW  Elec       q    Type
REMARK                         _______ _______ _______ _____ _____    ______ ____
ROOT
ATOM      1  C   UNL     1      38.501 -25.802 -13.951  0.00  0.00    -0.044 C 
ENDROOT
BRANCH   1   2
ATOM      2  N   UNL     1      38.715 -25.089 -15.216  0.00  0.00    +0.383 N 
ATOM      3  H   UNL     1      38.316 -25.630 -15.983  0.00  0.00    -0.089 HD
ATOM      4  H   UNL     1      39.715 -24.965 -15.371  0.00  0.00    -0.089 HD
ATOM      5  H   UNL     1      38.262 -24.177 -15.172  0.00  0.00    -0.089 HD
ENDBRANCH   1   2
BRANCH   1   6
ATOM      6  C   UNL     1      37.273 -26.712 -14.102  0.00  0.00    +0.088 C 
BRANCH   6   8
ATOM      7  O   UNL     1      35.739 -25.564 -15.576  0.00  0.00    -0.250 OA
ATOM      8  C   UNL     1      36.536 -26.476 -15.398  0.00  0.00    +0.312 C 
BRANCH   8   9
ATOM      9  O   UNL     1      36.852 -27.387 -16.352  0.00  0.00    -0.480 OA
ATOM     10  H   UNL     1      36.345 -28.169 -16.440  0.00  0.00    +0.295 HD
ENDBRANCH   8   9
ENDBRANCH   6   8
ENDBRANCH   1   6
BRANCH   1  11
ATOM     11  C   UNL     1      38.313 -24.796 -12.803  0.00  0.00    +0.032 C 
BRANCH  11  12
ATOM     12  S   UNL     1      36.636 -24.845 -12.093  0.00  0.00    -0.170 S 
ATOM     13  H   UNL     1      36.710 -25.177 -10.776  0.00  0.00    +0.102 HD
ENDBRANCH  11  12
ENDBRANCH   1  11
TORSDOF 6
ENDMDL
MODEL 6
REMARK VINA RESULT:      -4.2     11.457     11.882
REMARK  Name = 87087973
REMARK  6 active torsions:
REMARK  status: ('A' for Active; 'I' for Inactive)
REMARK    1  A    between atoms: C_1  and  N_2
REMARK    2  A    between atoms: C_1  and  C_6
REMARK    3  A    between atoms: C_1  and  C_11
REMARK    4  A    between atoms: C_6  and  C_8
REMARK    5  A    between atoms: C_8  and  O_9
REMARK    6  A    between atoms: C_11  and  S_12
REMARK                            x       y       z     vdW  Elec       q    Type
REMARK                         _______ _______ _______ _____ _____    ______ ____
ROOT
ATOM      1  C   UNL     1      41.692 -13.472 -16.862  0.00  0.00    -0.044 C 
ENDROOT
BRANCH   1   2
ATOM      2  N   UNL     1      41.740 -13.393 -15.398  0.00  0.00    +0.383 N 
ATOM      3  H   UNL     1      42.040 -14.291 -15.018  0.00  0.00    -0.089 HD
ATOM      4  H   UNL     1      40.812 -13.165 -15.039  0.00  0.00    -0.089 HD
ATOM      5  H   UNL     1      42.400 -12.668 -15.118  0.00  0.00    -0.089 HD
ENDBRANCH   1   2
BRANCH   1   6
ATOM      6  C   UNL     1      41.410 -14.926 -17.266  0.00  0.00    +0.088 C 
BRANCH   6   8
ATOM      7  O   UNL     1      42.526 -16.449 -15.756  0.00  0.00    -0.250 OA
ATOM      8  C   UNL     1      41.499 -15.878 -16.097  0.00  0.00    +0.312 C 
BRANCH   8   9
ATOM      9  O   UNL     1      40.311 -16.032 -15.460  0.00  0.00    -0.480 OA
ATOM     10  H   UNL     1      39.859 -16.850 -15.503  0.00  0.00    +0.295 HD
ENDBRANCH   8   9
ENDBRANCH   6   8
ENDBRANCH   1   6
BRANCH   1  11
ATOM     11  C   UNL     1      43.017 -12.971 -17.462  0.00  0.00    +0.032 C 
BRANCH  11  12
ATOM     12  S   UNL     1      43.012 -11.176 -17.774  0.00  0.00    -0.170 S 
ATOM     13  H   UNL     1      43.048 -10.949 -19.115  0.00  0.00    +0.102 HD
ENDBRANCH  11  12
ENDBRANCH   1  11
TORSDOF 6
ENDMDL
MODEL 7
REMARK VINA RESULT:      -4.1      4.103      4.597
REMARK  Name = 87087973
REMARK  6 active torsions:
REMARK  status: ('A' for Active; 'I' for Inactive)
REMARK    1  A    between atoms: C_1  and  N_2
REMARK    2  A    between atoms: C_1  and  C_6
REMARK    3  A    between atoms: C_1  and  C_11
REMARK    4  A    between atoms: C_6  and  C_8
REMARK    5  A    between atoms: C_8  and  O_9
REMARK    6  A    between atoms: C_11  and  S_12
REMARK                            x       y       z     vdW  Elec       q    Type
REMARK                         _______ _______ _______ _____ _____    ______ ____
ROOT
ATOM      1  C   UNL     1      37.701 -24.394 -12.916  0.00  0.00    -0.044 C 
ENDROOT
BRANCH   1   2
ATOM      2  N   UNL     1      37.680 -25.725 -12.300  0.00  0.00    +0.383 N 
ATOM      3  H   UNL     1      38.612 -26.136 -12.348  0.00  0.00    -0.089 HD
ATOM      4  H   UNL     1      37.020 -26.320 -12.800  0.00  0.00    -0.089 HD
ATOM      5  H   UNL     1      37.394 -25.644 -11.325  0.00  0.00    -0.089 HD
ENDBRANCH   1   2
BRANCH   1   6
ATOM      6  C   UNL     1      36.672 -23.506 -12.201  0.00  0.00    +0.088 C 
BRANCH   6   8
ATOM      7  O   UNL     1      36.139 -24.215  -9.952  0.00  0.00    -0.250 OA
ATOM      8  C   UNL     1      35.892 -24.258 -11.150  0.00  0.00    +0.312 C 
BRANCH   8   9
ATOM      9  O   UNL     1      34.879 -24.992 -11.678  0.00  0.00    -0.480 OA
ATOM     10  H   UNL     1      34.277 -24.596 -12.275  0.00  0.00    +0.295 HD
ENDBRANCH   8   9
ENDBRANCH   6   8
ENDBRANCH   1   6
BRANCH   1  11
ATOM     11  C   UNL     1      37.399 -24.501 -14.420  0.00  0.00    +0.032 C 
BRANCH  11  12
ATOM     12  S   UNL     1      36.870 -26.174 -14.912  0.00  0.00    -0.170 S 
ATOM     13  H   UNL     1      37.205 -27.061 -13.936  0.00  0.00    +0.102 HD
ENDBRANCH  11  12
ENDBRANCH   1  11
TORSDOF 6
ENDMDL
MODEL 8
REMARK VINA RESULT:      -4.0     10.727     11.131
REMARK  Name = 87087973
REMARK  6 active torsions:
REMARK  status: ('A' for Active; 'I' for Inactive)
REMARK    1  A    between atoms: C_1  and  N_2
REMARK    2  A    between atoms: C_1  and  C_6
REMARK    3  A    between atoms: C_1  and  C_11
REMARK    4  A    between atoms: C_6  and  C_8
REMARK    5  A    between atoms: C_8  and  O_9
REMARK    6  A    between atoms: C_11  and  S_12
REMARK                            x       y       z     vdW  Elec       q    Type
REMARK                         _______ _______ _______ _____ _____    ______ ____
ROOT
ATOM      1  C   UNL     1      41.030 -14.256 -16.586  0.00  0.00    -0.044 C 
ENDROOT
BRANCH   1   2
ATOM      2  N   UNL     1      40.572 -15.044 -15.436  0.00  0.00    +0.383 N 
ATOM      3  H   UNL     1      40.334 -14.417 -14.668  0.00  0.00    -0.089 HD
ATOM      4  H   UNL     1      41.315 -15.677 -15.140  0.00  0.00    -0.089 HD
ATOM      5  H   UNL     1      39.750 -15.586 -15.701  0.00  0.00    -0.089 HD
ENDBRANCH   1   2
BRANCH   1   6
ATOM      6  C   UNL     1      41.692 -15.203 -17.598  0.00  0.00    +0.088 C 
BRANCH   6   8
ATOM      7  O   UNL     1      41.504 -17.554 -17.066  0.00  0.00    -0.250 OA
ATOM      8  C   UNL     1      42.128 -16.505 -16.970  0.00  0.00    +0.312 C 
BRANCH   8   9
ATOM      9  O   UNL     1      43.293 -16.389 -16.285  0.00  0.00    -0.480 OA
ATOM     10  H   UNL     1      43.755 -17.157 -16.013  0.00  0.00    +0.295 HD
ENDBRANCH   8   9
ENDBRANCH   6   8
ENDBRANCH   1   6
BRANCH   1  11
ATOM     11  C   UNL     1      42.005 -13.161 -16.123  0.00  0.00    +0.032 C 
BRANCH  11  12
ATOM     12  S   UNL     1      42.589 -12.114 -17.495  0.00  0.00    -0.170 S 
ATOM     13  H   UNL     1      43.913 -11.847 -17.330  0.00  0.00    +0.102 HD
ENDBRANCH  11  12
ENDBRANCH   1  11
TORSDOF 6
ENDMDL
MODEL 9
REMARK VINA RESULT:      -4.0     12.625     13.050
REMARK  Name = 87087973
REMARK  6 active torsions:
REMARK  status: ('A' for Active; 'I' for Inactive)
REMARK    1  A    between atoms: C_1  and  N_2
REMARK    2  A    between atoms: C_1  and  C_6
REMARK    3  A    between atoms: C_1  and  C_11
REMARK    4  A    between atoms: C_6  and  C_8
REMARK    5  A    between atoms: C_8  and  O_9
REMARK    6  A    between atoms: C_11  and  S_12
REMARK                            x       y       z     vdW  Elec       q    Type
REMARK                         _______ _______ _______ _____ _____    ______ ____
ROOT
ATOM      1  C   UNL     1      34.906 -17.235 -22.807  0.00  0.00    -0.044 C 
ENDROOT
BRANCH   1   2
ATOM      2  N   UNL     1      36.148 -17.986 -23.014  0.00  0.00    +0.383 N 
ATOM      3  H   UNL     1      36.947 -17.387 -22.808  0.00  0.00    -0.089 HD
ATOM      4  H   UNL     1      36.199 -18.299 -23.984  0.00  0.00    -0.089 HD
ATOM      5  H   UNL     1      36.163 -18.796 -22.395  0.00  0.00    -0.089 HD
ENDBRANCH   1   2
BRANCH   1   6
ATOM      6  C   UNL     1      34.797 -16.156 -23.894  0.00  0.00    +0.088 C 
BRANCH   6   8
ATOM      7  O   UNL     1      34.587 -17.912 -25.542  0.00  0.00    -0.250 OA
ATOM      8  C   UNL     1      34.452 -16.732 -25.246  0.00  0.00    +0.312 C 
BRANCH   8   9
ATOM      9  O   UNL     1      33.971 -15.798 -26.104  0.00  0.00    -0.480 OA
ATOM     10  H   UNL     1      33.907 -15.989 -27.018  0.00  0.00    +0.295 HD
ENDBRANCH   8   9
ENDBRANCH   6   8
ENDBRANCH   1   6
BRANCH   1  11
ATOM     11  C   UNL     1      34.892 -16.614 -21.400  0.00  0.00    +0.032 C 
BRANCH  11  12
ATOM     12  S   UNL     1      34.242 -14.912 -21.390  0.00  0.00    -0.170 S 
ATOM     13  H   UNL     1      33.536 -14.689 -22.532  0.00  0.00    +0.102 HD
ENDBRANCH  11  12
ENDBRANCH   1  11
TORSDOF 6
ENDMDL
