MODEL 1
REMARK VINA RESULT:      -5.9      0.000      0.000
REMARK  Name = 6992103
REMARK  9 active torsions:
REMARK  status: ('A' for Active; 'I' for Inactive)
REMARK    1  A    between atoms: SG_1  and  SG_2
REMARK    2  A    between atoms: SG_1  and  CB_12
REMARK    3  A    between atoms: SG_2  and  CB_3
REMARK    4  A    between atoms: CB_3  and  CA_4
REMARK    5  A    between atoms: CA_4  and  N_5
REMARK    6  A    between atoms: CA_4  and  C_11
REMARK    7  A    between atoms: CB_12  and  CA_13
REMARK    8  A    between atoms: CA_13  and  N_14
REMARK    9  A    between atoms: CA_13  and  C_20
REMARK                            x       y       z     vdW  Elec       q    Type
REMARK                         _______ _______ _______ _____ _____    ______ ____
ROOT
ATOM      1  SG  CYS A   1      35.873 -25.276 -15.126  0.00  0.00    -0.084 S 
ENDROOT
BRANCH   1   2
ATOM      2  SG  CYS A   1      35.003 -23.993 -13.778  0.00  0.00    -0.084 S 
BRANCH   2   3
ATOM      3  CB  CYS A   1      36.448 -23.165 -13.071  0.00  0.00    +0.058 C 
BRANCH   3   4
ATOM      4  CA  CYS A   1      36.826 -23.677 -11.679  0.00  0.00    +0.052 C 
BRANCH   4   5
ATOM      5  N   CYS A   1      38.320 -23.618 -11.582  0.00  0.00    +0.389 N 
ATOM      6  H1  CYS A   1      38.712 -23.385 -12.495  0.00  0.00    -0.088 HD
ATOM      7  H2  CYS A   1      38.678 -24.525 -11.280  0.00  0.00    -0.088 HD
ATOM      8  H3  CYS A   1      38.589 -22.904 -10.905  0.00  0.00    -0.088 HD
ENDBRANCH   4   5
BRANCH   4  11
ATOM      9  O   CYS A   1      35.225 -24.944 -10.473  0.00  0.00    -0.248 OA
ATOM     10  OXT CYS A   1      36.776 -26.055 -11.723  0.00  0.00    -0.248 OA
ATOM     11  C   CYS A   1      36.211 -25.025 -11.258  0.00  0.00    +0.346 C 
ENDBRANCH   4  11
ENDBRANCH   3   4
ENDBRANCH   2   3
ENDBRANCH   1   2
BRANCH   1  12
ATOM     12  CB  CYS A   1      37.629 -24.804 -14.989  0.00  0.00    +0.058 C 
BRANCH  12  13
ATOM     13  CA  CYS A   1      38.578 -26.002 -14.892  0.00  0.00    +0.052 C 
BRANCH  13  14
ATOM     14  N   CYS A   1      37.848 -27.081 -14.153  0.00  0.00    +0.389 N 
ATOM     15  H1  CYS A   1      38.309 -27.254 -13.260  0.00  0.00    -0.088 HD
ATOM     16  H2  CYS A   1      37.852 -27.936 -14.709  0.00  0.00    -0.088 HD
ATOM     17  H3  CYS A   1      36.884 -26.788 -13.988  0.00  0.00    -0.088 HD
ENDBRANCH  13  14
BRANCH  13  20
ATOM     18  O   CYS A   1      40.114 -24.619 -13.729  0.00  0.00    -0.248 OA
ATOM     19  OXT CYS A   1      40.873 -26.570 -14.636  0.00  0.00    -0.248 OA
ATOM     20  C   CYS A   1      39.992 -25.708 -14.361  0.00  0.00    +0.346 C 
ENDBRANCH  13  20
ENDBRANCH  12  13
ENDBRANCH   1  12
TORSDOF 9
ENDMDL
MODEL 2
REMARK VINA RESULT:      -5.7      0.207      4.482
REMARK  Name = 6992103
REMARK  9 active torsions:
REMARK  status: ('A' for Active; 'I' for Inactive)
REMARK    1  A    between atoms: SG_1  and  SG_2
REMARK    2  A    between atoms: SG_1  and  CB_12
REMARK    3  A    between atoms: SG_2  and  CB_3
REMARK    4  A    between atoms: CB_3  and  CA_4
REMARK    5  A    between atoms: CA_4  and  N_5
REMARK    6  A    between atoms: CA_4  and  C_11
REMARK    7  A    between atoms: CB_12  and  CA_13
REMARK    8  A    between atoms: CA_13  and  N_14
REMARK    9  A    between atoms: CA_13  and  C_20
REMARK                            x       y       z     vdW  Elec       q    Type
REMARK                         _______ _______ _______ _____ _____    ______ ____
ROOT
ATOM      1  SG  CYS A   1      34.971 -24.232 -13.668  0.00  0.00    -0.084 S 
ENDROOT
BRANCH   1   2
ATOM      2  SG  CYS A   1      35.899 -25.033 -15.316  0.00  0.00    -0.084 S 
BRANCH   2   3
ATOM      3  CB  CYS A   1      37.635 -24.641 -14.990  0.00  0.00    +0.058 C 
BRANCH   3   4
ATOM      4  CA  CYS A   1      38.530 -25.878 -14.874  0.00  0.00    +0.052 C 
BRANCH   4   5
ATOM      5  N   CYS A   1      37.806 -26.863 -14.008  0.00  0.00    +0.389 N 
ATOM      6  H1  CYS A   1      37.065 -26.386 -13.496  0.00  0.00    -0.088 HD
ATOM      7  H2  CYS A   1      38.461 -27.281 -13.347  0.00  0.00    -0.088 HD
ATOM      8  H3  CYS A   1      37.400 -27.594 -14.592  0.00  0.00    -0.088 HD
ENDBRANCH   4   5
BRANCH   4  11
ATOM      9  O   CYS A   1      40.177 -24.629 -13.712  0.00  0.00    -0.248 OA
ATOM     10  OXT CYS A   1      40.844 -26.421 -14.956  0.00  0.00    -0.248 OA
ATOM     11  C   CYS A   1      39.993 -25.624 -14.468  0.00  0.00    +0.346 C 
ENDBRANCH   4  11
ENDBRANCH   3   4
ENDBRANCH   2   3
ENDBRANCH   1   2
BRANCH   1  12
ATOM     12  CB  CYS A   1      36.316 -23.231 -12.950  0.00  0.00    +0.058 C 
BRANCH  12  13
ATOM     13  CA  CYS A   1      36.791 -23.733 -11.584  0.00  0.00    +0.052 C 
BRANCH  13  14
ATOM     14  N   CYS A   1      38.288 -23.728 -11.612  0.00  0.00    +0.389 N 
ATOM     15  H1  CYS A   1      38.626 -22.765 -11.598  0.00  0.00    -0.088 HD
ATOM     16  H2  CYS A   1      38.615 -24.190 -12.460  0.00  0.00    -0.088 HD
ATOM     17  H3  CYS A   1      38.646 -24.225 -10.795  0.00  0.00    -0.088 HD
ENDBRANCH  13  14
BRANCH  13  20
ATOM     18  O   CYS A   1      36.666 -26.102 -11.579  0.00  0.00    -0.248 OA
ATOM     19  OXT CYS A   1      35.212 -24.930 -10.269  0.00  0.00    -0.248 OA
ATOM     20  C   CYS A   1      36.166 -25.049 -11.088  0.00  0.00    +0.346 C 
ENDBRANCH  13  20
ENDBRANCH  12  13
ENDBRANCH   1  12
TORSDOF 9
ENDMDL
MODEL 3
REMARK VINA RESULT:      -5.7      1.928      2.242
REMARK  Name = 6992103
REMARK  9 active torsions:
REMARK  status: ('A' for Active; 'I' for Inactive)
REMARK    1  A    between atoms: SG_1  and  SG_2
REMARK    2  A    between atoms: SG_1  and  CB_12
REMARK    3  A    between atoms: SG_2  and  CB_3
REMARK    4  A    between atoms: CB_3  and  CA_4
REMARK    5  A    between atoms: CA_4  and  N_5
REMARK    6  A    between atoms: CA_4  and  C_11
REMARK    7  A    between atoms: CB_12  and  CA_13
REMARK    8  A    between atoms: CA_13  and  N_14
REMARK    9  A    between atoms: CA_13  and  C_20
REMARK                            x       y       z     vdW  Elec       q    Type
REMARK                         _______ _______ _______ _____ _____    ______ ____
ROOT
ATOM      1  SG  CYS A   1      36.795 -26.487 -15.194  0.00  0.00    -0.084 S 
ENDROOT
BRANCH   1   2
ATOM      2  SG  CYS A   1      35.304 -25.152 -14.733  0.00  0.00    -0.084 S 
BRANCH   2   3
ATOM      3  CB  CYS A   1      35.599 -24.862 -12.972  0.00  0.00    +0.058 C 
BRANCH   3   4
ATOM      4  CA  CYS A   1      36.002 -23.420 -12.649  0.00  0.00    +0.052 C 
BRANCH   4   5
ATOM      5  N   CYS A   1      36.083 -22.685 -13.952  0.00  0.00    +0.389 N 
ATOM      6  H1  CYS A   1      36.431 -21.741 -13.788  0.00  0.00    -0.088 HD
ATOM      7  H2  CYS A   1      35.155 -22.637 -14.374  0.00  0.00    -0.088 HD
ATOM      8  H3  CYS A   1      36.718 -23.177 -14.581  0.00  0.00    -0.088 HD
ENDBRANCH   4   5
BRANCH   4  11
ATOM      9  O   CYS A   1      37.917 -22.205 -11.956  0.00  0.00    -0.248 OA
ATOM     10  OXT CYS A   1      37.431 -24.167 -10.899  0.00  0.00    -0.248 OA
ATOM     11  C   CYS A   1      37.232 -23.244 -11.739  0.00  0.00    +0.346 C 
ENDBRANCH   4  11
ENDBRANCH   3   4
ENDBRANCH   2   3
ENDBRANCH   1   2
BRANCH   1  12
ATOM     12  CB  CYS A   1      37.992 -26.165 -13.856  0.00  0.00    +0.058 C 
BRANCH  12  13
ATOM     13  CA  CYS A   1      39.192 -25.323 -14.298  0.00  0.00    +0.052 C 
BRANCH  13  14
ATOM     14  N   CYS A   1      38.688 -24.337 -15.307  0.00  0.00    +0.389 N 
ATOM     15  H1  CYS A   1      38.871 -24.686 -16.247  0.00  0.00    -0.088 HD
ATOM     16  H2  CYS A   1      39.164 -23.444 -15.177  0.00  0.00    -0.088 HD
ATOM     17  H3  CYS A   1      37.683 -24.206 -15.182  0.00  0.00    -0.088 HD
ENDBRANCH  13  14
BRANCH  13  20
ATOM     18  O   CYS A   1      40.671 -26.100 -15.982  0.00  0.00    -0.248 OA
ATOM     19  OXT CYS A   1      41.089 -26.673 -13.813  0.00  0.00    -0.248 OA
ATOM     20  C   CYS A   1      40.444 -26.102 -14.738  0.00  0.00    +0.346 C 
ENDBRANCH  13  20
ENDBRANCH  12  13
ENDBRANCH   1  12
TORSDOF 9
ENDMDL
MODEL 4
REMARK VINA RESULT:      -5.6      5.961      6.970
REMARK  Name = 6992103
REMARK  9 active torsions:
REMARK  status: ('A' for Active; 'I' for Inactive)
REMARK    1  A    between atoms: SG_1  and  SG_2
REMARK    2  A    between atoms: SG_1  and  CB_12
REMARK    3  A    between atoms: SG_2  and  CB_3
REMARK    4  A    between atoms: CB_3  and  CA_4
REMARK    5  A    between atoms: CA_4  and  N_5
REMARK    6  A    between atoms: CA_4  and  C_11
REMARK    7  A    between atoms: CB_12  and  CA_13
REMARK    8  A    between atoms: CA_13  and  N_14
REMARK    9  A    between atoms: CA_13  and  C_20
REMARK                            x       y       z     vdW  Elec       q    Type
REMARK                         _______ _______ _______ _____ _____    ______ ____
ROOT
ATOM      1  SG  CYS A   1      33.584 -23.615 -14.651  0.00  0.00    -0.084 S 
ENDROOT
BRANCH   1   2
ATOM      2  SG  CYS A   1      31.684 -22.913 -14.317  0.00  0.00    -0.084 S 
BRANCH   2   3
ATOM      3  CB  CYS A   1      30.801 -23.526 -15.772  0.00  0.00    +0.058 C 
BRANCH   3   4
ATOM      4  CA  CYS A   1      29.283 -23.593 -15.584  0.00  0.00    +0.052 C 
BRANCH   4   5
ATOM      5  N   CYS A   1      28.969 -24.953 -15.039  0.00  0.00    +0.389 N 
ATOM      6  H1  CYS A   1      29.468 -25.660 -15.579  0.00  0.00    -0.088 HD
ATOM      7  H2  CYS A   1      27.965 -25.122 -15.104  0.00  0.00    -0.088 HD
ATOM      8  H3  CYS A   1      29.260 -25.004 -14.062  0.00  0.00    -0.088 HD
ENDBRANCH   4   5
BRANCH   4  11
ATOM      9  O   CYS A   1      27.825 -24.121 -17.378  0.00  0.00    -0.248 OA
ATOM     10  OXT CYS A   1      28.444 -21.946 -17.080  0.00  0.00    -0.248 OA
ATOM     11  C   CYS A   1      28.427 -23.176 -16.794  0.00  0.00    +0.346 C 
ENDBRANCH   4  11
ENDBRANCH   3   4
ENDBRANCH   2   3
ENDBRANCH   1   2
BRANCH   1  12
ATOM     12  CB  CYS A   1      34.015 -24.282 -13.010  0.00  0.00    +0.058 C 
BRANCH  12  13
ATOM     13  CA  CYS A   1      35.523 -24.420 -12.782  0.00  0.00    +0.052 C 
BRANCH  13  14
ATOM     14  N   CYS A   1      35.997 -25.543 -13.654  0.00  0.00    +0.389 N 
ATOM     15  H1  CYS A   1      36.947 -25.802 -13.389  0.00  0.00    -0.088 HD
ATOM     16  H2  CYS A   1      35.986 -25.245 -14.629  0.00  0.00    -0.088 HD
ATOM     17  H3  CYS A   1      35.380 -26.347 -13.538  0.00  0.00    -0.088 HD
ENDBRANCH  13  14
BRANCH  13  20
ATOM     18  O   CYS A   1      37.114 -23.996 -11.075  0.00  0.00    -0.248 OA
ATOM     19  OXT CYS A   1      35.199 -25.110 -10.529  0.00  0.00    -0.248 OA
ATOM     20  C   CYS A   1      35.984 -24.511 -11.317  0.00  0.00    +0.346 C 
ENDBRANCH  13  20
ENDBRANCH  12  13
ENDBRANCH   1  12
TORSDOF 9
ENDMDL
MODEL 5
REMARK VINA RESULT:      -5.5      5.976      7.395
REMARK  Name = 6992103
REMARK  9 active torsions:
REMARK  status: ('A' for Active; 'I' for Inactive)
REMARK    1  A    between atoms: SG_1  and  SG_2
REMARK    2  A    between atoms: SG_1  and  CB_12
REMARK    3  A    between atoms: SG_2  and  CB_3
REMARK    4  A    between atoms: CB_3  and  CA_4
REMARK    5  A    between atoms: CA_4  and  N_5
REMARK    6  A    between atoms: CA_4  and  C_11
REMARK    7  A    between atoms: CB_12  and  CA_13
REMARK    8  A    between atoms: CA_13  and  N_14
REMARK    9  A    between atoms: CA_13  and  C_20
REMARK                            x       y       z     vdW  Elec       q    Type
REMARK                         _______ _______ _______ _____ _____    ______ ____
ROOT
ATOM      1  SG  CYS A   1      31.813 -22.999 -14.632  0.00  0.00    -0.084 S 
ENDROOT
BRANCH   1   2
ATOM      2  SG  CYS A   1      33.561 -24.069 -14.769  0.00  0.00    -0.084 S 
BRANCH   2   3
ATOM      3  CB  CYS A   1      34.126 -24.077 -13.050  0.00  0.00    +0.058 C 
BRANCH   3   4
ATOM      4  CA  CYS A   1      35.606 -24.432 -12.894  0.00  0.00    +0.052 C 
BRANCH   4   5
ATOM      5  N   CYS A   1      35.889 -25.558 -13.841  0.00  0.00    +0.389 N 
ATOM      6  H1  CYS A   1      35.010 -25.992 -14.126  0.00  0.00    -0.088 HD
ATOM      7  H2  CYS A   1      36.477 -26.253 -13.380  0.00  0.00    -0.088 HD
ATOM      8  H3  CYS A   1      36.372 -25.197 -14.665  0.00  0.00    -0.088 HD
ENDBRANCH   4   5
BRANCH   4  11
ATOM      9  O   CYS A   1      35.237 -25.117 -10.654  0.00  0.00    -0.248 OA
ATOM     10  OXT CYS A   1      37.309 -24.362 -11.235  0.00  0.00    -0.248 OA
ATOM     11  C   CYS A   1      36.104 -24.668 -11.456  0.00  0.00    +0.346 C 
ENDBRANCH   4  11
ENDBRANCH   3   4
ENDBRANCH   2   3
ENDBRANCH   1   2
BRANCH   1  12
ATOM     12  CB  CYS A   1      30.780 -23.836 -15.879  0.00  0.00    +0.058 C 
BRANCH  12  13
ATOM     13  CA  CYS A   1      29.277 -23.684 -15.631  0.00  0.00    +0.052 C 
BRANCH  13  14
ATOM     14  N   CYS A   1      28.811 -24.948 -14.977  0.00  0.00    +0.389 N 
ATOM     15  H1  CYS A   1      29.283 -25.062 -14.080  0.00  0.00    -0.088 HD
ATOM     16  H2  CYS A   1      29.027 -25.743 -15.578  0.00  0.00    -0.088 HD
ATOM     17  H3  CYS A   1      27.802 -24.901 -14.826  0.00  0.00    -0.088 HD
ENDBRANCH  13  14
BRANCH  13  20
ATOM     18  O   CYS A   1      28.388 -21.990 -17.033  0.00  0.00    -0.248 OA
ATOM     19  OXT CYS A   1      27.854 -24.164 -17.476  0.00  0.00    -0.248 OA
ATOM     20  C   CYS A   1      28.430 -23.239 -16.837  0.00  0.00    +0.346 C 
ENDBRANCH  13  20
ENDBRANCH  12  13
ENDBRANCH   1  12
TORSDOF 9
ENDMDL
MODEL 6
REMARK VINA RESULT:      -5.5      3.791      4.768
REMARK  Name = 6992103
REMARK  9 active torsions:
REMARK  status: ('A' for Active; 'I' for Inactive)
REMARK    1  A    between atoms: SG_1  and  SG_2
REMARK    2  A    between atoms: SG_1  and  CB_12
REMARK    3  A    between atoms: SG_2  and  CB_3
REMARK    4  A    between atoms: CB_3  and  CA_4
REMARK    5  A    between atoms: CA_4  and  N_5
REMARK    6  A    between atoms: CA_4  and  C_11
REMARK    7  A    between atoms: CB_12  and  CA_13
REMARK    8  A    between atoms: CA_13  and  N_14
REMARK    9  A    between atoms: CA_13  and  C_20
REMARK                            x       y       z     vdW  Elec       q    Type
REMARK                         _______ _______ _______ _____ _____    ______ ____
ROOT
ATOM      1  SG  CYS A   1      37.159 -23.436 -13.584  0.00  0.00    -0.084 S 
ENDROOT
BRANCH   1   2
ATOM      2  SG  CYS A   1      36.073 -24.148 -15.176  0.00  0.00    -0.084 S 
BRANCH   2   3
ATOM      3  CB  CYS A   1      35.604 -22.616 -16.017  0.00  0.00    +0.058 C 
BRANCH   3   4
ATOM      4  CA  CYS A   1      36.609 -22.170 -17.081  0.00  0.00    +0.052 C 
BRANCH   4   5
ATOM      5  N   CYS A   1      37.465 -21.109 -16.458  0.00  0.00    +0.389 N 
ATOM      6  H1  CYS A   1      36.916 -20.257 -16.337  0.00  0.00    -0.088 HD
ATOM      7  H2  CYS A   1      38.263 -20.915 -17.064  0.00  0.00    -0.088 HD
ATOM      8  H3  CYS A   1      37.797 -21.431 -15.549  0.00  0.00    -0.088 HD
ENDBRANCH   4   5
BRANCH   4  11
ATOM      9  O   CYS A   1      36.514 -20.754 -18.981  0.00  0.00    -0.248 OA
ATOM     10  OXT CYS A   1      35.111 -22.550 -18.889  0.00  0.00    -0.248 OA
ATOM     11  C   CYS A   1      36.026 -21.794 -18.456  0.00  0.00    +0.346 C 
ENDBRANCH   4  11
ENDBRANCH   3   4
ENDBRANCH   2   3
ENDBRANCH   1   2
BRANCH   1  12
ATOM     12  CB  CYS A   1      38.260 -24.849 -13.241  0.00  0.00    +0.058 C 
BRANCH  12  13
ATOM     13  CA  CYS A   1      38.724 -25.584 -14.501  0.00  0.00    +0.052 C 
BRANCH  13  14
ATOM     14  N   CYS A   1      38.267 -27.005 -14.373  0.00  0.00    +0.389 N 
ATOM     15  H1  CYS A   1      38.483 -27.349 -13.437  0.00  0.00    -0.088 HD
ATOM     16  H2  CYS A   1      38.745 -27.580 -15.066  0.00  0.00    -0.088 HD
ATOM     17  H3  CYS A   1      37.259 -27.053 -14.528  0.00  0.00    -0.088 HD
ENDBRANCH  13  14
BRANCH  13  20
ATOM     18  O   CYS A   1      40.599 -26.137 -15.843  0.00  0.00    -0.248 OA
ATOM     19  OXT CYS A   1      40.870 -24.615 -14.164  0.00  0.00    -0.248 OA
ATOM     20  C   CYS A   1      40.207 -25.422 -14.876  0.00  0.00    +0.346 C 
ENDBRANCH  13  20
ENDBRANCH  12  13
ENDBRANCH   1  12
TORSDOF 9
ENDMDL
MODEL 7
REMARK VINA RESULT:      -5.5      3.652      5.120
REMARK  Name = 6992103
REMARK  9 active torsions:
REMARK  status: ('A' for Active; 'I' for Inactive)
REMARK    1  A    between atoms: SG_1  and  SG_2
REMARK    2  A    between atoms: SG_1  and  CB_12
REMARK    3  A    between atoms: SG_2  and  CB_3
REMARK    4  A    between atoms: CB_3  and  CA_4
REMARK    5  A    between atoms: CA_4  and  N_5
REMARK    6  A    between atoms: CA_4  and  C_11
REMARK    7  A    between atoms: CB_12  and  CA_13
REMARK    8  A    between atoms: CA_13  and  N_14
REMARK    9  A    between atoms: CA_13  and  C_20
REMARK                            x       y       z     vdW  Elec       q    Type
REMARK                         _______ _______ _______ _____ _____    ______ ____
ROOT
ATOM      1  SG  CYS A   1      37.355 -26.323 -14.147  0.00  0.00    -0.084 S 
ENDROOT
BRANCH   1   2
ATOM      2  SG  CYS A   1      36.876 -24.503 -14.970  0.00  0.00    -0.084 S 
BRANCH   2   3
ATOM      3  CB  CYS A   1      35.083 -24.649 -15.170  0.00  0.00    +0.058 C 
BRANCH   3   4
ATOM      4  CA  CYS A   1      34.394 -23.321 -15.496  0.00  0.00    +0.052 C 
BRANCH   4   5
ATOM      5  N   CYS A   1      33.410 -23.058 -14.397  0.00  0.00    +0.389 N 
ATOM      6  H1  CYS A   1      33.860 -23.206 -13.494  0.00  0.00    -0.088 HD
ATOM      7  H2  CYS A   1      32.617 -23.693 -14.490  0.00  0.00    -0.088 HD
ATOM      8  H3  CYS A   1      33.082 -22.093 -14.460  0.00  0.00    -0.088 HD
ENDBRANCH   4   5
BRANCH   4  11
ATOM      9  O   CYS A   1      32.559 -23.250 -16.996  0.00  0.00    -0.248 OA
ATOM     10  OXT CYS A   1      34.667 -23.042 -17.842  0.00  0.00    -0.248 OA
ATOM     11  C   CYS A   1      33.818 -23.182 -16.917  0.00  0.00    +0.346 C 
ENDBRANCH   4  11
ENDBRANCH   3   4
ENDBRANCH   2   3
ENDBRANCH   1   2
BRANCH   1  12
ATOM     12  CB  CYS A   1      37.382 -25.918 -12.370  0.00  0.00    +0.058 C 
BRANCH  12  13
ATOM     13  CA  CYS A   1      37.058 -24.452 -12.071  0.00  0.00    +0.052 C 
BRANCH  13  14
ATOM     14  N   CYS A   1      38.329 -23.808 -11.608  0.00  0.00    +0.389 N 
ATOM     15  H1  CYS A   1      38.560 -24.144 -10.673  0.00  0.00    -0.088 HD
ATOM     16  H2  CYS A   1      38.209 -22.795 -11.585  0.00  0.00    -0.088 HD
ATOM     17  H3  CYS A   1      39.085 -24.045 -12.251  0.00  0.00    -0.088 HD
ENDBRANCH  13  14
BRANCH  13  20
ATOM     18  O   CYS A   1      36.076 -24.261  -9.921  0.00  0.00    -0.248 OA
ATOM     19  OXT CYS A   1      34.750 -23.971 -11.756  0.00  0.00    -0.248 OA
ATOM     20  C   CYS A   1      35.843 -24.194 -11.163  0.00  0.00    +0.346 C 
ENDBRANCH  13  20
ENDBRANCH  12  13
ENDBRANCH   1  12
TORSDOF 9
ENDMDL
MODEL 8
REMARK VINA RESULT:      -5.5      3.070      5.080
REMARK  Name = 6992103
REMARK  9 active torsions:
REMARK  status: ('A' for Active; 'I' for Inactive)
REMARK    1  A    between atoms: SG_1  and  SG_2
REMARK    2  A    between atoms: SG_1  and  CB_12
REMARK    3  A    between atoms: SG_2  and  CB_3
REMARK    4  A    between atoms: CB_3  and  CA_4
REMARK    5  A    between atoms: CA_4  and  N_5
REMARK    6  A    between atoms: CA_4  and  C_11
REMARK    7  A    between atoms: CB_12  and  CA_13
REMARK    8  A    between atoms: CA_13  and  N_14
REMARK    9  A    between atoms: CA_13  and  C_20
REMARK                            x       y       z     vdW  Elec       q    Type
REMARK                         _______ _______ _______ _____ _____    ______ ____
ROOT
ATOM      1  SG  CYS A   1      36.172 -23.625 -12.341  0.00  0.00    -0.084 S 
ENDROOT
BRANCH   1   2
ATOM      2  SG  CYS A   1      37.172 -25.416 -12.225  0.00  0.00    -0.084 S 
BRANCH   2   3
ATOM      3  CB  CYS A   1      38.731 -25.023 -13.054  0.00  0.00    +0.058 C 
BRANCH   3   4
ATOM      4  CA  CYS A   1      38.916 -25.751 -14.388  0.00  0.00    +0.052 C 
BRANCH   4   5
ATOM      5  N   CYS A   1      37.934 -26.883 -14.409  0.00  0.00    +0.389 N 
ATOM      6  H1  CYS A   1      38.265 -27.632 -13.800  0.00  0.00    -0.088 HD
ATOM      7  H2  CYS A   1      37.840 -27.235 -15.361  0.00  0.00    -0.088 HD
ATOM      8  H3  CYS A   1      37.027 -26.552 -14.077  0.00  0.00    -0.088 HD
ENDBRANCH   4   5
BRANCH   4  11
ATOM      9  O   CYS A   1      41.065 -26.553 -13.786  0.00  0.00    -0.248 OA
ATOM     10  OXT CYS A   1      40.677 -26.007 -15.967  0.00  0.00    -0.248 OA
ATOM     11  C   CYS A   1      40.358 -26.151 -14.753  0.00  0.00    +0.346 C 
ENDBRANCH   4  11
ENDBRANCH   3   4
ENDBRANCH   2   3
ENDBRANCH   1   2
BRANCH   1  12
ATOM     12  CB  CYS A   1      34.633 -24.127 -13.181  0.00  0.00    +0.058 C 
BRANCH  12  13
ATOM     13  CA  CYS A   1      34.398 -23.406 -14.511  0.00  0.00    +0.052 C 
BRANCH  13  14
ATOM     14  N   CYS A   1      32.958 -22.995 -14.539  0.00  0.00    +0.389 N 
ATOM     15  H1  CYS A   1      32.418 -23.683 -15.064  0.00  0.00    -0.088 HD
ATOM     16  H2  CYS A   1      32.872 -22.083 -14.985  0.00  0.00    -0.088 HD
ATOM     17  H3  CYS A   1      32.601 -22.941 -13.584  0.00  0.00    -0.088 HD
ENDBRANCH  13  14
BRANCH  13  20
ATOM     18  O   CYS A   1      35.609 -25.149 -15.569  0.00  0.00    -0.248 OA
ATOM     19  OXT CYS A   1      34.511 -23.635 -16.875  0.00  0.00    -0.248 OA
ATOM     20  C   CYS A   1      34.878 -24.138 -15.776  0.00  0.00    +0.346 C 
ENDBRANCH  13  20
ENDBRANCH  12  13
ENDBRANCH   1  12
TORSDOF 9
ENDMDL
MODEL 9
REMARK VINA RESULT:      -5.5      3.023      3.431
REMARK  Name = 6992103
REMARK  9 active torsions:
REMARK  status: ('A' for Active; 'I' for Inactive)
REMARK    1  A    between atoms: SG_1  and  SG_2
REMARK    2  A    between atoms: SG_1  and  CB_12
REMARK    3  A    between atoms: SG_2  and  CB_3
REMARK    4  A    between atoms: CB_3  and  CA_4
REMARK    5  A    between atoms: CA_4  and  N_5
REMARK    6  A    between atoms: CA_4  and  C_11
REMARK    7  A    between atoms: CB_12  and  CA_13
REMARK    8  A    between atoms: CA_13  and  N_14
REMARK    9  A    between atoms: CA_13  and  C_20
REMARK                            x       y       z     vdW  Elec       q    Type
REMARK                         _______ _______ _______ _____ _____    ______ ____
ROOT
ATOM      1  SG  CYS A   1      38.072 -24.245 -11.900  0.00  0.00    -0.084 S 
ENDROOT
BRANCH   1   2
ATOM      2  SG  CYS A   1      36.612 -23.224 -12.922  0.00  0.00    -0.084 S 
BRANCH   2   3
ATOM      3  CB  CYS A   1      35.254 -24.420 -12.920  0.00  0.00    +0.058 C 
BRANCH   3   4
ATOM      4  CA  CYS A   1      34.157 -24.102 -13.939  0.00  0.00    +0.052 C 
BRANCH   4   5
ATOM      5  N   CYS A   1      33.022 -25.042 -13.669  0.00  0.00    +0.389 N 
ATOM      6  H1  CYS A   1      33.357 -26.004 -13.723  0.00  0.00    -0.088 HD
ATOM      7  H2  CYS A   1      32.288 -24.898 -14.362  0.00  0.00    -0.088 HD
ATOM      8  H3  CYS A   1      32.649 -24.864 -12.736  0.00  0.00    -0.088 HD
ENDBRANCH   4   5
BRANCH   4  11
ATOM      9  O   CYS A   1      35.372 -24.961 -15.786  0.00  0.00    -0.248 OA
ATOM     10  OXT CYS A   1      34.151 -23.056 -16.076  0.00  0.00    -0.248 OA
ATOM     11  C   CYS A   1      34.595 -24.037 -15.414  0.00  0.00    +0.346 C 
ENDBRANCH   4  11
ENDBRANCH   3   4
ENDBRANCH   2   3
ENDBRANCH   1   2
BRANCH   1  12
ATOM     12  CB  CYS A   1      38.310 -25.700 -12.972  0.00  0.00    +0.058 C 
BRANCH  12  13
ATOM     13  CA  CYS A   1      38.864 -25.356 -14.357  0.00  0.00    +0.052 C 
BRANCH  13  14
ATOM     14  N   CYS A   1      37.963 -26.003 -15.363  0.00  0.00    +0.389 N 
ATOM     15  H1  CYS A   1      37.658 -25.308 -16.045  0.00  0.00    -0.088 HD
ATOM     16  H2  CYS A   1      37.148 -26.394 -14.890  0.00  0.00    -0.088 HD
ATOM     17  H3  CYS A   1      38.467 -26.750 -15.842  0.00  0.00    -0.088 HD
ENDBRANCH  13  14
BRANCH  13  20
ATOM     18  O   CYS A   1      41.100 -24.598 -14.580  0.00  0.00    -0.248 OA
ATOM     19  OXT CYS A   1      40.685 -26.835 -14.753  0.00  0.00    -0.248 OA
ATOM     20  C   CYS A   1      40.363 -25.626 -14.577  0.00  0.00    +0.346 C 
ENDBRANCH  13  20
ENDBRANCH  12  13
ENDBRANCH   1  12
TORSDOF 9
ENDMDL
