MODEL 1
REMARK VINA RESULT:      -8.5      0.000      0.000
REMARK  Name = 185915
REMARK  5 active torsions:
REMARK  status: ('A' for Active; 'I' for Inactive)
REMARK    1  A    between atoms: C_1  and  C_2
REMARK    2  A    between atoms: C_1  and  CA_12
REMARK    3  A    between atoms: CA_12  and  N_13
REMARK    4  A    between atoms: CA_12  and  C_18
REMARK    5  A    between atoms: C_18  and  O_19
REMARK                            x       y       z     vdW  Elec       q    Type
REMARK                         _______ _______ _______ _____ _____    ______ ____
ROOT
ATOM      1  C   UNL     1      35.364 -17.165 -22.866  0.00  0.00    +0.015 C 
ENDROOT
BRANCH   1   2
ATOM      2  C   UNL     1      35.447 -18.314 -21.919  0.00  0.00    -0.024 C 
ATOM      3  C   UNL     1      34.342 -20.035 -20.600  0.00  0.00    -0.000 C 
ATOM      4  C   UNL     1      34.281 -18.951 -21.492  0.00  0.00    -0.004 C 
ATOM      5  C   UNL     1      35.602 -20.477 -20.134  0.00  0.00    -0.000 C 
ATOM      6  C   UNL     1      36.686 -18.750 -21.460  0.00  0.00    -0.004 C 
ATOM      7  C   UNL     1      36.765 -19.824 -20.574  0.00  0.00    -0.000 C 
ATOM      8  C   UNL     1      33.180 -20.688 -20.161  0.00  0.00    -0.000 C 
ATOM      9  C   UNL     1      35.664 -21.561 -19.242  0.00  0.00    -0.000 C 
ATOM     10  C   UNL     1      33.258 -21.763 -19.276  0.00  0.00    -0.000 C 
ATOM     11  C   UNL     1      34.498 -22.198 -18.817  0.00  0.00    -0.000 C 
ENDBRANCH   1   2
BRANCH   1  12
ATOM     12  CA  UNL     1      34.175 -16.219 -22.585  0.00  0.00    +0.040 C 
BRANCH  12  13
ATOM     13  N   UNL     1      33.702 -15.614 -23.828  0.00  0.00    +0.389 N 
ATOM     14  H1  UNL     1      33.518 -16.346 -24.514  0.00  0.00    -0.088 HD
ATOM     15  H2  UNL     1      34.412 -14.979 -24.190  0.00  0.00    -0.088 HD
ATOM     16  H3  UNL     1      32.842 -15.095 -23.646  0.00  0.00    -0.088 HD
ENDBRANCH  12  13
BRANCH  12  18
ATOM     17  OXT UNL     1      34.828 -15.191 -20.476  0.00  0.00    -0.253 OA
ATOM     18  C   UNL     1      34.569 -15.075 -21.667  0.00  0.00    +0.293 C 
BRANCH  18  19
ATOM     19  O   UNL     1      34.639 -13.887 -22.322  0.00  0.00    -0.482 OA
ATOM     20  H   UNL     1      35.034 -13.146 -21.906  0.00  0.00    +0.295 HD
ENDBRANCH  18  19
ENDBRANCH  12  18
ENDBRANCH   1  12
TORSDOF 5
ENDMDL
MODEL 2
REMARK VINA RESULT:      -8.5      2.038      2.938
REMARK  Name = 185915
REMARK  5 active torsions:
REMARK  status: ('A' for Active; 'I' for Inactive)
REMARK    1  A    between atoms: C_1  and  C_2
REMARK    2  A    between atoms: C_1  and  CA_12
REMARK    3  A    between atoms: CA_12  and  N_13
REMARK    4  A    between atoms: CA_12  and  C_18
REMARK    5  A    between atoms: C_18  and  O_19
REMARK                            x       y       z     vdW  Elec       q    Type
REMARK                         _______ _______ _______ _____ _____    ______ ____
ROOT
ATOM      1  C   UNL     1      35.357 -18.290 -22.559  0.00  0.00    +0.015 C 
ENDROOT
BRANCH   1   2
ATOM      2  C   UNL     1      34.789 -19.256 -21.575  0.00  0.00    -0.024 C 
ATOM      3  C   UNL     1      35.119 -20.890 -19.803  0.00  0.00    -0.000 C 
ATOM      4  C   UNL     1      35.639 -19.977 -20.735  0.00  0.00    -0.004 C 
ATOM      5  C   UNL     1      33.719 -21.076 -19.723  0.00  0.00    -0.000 C 
ATOM      6  C   UNL     1      33.412 -19.439 -21.496  0.00  0.00    -0.004 C 
ATOM      7  C   UNL     1      32.879 -20.342 -20.576  0.00  0.00    -0.000 C 
ATOM      8  C   UNL     1      35.959 -21.623 -18.949  0.00  0.00    -0.000 C 
ATOM      9  C   UNL     1      33.199 -21.989 -18.790  0.00  0.00    -0.000 C 
ATOM     10  C   UNL     1      35.427 -22.525 -18.029  0.00  0.00    -0.000 C 
ATOM     11  C   UNL     1      34.049 -22.709 -17.950  0.00  0.00    -0.000 C 
ENDBRANCH   1   2
BRANCH   1  12
ATOM     12  CA  UNL     1      34.562 -18.217 -23.882  0.00  0.00    +0.040 C 
BRANCH  12  13
ATOM     13  N   UNL     1      34.880 -19.363 -24.731  0.00  0.00    +0.389 N 
ATOM     14  H1  UNL     1      35.879 -19.558 -24.680  0.00  0.00    -0.088 HD
ATOM     15  H2  UNL     1      34.623 -19.153 -25.695  0.00  0.00    -0.088 HD
ATOM     16  H3  UNL     1      34.357 -20.178 -24.410  0.00  0.00    -0.088 HD
ENDBRANCH  12  13
BRANCH  12  18
ATOM     17  OXT UNL     1      34.556 -16.761 -25.835  0.00  0.00    -0.253 OA
ATOM     18  C   UNL     1      34.910 -16.974 -24.681  0.00  0.00    +0.293 C 
BRANCH  18  19
ATOM     19  O   UNL     1      35.640 -16.083 -23.961  0.00  0.00    -0.482 OA
ATOM     20  H   UNL     1      36.134 -16.374 -23.220  0.00  0.00    +0.295 HD
ENDBRANCH  18  19
ENDBRANCH  12  18
ENDBRANCH   1  12
TORSDOF 5
ENDMDL
MODEL 3
REMARK VINA RESULT:      -8.4      1.641      1.932
REMARK  Name = 185915
REMARK  5 active torsions:
REMARK  status: ('A' for Active; 'I' for Inactive)
REMARK    1  A    between atoms: C_1  and  C_2
REMARK    2  A    between atoms: C_1  and  CA_12
REMARK    3  A    between atoms: CA_12  and  N_13
REMARK    4  A    between atoms: CA_12  and  C_18
REMARK    5  A    between atoms: C_18  and  O_19
REMARK                            x       y       z     vdW  Elec       q    Type
REMARK                         _______ _______ _______ _____ _____    ______ ____
ROOT
ATOM      1  C   UNL     1      34.954 -16.667 -22.841  0.00  0.00    +0.015 C 
ENDROOT
BRANCH   1   2
ATOM      2  C   UNL     1      35.149 -17.892 -22.013  0.00  0.00    -0.024 C 
ATOM      3  C   UNL     1      34.208 -19.730 -20.726  0.00  0.00    -0.000 C 
ATOM      4  C   UNL     1      34.042 -18.575 -21.508  0.00  0.00    -0.004 C 
ATOM      5  C   UNL     1      35.515 -20.199 -20.452  0.00  0.00    -0.000 C 
ATOM      6  C   UNL     1      36.434 -18.354 -21.744  0.00  0.00    -0.004 C 
ATOM      7  C   UNL     1      36.617 -19.499 -20.969  0.00  0.00    -0.000 C 
ATOM      8  C   UNL     1      33.106 -20.431 -20.210  0.00  0.00    -0.000 C 
ATOM      9  C   UNL     1      35.681 -21.354 -19.671  0.00  0.00    -0.000 C 
ATOM     10  C   UNL     1      33.288 -21.576 -19.436  0.00  0.00    -0.000 C 
ATOM     11  C   UNL     1      34.574 -22.037 -19.167  0.00  0.00    -0.000 C 
ENDBRANCH   1   2
BRANCH   1  12
ATOM     12  CA  UNL     1      34.129 -16.914 -24.124  0.00  0.00    +0.040 C 
BRANCH  12  13
ATOM     13  N   UNL     1      34.874 -17.762 -25.053  0.00  0.00    +0.389 N 
ATOM     14  H1  UNL     1      35.818 -17.910 -24.696  0.00  0.00    -0.088 HD
ATOM     15  H2  UNL     1      34.921 -17.307 -25.964  0.00  0.00    -0.088 HD
ATOM     16  H3  UNL     1      34.401 -18.661 -25.145  0.00  0.00    -0.088 HD
ENDBRANCH  12  13
BRANCH  12  18
ATOM     17  OXT UNL     1      33.661 -14.532 -24.323  0.00  0.00    -0.253 OA
ATOM     18  C   UNL     1      33.830 -15.621 -24.860  0.00  0.00    +0.293 C 
BRANCH  18  19
ATOM     19  O   UNL     1      33.799 -15.788 -26.208  0.00  0.00    -0.482 OA
ATOM     20  H   UNL     1      34.597 -15.920 -26.681  0.00  0.00    +0.295 HD
ENDBRANCH  18  19
ENDBRANCH  12  18
ENDBRANCH   1  12
TORSDOF 5
ENDMDL
MODEL 4
REMARK VINA RESULT:      -8.4      0.986      2.018
REMARK  Name = 185915
REMARK  5 active torsions:
REMARK  status: ('A' for Active; 'I' for Inactive)
REMARK    1  A    between atoms: C_1  and  C_2
REMARK    2  A    between atoms: C_1  and  CA_12
REMARK    3  A    between atoms: CA_12  and  N_13
REMARK    4  A    between atoms: CA_12  and  C_18
REMARK    5  A    between atoms: C_18  and  O_19
REMARK                            x       y       z     vdW  Elec       q    Type
REMARK                         _______ _______ _______ _____ _____    ______ ____
ROOT
ATOM      1  C   UNL     1      35.826 -18.087 -22.516  0.00  0.00    +0.015 C 
ENDROOT
BRANCH   1   2
ATOM      2  C   UNL     1      35.148 -19.065 -21.617  0.00  0.00    -0.024 C 
ATOM      3  C   UNL     1      35.277 -20.751 -19.869  0.00  0.00    -0.000 C 
ATOM      4  C   UNL     1      35.901 -19.827 -20.722  0.00  0.00    -0.004 C 
ATOM      5  C   UNL     1      33.872 -20.907 -19.924  0.00  0.00    -0.000 C 
ATOM      6  C   UNL     1      33.766 -19.218 -21.671  0.00  0.00    -0.004 C 
ATOM      7  C   UNL     1      33.131 -20.132 -20.831  0.00  0.00    -0.000 C 
ATOM      8  C   UNL     1      36.018 -21.526 -18.961  0.00  0.00    -0.000 C 
ATOM      9  C   UNL     1      33.249 -21.832 -19.070  0.00  0.00    -0.000 C 
ATOM     10  C   UNL     1      35.384 -22.439 -18.120  0.00  0.00    -0.000 C 
ATOM     11  C   UNL     1      34.001 -22.593 -18.175  0.00  0.00    -0.000 C 
ENDBRANCH   1   2
BRANCH   1  12
ATOM     12  CA  UNL     1      34.863 -17.052 -23.140  0.00  0.00    +0.040 C 
BRANCH  12  13
ATOM     13  N   UNL     1      35.296 -16.705 -24.492  0.00  0.00    +0.389 N 
ATOM     14  H1  UNL     1      35.569 -15.723 -24.520  0.00  0.00    -0.088 HD
ATOM     15  H2  UNL     1      34.530 -16.864 -25.146  0.00  0.00    -0.088 HD
ATOM     16  H3  UNL     1      36.092 -17.287 -24.753  0.00  0.00    -0.088 HD
ENDBRANCH  12  13
BRANCH  12  18
ATOM     17  OXT UNL     1      34.793 -15.687 -21.124  0.00  0.00    -0.253 OA
ATOM     18  C   UNL     1      34.834 -15.758 -22.347  0.00  0.00    +0.293 C 
BRANCH  18  19
ATOM     19  O   UNL     1      34.893 -14.661 -23.144  0.00  0.00    -0.482 OA
ATOM     20  H   UNL     1      35.654 -14.502 -23.667  0.00  0.00    +0.295 HD
ENDBRANCH  18  19
ENDBRANCH  12  18
ENDBRANCH   1  12
TORSDOF 5
ENDMDL
MODEL 5
REMARK VINA RESULT:      -8.2      3.529      6.029
REMARK  Name = 185915
REMARK  5 active torsions:
REMARK  status: ('A' for Active; 'I' for Inactive)
REMARK    1  A    between atoms: C_1  and  C_2
REMARK    2  A    between atoms: C_1  and  CA_12
REMARK    3  A    between atoms: CA_12  and  N_13
REMARK    4  A    between atoms: CA_12  and  C_18
REMARK    5  A    between atoms: C_18  and  O_19
REMARK                            x       y       z     vdW  Elec       q    Type
REMARK                         _______ _______ _______ _____ _____    ______ ____
ROOT
ATOM      1  C   UNL     1      35.071 -20.218 -20.427  0.00  0.00    +0.015 C 
ENDROOT
BRANCH   1   2
ATOM      2  C   UNL     1      34.912 -19.116 -21.418  0.00  0.00    -0.024 C 
ATOM      3  C   UNL     1      34.625 -16.748 -21.901  0.00  0.00    -0.000 C 
ATOM      4  C   UNL     1      34.775 -17.798 -20.980  0.00  0.00    -0.004 C 
ATOM      5  C   UNL     1      34.610 -17.039 -23.285  0.00  0.00    -0.000 C 
ATOM      6  C   UNL     1      34.897 -19.401 -22.780  0.00  0.00    -0.004 C 
ATOM      7  C   UNL     1      34.748 -18.371 -23.709  0.00  0.00    -0.000 C 
ATOM      8  C   UNL     1      34.487 -15.416 -21.478  0.00  0.00    -0.000 C 
ATOM      9  C   UNL     1      34.459 -15.989 -24.206  0.00  0.00    -0.000 C 
ATOM     10  C   UNL     1      34.338 -14.386 -22.405  0.00  0.00    -0.000 C 
ATOM     11  C   UNL     1      34.324 -14.672 -23.768  0.00  0.00    -0.000 C 
ENDBRANCH   1   2
BRANCH   1  12
ATOM     12  CA  UNL     1      33.821 -21.116 -20.296  0.00  0.00    +0.040 C 
BRANCH  12  13
ATOM     13  N   UNL     1      32.644 -20.307 -19.988  0.00  0.00    +0.389 N 
ATOM     14  H1  UNL     1      31.832 -20.915 -19.881  0.00  0.00    -0.088 HD
ATOM     15  H2  UNL     1      32.477 -19.647 -20.747  0.00  0.00    -0.088 HD
ATOM     16  H3  UNL     1      32.802 -19.794 -19.120  0.00  0.00    -0.088 HD
ENDBRANCH  12  13
BRANCH  12  18
ATOM     17  OXT UNL     1      35.029 -22.568 -18.758  0.00  0.00    -0.253 OA
ATOM     18  C   UNL     1      33.964 -22.122 -19.168  0.00  0.00    +0.293 C 
BRANCH  18  19
ATOM     19  O   UNL     1      32.768 -22.461 -18.622  0.00  0.00    -0.482 OA
ATOM     20  H   UNL     1      32.689 -22.562 -17.693  0.00  0.00    +0.295 HD
ENDBRANCH  18  19
ENDBRANCH  12  18
ENDBRANCH   1  12
TORSDOF 5
ENDMDL
MODEL 6
REMARK VINA RESULT:      -8.1      4.653      6.680
REMARK  Name = 185915
REMARK  5 active torsions:
REMARK  status: ('A' for Active; 'I' for Inactive)
REMARK    1  A    between atoms: C_1  and  C_2
REMARK    2  A    between atoms: C_1  and  CA_12
REMARK    3  A    between atoms: CA_12  and  N_13
REMARK    4  A    between atoms: CA_12  and  C_18
REMARK    5  A    between atoms: C_18  and  O_19
REMARK                            x       y       z     vdW  Elec       q    Type
REMARK                         _______ _______ _______ _____ _____    ______ ____
ROOT
ATOM      1  C   UNL     1      33.568 -23.250 -18.264  0.00  0.00    +0.015 C 
ENDROOT
BRANCH   1   2
ATOM      2  C   UNL     1      34.319 -22.172 -18.969  0.00  0.00    -0.024 C 
ATOM      3  C   UNL     1      34.331 -20.243 -20.452  0.00  0.00    -0.000 C 
ATOM      4  C   UNL     1      33.638 -21.264 -19.781  0.00  0.00    -0.004 C 
ATOM      5  C   UNL     1      35.734 -20.143 -20.299  0.00  0.00    -0.000 C 
ATOM      6  C   UNL     1      35.699 -22.073 -18.819  0.00  0.00    -0.004 C 
ATOM      7  C   UNL     1      36.403 -21.065 -19.478  0.00  0.00    -0.000 C 
ATOM      8  C   UNL     1      33.662 -19.320 -21.272  0.00  0.00    -0.000 C 
ATOM      9  C   UNL     1      36.427 -19.122 -20.970  0.00  0.00    -0.000 C 
ATOM     10  C   UNL     1      34.365 -18.312 -21.931  0.00  0.00    -0.000 C 
ATOM     11  C   UNL     1      35.745 -18.213 -21.780  0.00  0.00    -0.000 C 
ENDBRANCH   1   2
BRANCH   1  12
ATOM     12  CA  UNL     1      33.270 -22.927 -16.782  0.00  0.00    +0.040 C 
BRANCH  12  13
ATOM     13  N   UNL     1      34.099 -23.749 -15.905  0.00  0.00    +0.389 N 
ATOM     14  H1  UNL     1      33.741 -24.704 -15.895  0.00  0.00    -0.088 HD
ATOM     15  H2  UNL     1      34.077 -23.368 -14.960  0.00  0.00    -0.088 HD
ATOM     16  H3  UNL     1      35.060 -23.750 -16.249  0.00  0.00    -0.088 HD
ENDBRANCH  12  13
BRANCH  12  18
ATOM     17  OXT UNL     1      31.469 -24.015 -15.556  0.00  0.00    -0.253 OA
ATOM     18  C   UNL     1      31.826 -23.222 -16.419  0.00  0.00    +0.293 C 
BRANCH  18  19
ATOM     19  O   UNL     1      30.948 -22.478 -17.141  0.00  0.00    -0.482 OA
ATOM     20  H   UNL     1      31.190 -22.161 -17.989  0.00  0.00    +0.295 HD
ENDBRANCH  18  19
ENDBRANCH  12  18
ENDBRANCH   1  12
TORSDOF 5
ENDMDL
MODEL 7
REMARK VINA RESULT:      -8.0      7.043      9.203
REMARK  Name = 185915
REMARK  5 active torsions:
REMARK  status: ('A' for Active; 'I' for Inactive)
REMARK    1  A    between atoms: C_1  and  C_2
REMARK    2  A    between atoms: C_1  and  CA_12
REMARK    3  A    between atoms: CA_12  and  N_13
REMARK    4  A    between atoms: CA_12  and  C_18
REMARK    5  A    between atoms: C_18  and  O_19
REMARK                            x       y       z     vdW  Elec       q    Type
REMARK                         _______ _______ _______ _____ _____    ______ ____
ROOT
ATOM      1  C   UNL     1      36.054 -24.247 -14.276  0.00  0.00    +0.015 C 
ENDROOT
BRANCH   1   2
ATOM      2  C   UNL     1      36.015 -23.459 -15.541  0.00  0.00    -0.024 C 
ATOM      3  C   UNL     1      34.786 -22.660 -17.483  0.00  0.00    -0.000 C 
ATOM      4  C   UNL     1      34.839 -23.399 -16.289  0.00  0.00    -0.004 C 
ATOM      5  C   UNL     1      35.942 -21.975 -17.924  0.00  0.00    -0.000 C 
ATOM      6  C   UNL     1      37.152 -22.784 -15.975  0.00  0.00    -0.004 C 
ATOM      7  C   UNL     1      37.117 -22.046 -17.159  0.00  0.00    -0.000 C 
ATOM      8  C   UNL     1      33.611 -22.588 -18.248  0.00  0.00    -0.000 C 
ATOM      9  C   UNL     1      35.889 -21.236 -19.118  0.00  0.00    -0.000 C 
ATOM     10  C   UNL     1      33.575 -21.850 -19.430  0.00  0.00    -0.000 C 
ATOM     11  C   UNL     1      34.713 -21.175 -19.865  0.00  0.00    -0.000 C 
ENDBRANCH   1   2
BRANCH   1  12
ATOM     12  CA  UNL     1      36.885 -25.545 -14.383  0.00  0.00    +0.040 C 
BRANCH  12  13
ATOM     13  N   UNL     1      36.043 -26.654 -14.825  0.00  0.00    +0.389 N 
ATOM     14  H1  UNL     1      35.691 -26.461 -15.762  0.00  0.00    -0.088 HD
ATOM     15  H2  UNL     1      35.260 -26.764 -14.182  0.00  0.00    -0.088 HD
ATOM     16  H3  UNL     1      36.594 -27.513 -14.839  0.00  0.00    -0.088 HD
ENDBRANCH  12  13
BRANCH  12  18
ATOM     17  OXT UNL     1      36.822 -26.136 -12.020  0.00  0.00    -0.253 OA
ATOM     18  C   UNL     1      37.472 -25.951 -13.043  0.00  0.00    +0.293 C 
BRANCH  18  19
ATOM     19  O   UNL     1      38.818 -26.127 -13.099  0.00  0.00    -0.482 OA
ATOM     20  H   UNL     1      39.173 -26.896 -13.500  0.00  0.00    +0.295 HD
ENDBRANCH  18  19
ENDBRANCH  12  18
ENDBRANCH   1  12
TORSDOF 5
ENDMDL
MODEL 8
REMARK VINA RESULT:      -8.0      6.955      9.205
REMARK  Name = 185915
REMARK  5 active torsions:
REMARK  status: ('A' for Active; 'I' for Inactive)
REMARK    1  A    between atoms: C_1  and  C_2
REMARK    2  A    between atoms: C_1  and  CA_12
REMARK    3  A    between atoms: CA_12  and  N_13
REMARK    4  A    between atoms: CA_12  and  C_18
REMARK    5  A    between atoms: C_18  and  O_19
REMARK                            x       y       z     vdW  Elec       q    Type
REMARK                         _______ _______ _______ _____ _____    ______ ____
ROOT
ATOM      1  C   UNL     1      35.787 -23.891 -13.574  0.00  0.00    +0.015 C 
ENDROOT
BRANCH   1   2
ATOM      2  C   UNL     1      35.922 -23.272 -14.924  0.00  0.00    -0.024 C 
ATOM      3  C   UNL     1      34.957 -22.721 -17.088  0.00  0.00    -0.000 C 
ATOM      4  C   UNL     1      34.846 -23.299 -15.813  0.00  0.00    -0.004 C 
ATOM      5  C   UNL     1      36.174 -22.108 -17.467  0.00  0.00    -0.000 C 
ATOM      6  C   UNL     1      37.119 -22.669 -15.297  0.00  0.00    -0.004 C 
ATOM      7  C   UNL     1      37.246 -22.090 -16.560  0.00  0.00    -0.000 C 
ATOM      8  C   UNL     1      33.885 -22.737 -17.995  0.00  0.00    -0.000 C 
ATOM      9  C   UNL     1      36.285 -21.529 -18.743  0.00  0.00    -0.000 C 
ATOM     10  C   UNL     1      34.011 -22.159 -19.257  0.00  0.00    -0.000 C 
ATOM     11  C   UNL     1      35.209 -21.556 -19.631  0.00  0.00    -0.000 C 
ENDBRANCH   1   2
BRANCH   1  12
ATOM     12  CA  UNL     1      37.125 -24.401 -12.993  0.00  0.00    +0.040 C 
BRANCH  12  13
ATOM     13  N   UNL     1      37.021 -25.815 -12.640  0.00  0.00    +0.389 N 
ATOM     14  H1  UNL     1      36.832 -26.362 -13.479  0.00  0.00    -0.088 HD
ATOM     15  H2  UNL     1      36.263 -25.944 -11.971  0.00  0.00    -0.088 HD
ATOM     16  H3  UNL     1      37.899 -26.126 -12.223  0.00  0.00    -0.088 HD
ENDBRANCH  12  13
BRANCH  12  18
ATOM     17  OXT UNL     1      38.347 -22.774 -11.654  0.00  0.00    -0.253 OA
ATOM     18  C   UNL     1      37.507 -23.663 -11.722  0.00  0.00    +0.293 C 
BRANCH  18  19
ATOM     19  O   UNL     1      36.782 -24.072 -10.649  0.00  0.00    -0.482 OA
ATOM     20  H   UNL     1      36.974 -23.731  -9.797  0.00  0.00    +0.295 HD
ENDBRANCH  18  19
ENDBRANCH  12  18
ENDBRANCH   1  12
TORSDOF 5
ENDMDL
MODEL 9
REMARK VINA RESULT:      -8.0      3.106      6.281
REMARK  Name = 185915
REMARK  5 active torsions:
REMARK  status: ('A' for Active; 'I' for Inactive)
REMARK    1  A    between atoms: C_1  and  C_2
REMARK    2  A    between atoms: C_1  and  CA_12
REMARK    3  A    between atoms: CA_12  and  N_13
REMARK    4  A    between atoms: CA_12  and  C_18
REMARK    5  A    between atoms: C_18  and  O_19
REMARK                            x       y       z     vdW  Elec       q    Type
REMARK                         _______ _______ _______ _____ _____    ______ ____
ROOT
ATOM      1  C   UNL     1      35.894 -18.513 -21.662  0.00  0.00    +0.015 C 
ENDROOT
BRANCH   1   2
ATOM      2  C   UNL     1      35.271 -17.730 -22.767  0.00  0.00    -0.024 C 
ATOM      3  C   UNL     1      34.277 -15.663 -23.578  0.00  0.00    -0.000 C 
ATOM      4  C   UNL     1      34.866 -16.413 -22.547  0.00  0.00    -0.004 C 
ATOM      5  C   UNL     1      34.095 -16.256 -24.849  0.00  0.00    -0.000 C 
ATOM      6  C   UNL     1      35.092 -18.314 -24.018  0.00  0.00    -0.004 C 
ATOM      7  C   UNL     1      34.508 -17.583 -25.053  0.00  0.00    -0.000 C 
ATOM      8  C   UNL     1      33.864 -14.336 -23.375  0.00  0.00    -0.000 C 
ATOM      9  C   UNL     1      33.506 -15.506 -25.880  0.00  0.00    -0.000 C 
ATOM     10  C   UNL     1      33.282 -13.605 -24.409  0.00  0.00    -0.000 C 
ATOM     11  C   UNL     1      33.102 -14.189 -25.660  0.00  0.00    -0.000 C 
ENDBRANCH   1   2
BRANCH   1  12
ATOM     12  CA  UNL     1      35.160 -19.836 -21.351  0.00  0.00    +0.040 C 
BRANCH  12  13
ATOM     13  N   UNL     1      33.801 -19.567 -20.888  0.00  0.00    +0.389 N 
ATOM     14  H1  UNL     1      33.788 -18.696 -20.357  0.00  0.00    -0.088 HD
ATOM     15  H2  UNL     1      33.486 -20.333 -20.293  0.00  0.00    -0.088 HD
ATOM     16  H3  UNL     1      33.178 -19.484 -21.692  0.00  0.00    -0.088 HD
ENDBRANCH  12  13
BRANCH  12  18
ATOM     17  OXT UNL     1      35.555 -21.759 -19.910  0.00  0.00    -0.253 OA
ATOM     18  C   UNL     1      35.849 -20.618 -20.248  0.00  0.00    +0.293 C 
BRANCH  18  19
ATOM     19  O   UNL     1      36.870 -19.925 -19.682  0.00  0.00    -0.482 OA
ATOM     20  H   UNL     1      37.471 -20.360 -19.109  0.00  0.00    +0.295 HD
ENDBRANCH  18  19
ENDBRANCH  12  18
ENDBRANCH   1  12
TORSDOF 5
ENDMDL
