MODEL 1
REMARK VINA RESULT:     -10.4      0.000      0.000
REMARK  Name = 449409
REMARK  12 active torsions:
REMARK  status: ('A' for Active; 'I' for Inactive)
REMARK    1  A    between atoms: C_2  and  O_15
REMARK    2  A    between atoms: C_3  and  O_17
REMARK    3  A    between atoms: C_4  and  C_19
REMARK    4  A    between atoms: C_5  and  N_8
REMARK    5  A    between atoms: C_19  and  O_20
REMARK    6  A    between atoms: O_20  and  P_21
REMARK    7  A    between atoms: P_21  and  O_23
REMARK    8  A    between atoms: P_21  and  O_25
REMARK    9  A    between atoms: O_25  and  P_26
REMARK   10  A    between atoms: P_26  and  O_28
REMARK   11  A    between atoms: P_26  and  O_30
REMARK   12  A    between atoms: O_30  and  C_31
REMARK                            x       y       z     vdW  Elec       q    Type
REMARK                         _______ _______ _______ _____ _____    ______ ____
ROOT
ATOM      1  O   UNL     1      34.904 -25.273 -15.065  0.00  0.00    -0.333 OA
ATOM      2  C   UNL     1      33.595 -23.963 -13.588  0.00  0.00    +0.171 C 
ATOM      3  C   UNL     1      34.976 -24.128 -12.992  0.00  0.00    +0.187 C 
ATOM      4  C   UNL     1      33.838 -24.299 -15.053  0.00  0.00    +0.176 C 
ATOM      5  C   UNL     1      35.513 -25.321 -13.765  0.00  0.00    +0.229 C 
ENDROOT
BRANCH   5   8
ATOM      6  O   UNL     1      37.345 -26.446 -11.933  0.00  0.00    -0.252 OA
ATOM      7  O   UNL     1      40.966 -25.099 -14.447  0.00  0.00    -0.270 OA
ATOM      8  N   UNL     1      36.939 -25.280 -13.916  0.00  0.00    -0.217 N 
ATOM      9  N   UNL     1      39.147 -25.774 -13.185  0.00  0.00    -0.236 N 
ATOM     10  C   UNL     1      37.771 -25.874 -12.938  0.00  0.00    +0.315 C 
ATOM     11  C   UNL     1      37.502 -24.655 -15.024  0.00  0.00    +0.076 C 
ATOM     12  C   UNL     1      38.815 -24.567 -15.246  0.00  0.00    +0.074 C 
ATOM     13  C   UNL     1      39.753 -25.162 -14.272  0.00  0.00    +0.254 C 
ATOM     14  H   UNL     1      39.745 -26.180 -12.518  0.00  0.00    +0.159 HD
ENDBRANCH   5   8
BRANCH   2  15
ATOM     15  O   UNL     1      32.705 -24.944 -13.055  0.00  0.00    -0.379 OA
ATOM     16  H   UNL     1      32.498 -25.599 -13.740  0.00  0.00    +0.211 HD
ENDBRANCH   2  15
BRANCH   3  17
ATOM     17  O   UNL     1      34.935 -24.358 -11.599  0.00  0.00    -0.378 OA
ATOM     18  H   UNL     1      34.317 -23.734 -11.187  0.00  0.00    +0.211 HD
ENDBRANCH   3  17
BRANCH   4  19
ATOM     19  C   UNL     1      34.282 -23.100 -15.881  0.00  0.00    +0.186 C 
BRANCH  19  20
ATOM     20  O   UNL     1      34.548 -23.534 -17.203  0.00  0.00    -0.270 OA
BRANCH  20  21
ATOM     21  P   UNL     1      33.927 -22.726 -18.461  0.00  0.00    +0.485 P 
ATOM     22  O   UNL     1      32.487 -22.340 -18.293  0.00  0.00    -0.227 OA
BRANCH  21  23
ATOM     23  O   UNL     1      34.216 -23.690 -19.729  0.00  0.00    -0.302 OA
ATOM     24  H   UNL     1      35.157 -23.924 -19.749  0.00  0.00    +0.222 HD
ENDBRANCH  21  23
BRANCH  21  25
ATOM     25  O   UNL     1      34.938 -21.487 -18.689  0.00  0.00    -0.176 OA
BRANCH  25  26
ATOM     26  P   UNL     1      35.620 -20.909 -20.036  0.00  0.00    +0.539 P 
ATOM     27  O   UNL     1      36.111 -21.963 -20.986  0.00  0.00    -0.215 OA
BRANCH  26  28
ATOM     28  O   UNL     1      36.757 -19.912 -19.461  0.00  0.00    -0.293 OA
ATOM     29  H   UNL     1      36.426 -19.000 -19.480  0.00  0.00    +0.223 HD
ENDBRANCH  26  28
BRANCH  26  30
ATOM     30  O   UNL     1      34.487 -19.919 -20.619  0.00  0.00    -0.402 OA
BRANCH  30  31
ATOM     31  C   UNL     1      34.692 -18.961 -21.572  0.00  0.00    +0.149 C 
ATOM     32  C   UNL     1      34.758 -17.620 -21.202  0.00  0.00    +0.037 C 
ATOM     33  C   UNL     1      34.832 -19.332 -22.905  0.00  0.00    +0.037 C 
ATOM     34  C   UNL     1      34.965 -16.643 -22.174  0.00  0.00    +0.003 C 
ATOM     35  C   UNL     1      35.040 -18.353 -23.879  0.00  0.00    +0.003 C 
ATOM     36  C   UNL     1      35.106 -17.009 -23.513  0.00  0.00    +0.000 C 
ENDBRANCH  30  31
ENDBRANCH  26  30
ENDBRANCH  25  26
ENDBRANCH  21  25
ENDBRANCH  20  21
ENDBRANCH  19  20
ENDBRANCH   4  19
TORSDOF 12
ENDMDL
MODEL 2
REMARK VINA RESULT:      -9.8      6.700     10.462
REMARK  Name = 449409
REMARK  12 active torsions:
REMARK  status: ('A' for Active; 'I' for Inactive)
REMARK    1  A    between atoms: C_2  and  O_15
REMARK    2  A    between atoms: C_3  and  O_17
REMARK    3  A    between atoms: C_4  and  C_19
REMARK    4  A    between atoms: C_5  and  N_8
REMARK    5  A    between atoms: C_19  and  O_20
REMARK    6  A    between atoms: O_20  and  P_21
REMARK    7  A    between atoms: P_21  and  O_23
REMARK    8  A    between atoms: P_21  and  O_25
REMARK    9  A    between atoms: O_25  and  P_26
REMARK   10  A    between atoms: P_26  and  O_28
REMARK   11  A    between atoms: P_26  and  O_30
REMARK   12  A    between atoms: O_30  and  C_31
REMARK                            x       y       z     vdW  Elec       q    Type
REMARK                         _______ _______ _______ _____ _____    ______ ____
ROOT
ATOM      1  O   UNL     1      35.284 -17.257 -20.778  0.00  0.00    -0.333 OA
ATOM      2  C   UNL     1      34.722 -16.629 -22.992  0.00  0.00    +0.171 C 
ATOM      3  C   UNL     1      34.450 -18.109 -22.825  0.00  0.00    +0.187 C 
ATOM      4  C   UNL     1      34.769 -16.149 -21.548  0.00  0.00    +0.176 C 
ATOM      5  C   UNL     1      35.266 -18.443 -21.588  0.00  0.00    +0.229 C 
ENDROOT
BRANCH   5   8
ATOM      6  O   UNL     1      36.771 -20.406 -20.226  0.00  0.00    -0.252 OA
ATOM      7  O   UNL     1      32.971 -22.527 -18.707  0.00  0.00    -0.270 OA
ATOM      8  N   UNL     1      34.696 -19.518 -20.829  0.00  0.00    -0.217 N 
ATOM      9  N   UNL     1      34.879 -21.462 -19.471  0.00  0.00    -0.236 N 
ATOM     10  C   UNL     1      35.540 -20.452 -20.184  0.00  0.00    +0.315 C 
ATOM     11  C   UNL     1      33.315 -19.641 -20.729  0.00  0.00    +0.076 C 
ATOM     12  C   UNL     1      32.698 -20.608 -20.046  0.00  0.00    +0.074 C 
ATOM     13  C   UNL     1      33.508 -21.625 -19.344  0.00  0.00    +0.254 C 
ATOM     14  H   UNL     1      35.446 -22.123 -19.015  0.00  0.00    +0.159 HD
ENDBRANCH   5   8
BRANCH   2  15
ATOM     15  O   UNL     1      36.015 -16.425 -23.564  0.00  0.00    -0.379 OA
ATOM     16  H   UNL     1      36.468 -15.710 -23.089  0.00  0.00    +0.211 HD
ENDBRANCH   2  15
BRANCH   3  17
ATOM     17  O   UNL     1      34.846 -18.858 -23.956  0.00  0.00    -0.378 OA
ATOM     18  H   UNL     1      35.811 -18.830 -24.040  0.00  0.00    +0.211 HD
ENDBRANCH   3  17
BRANCH   4  19
ATOM     19  C   UNL     1      33.399 -15.781 -20.991  0.00  0.00    +0.186 C 
BRANCH  19  20
ATOM     20  O   UNL     1      32.624 -15.212 -22.030  0.00  0.00    -0.270 OA
BRANCH  20  21
ATOM     21  P   UNL     1      32.711 -13.623 -22.329  0.00  0.00    +0.485 P 
ATOM     22  O   UNL     1      31.933 -13.181 -23.534  0.00  0.00    -0.227 OA
BRANCH  21  23
ATOM     23  O   UNL     1      34.299 -13.325 -22.413  0.00  0.00    -0.302 OA
ATOM     24  H   UNL     1      34.642 -13.143 -21.524  0.00  0.00    +0.222 HD
ENDBRANCH  21  23
BRANCH  21  25
ATOM     25  O   UNL     1      32.267 -12.923 -20.943  0.00  0.00    -0.176 OA
BRANCH  25  26
ATOM     26  P   UNL     1      31.534 -11.511 -20.656  0.00  0.00    +0.539 P 
ATOM     27  O   UNL     1      31.378 -11.176 -19.201  0.00  0.00    -0.215 OA
BRANCH  26  28
ATOM     28  O   UNL     1      30.152 -11.651 -21.486  0.00  0.00    -0.293 OA
ATOM     29  H   UNL     1      29.625 -10.844 -21.374  0.00  0.00    +0.223 HD
ENDBRANCH  26  28
BRANCH  26  30
ATOM     30  O   UNL     1      32.408 -10.467 -21.522  0.00  0.00    -0.402 OA
BRANCH  30  31
ATOM     31  C   UNL     1      32.126  -9.138 -21.674  0.00  0.00    +0.149 C 
ATOM     32  C   UNL     1      31.516  -8.690 -22.842  0.00  0.00    +0.037 C 
ATOM     33  C   UNL     1      32.452  -8.243 -20.661  0.00  0.00    +0.037 C 
ATOM     34  C   UNL     1      31.229  -7.334 -22.997  0.00  0.00    +0.003 C 
ATOM     35  C   UNL     1      32.165  -6.885 -20.816  0.00  0.00    +0.003 C 
ATOM     36  C   UNL     1      31.554  -6.432 -21.985  0.00  0.00    +0.000 C 
ENDBRANCH  30  31
ENDBRANCH  26  30
ENDBRANCH  25  26
ENDBRANCH  21  25
ENDBRANCH  20  21
ENDBRANCH  19  20
ENDBRANCH   4  19
TORSDOF 12
ENDMDL
MODEL 3
REMARK VINA RESULT:      -9.6      6.333      9.987
REMARK  Name = 449409
REMARK  12 active torsions:
REMARK  status: ('A' for Active; 'I' for Inactive)
REMARK    1  A    between atoms: C_2  and  O_15
REMARK    2  A    between atoms: C_3  and  O_17
REMARK    3  A    between atoms: C_4  and  C_19
REMARK    4  A    between atoms: C_5  and  N_8
REMARK    5  A    between atoms: C_19  and  O_20
REMARK    6  A    between atoms: O_20  and  P_21
REMARK    7  A    between atoms: P_21  and  O_23
REMARK    8  A    between atoms: P_21  and  O_25
REMARK    9  A    between atoms: O_25  and  P_26
REMARK   10  A    between atoms: P_26  and  O_28
REMARK   11  A    between atoms: P_26  and  O_30
REMARK   12  A    between atoms: O_30  and  C_31
REMARK                            x       y       z     vdW  Elec       q    Type
REMARK                         _______ _______ _______ _____ _____    ______ ____
ROOT
ATOM      1  O   UNL     1      35.375 -17.609 -20.677  0.00  0.00    -0.333 OA
ATOM      2  C   UNL     1      34.767 -17.033 -22.893  0.00  0.00    +0.171 C 
ATOM      3  C   UNL     1      34.564 -18.522 -22.708  0.00  0.00    +0.187 C 
ATOM      4  C   UNL     1      34.803 -16.535 -21.455  0.00  0.00    +0.176 C 
ATOM      5  C   UNL     1      35.405 -18.804 -21.474  0.00  0.00    +0.229 C 
ENDROOT
BRANCH   5   8
ATOM      6  O   UNL     1      37.009 -20.708 -20.141  0.00  0.00    -0.252 OA
ATOM      7  O   UNL     1      33.322 -22.953 -18.525  0.00  0.00    -0.270 OA
ATOM      8  N   UNL     1      34.891 -19.895 -20.698  0.00  0.00    -0.217 N 
ATOM      9  N   UNL     1      35.173 -21.825 -19.338  0.00  0.00    -0.236 N 
ATOM     10  C   UNL     1      35.782 -20.797 -20.070  0.00  0.00    +0.315 C 
ATOM     11  C   UNL     1      33.517 -20.066 -20.564  0.00  0.00    +0.076 C 
ATOM     12  C   UNL     1      32.951 -21.051 -19.864  0.00  0.00    +0.074 C 
ATOM     13  C   UNL     1      33.812 -22.035 -19.177  0.00  0.00    +0.254 C 
ATOM     14  H   UNL     1      35.773 -22.465 -18.893  0.00  0.00    +0.159 HD
ENDBRANCH   5   8
BRANCH   2  15
ATOM     15  O   UNL     1      36.044 -16.777 -23.479  0.00  0.00    -0.379 OA
ATOM     16  H   UNL     1      35.925 -16.479 -24.394  0.00  0.00    +0.211 HD
ENDBRANCH   2  15
BRANCH   3  17
ATOM     17  O   UNL     1      34.983 -19.265 -23.833  0.00  0.00    -0.378 OA
ATOM     18  H   UNL     1      35.944 -19.394 -23.795  0.00  0.00    +0.211 HD
ENDBRANCH   3  17
BRANCH   4  19
ATOM     19  C   UNL     1      33.424 -16.223 -20.890  0.00  0.00    +0.186 C 
BRANCH  19  20
ATOM     20  O   UNL     1      33.355 -14.840 -20.596  0.00  0.00    -0.270 OA
BRANCH  20  21
ATOM     21  P   UNL     1      32.867 -13.793 -21.732  0.00  0.00    +0.485 P 
ATOM     22  O   UNL     1      31.971 -14.394 -22.776  0.00  0.00    -0.227 OA
BRANCH  21  23
ATOM     23  O   UNL     1      34.244 -13.171 -22.310  0.00  0.00    -0.302 OA
ATOM     24  H   UNL     1      34.777 -13.877 -22.708  0.00  0.00    +0.222 HD
ENDBRANCH  21  23
BRANCH  21  25
ATOM     25  O   UNL     1      32.215 -12.569 -20.904  0.00  0.00    -0.176 OA
BRANCH  25  26
ATOM     26  P   UNL     1      31.610 -11.155 -21.404  0.00  0.00    +0.539 P 
ATOM     27  O   UNL     1      31.770 -10.029 -20.424  0.00  0.00    -0.215 OA
BRANCH  26  28
ATOM     28  O   UNL     1      30.083 -11.534 -21.780  0.00  0.00    -0.293 OA
ATOM     29  H   UNL     1      29.476 -10.969 -21.275  0.00  0.00    +0.223 HD
ENDBRANCH  26  28
BRANCH  26  30
ATOM     30  O   UNL     1      32.325 -10.941 -22.834  0.00  0.00    -0.402 OA
BRANCH  30  31
ATOM     31  C   UNL     1      33.081  -9.856 -23.184  0.00  0.00    +0.149 C 
ATOM     32  C   UNL     1      32.695  -8.584 -22.771  0.00  0.00    +0.037 C 
ATOM     33  C   UNL     1      34.228 -10.032 -23.950  0.00  0.00    +0.037 C 
ATOM     34  C   UNL     1      33.465  -7.477 -23.129  0.00  0.00    +0.003 C 
ATOM     35  C   UNL     1      34.999  -8.924 -24.308  0.00  0.00    +0.003 C 
ATOM     36  C   UNL     1      34.616  -7.647 -23.897  0.00  0.00    +0.000 C 
ENDBRANCH  30  31
ENDBRANCH  26  30
ENDBRANCH  25  26
ENDBRANCH  21  25
ENDBRANCH  20  21
ENDBRANCH  19  20
ENDBRANCH   4  19
TORSDOF 12
ENDMDL
MODEL 4
REMARK VINA RESULT:      -9.5      6.698     10.522
REMARK  Name = 449409
REMARK  12 active torsions:
REMARK  status: ('A' for Active; 'I' for Inactive)
REMARK    1  A    between atoms: C_2  and  O_15
REMARK    2  A    between atoms: C_3  and  O_17
REMARK    3  A    between atoms: C_4  and  C_19
REMARK    4  A    between atoms: C_5  and  N_8
REMARK    5  A    between atoms: C_19  and  O_20
REMARK    6  A    between atoms: O_20  and  P_21
REMARK    7  A    between atoms: P_21  and  O_23
REMARK    8  A    between atoms: P_21  and  O_25
REMARK    9  A    between atoms: O_25  and  P_26
REMARK   10  A    between atoms: P_26  and  O_28
REMARK   11  A    between atoms: P_26  and  O_30
REMARK   12  A    between atoms: O_30  and  C_31
REMARK                            x       y       z     vdW  Elec       q    Type
REMARK                         _______ _______ _______ _____ _____    ______ ____
ROOT
ATOM      1  O   UNL     1      35.069 -16.991 -21.007  0.00  0.00    -0.333 OA
ATOM      2  C   UNL     1      34.686 -16.489 -23.290  0.00  0.00    +0.171 C 
ATOM      3  C   UNL     1      34.527 -17.981 -23.090  0.00  0.00    +0.187 C 
ATOM      4  C   UNL     1      34.541 -15.959 -21.870  0.00  0.00    +0.176 C 
ATOM      5  C   UNL     1      35.237 -18.199 -21.765  0.00  0.00    +0.229 C 
ENDROOT
BRANCH   5   8
ATOM      6  O   UNL     1      36.768 -20.030 -20.256  0.00  0.00    -0.252 OA
ATOM      7  O   UNL     1      33.019 -22.374 -18.956  0.00  0.00    -0.270 OA
ATOM      8  N   UNL     1      34.687 -19.296 -21.022  0.00  0.00    -0.217 N 
ATOM      9  N   UNL     1      34.901 -21.197 -19.610  0.00  0.00    -0.236 N 
ATOM     10  C   UNL     1      35.543 -20.159 -20.298  0.00  0.00    +0.315 C 
ATOM     11  C   UNL     1      33.313 -19.510 -21.016  0.00  0.00    +0.076 C 
ATOM     12  C   UNL     1      32.715 -20.504 -20.356  0.00  0.00    +0.074 C 
ATOM     13  C   UNL     1      33.538 -21.450 -19.574  0.00  0.00    +0.254 C 
ATOM     14  H   UNL     1      35.476 -21.810 -19.100  0.00  0.00    +0.159 HD
ENDBRANCH   5   8
BRANCH   2  15
ATOM     15  O   UNL     1      36.008 -16.187 -23.739  0.00  0.00    -0.379 OA
ATOM     16  H   UNL     1      36.300 -15.352 -23.342  0.00  0.00    +0.211 HD
ENDBRANCH   2  15
BRANCH   3  17
ATOM     17  O   UNL     1      35.100 -18.727 -24.144  0.00  0.00    -0.378 OA
ATOM     18  H   UNL     1      34.969 -19.673 -23.978  0.00  0.00    +0.211 HD
ENDBRANCH   3  17
BRANCH   4  19
ATOM     19  C   UNL     1      33.095 -15.699 -21.468  0.00  0.00    +0.186 C 
BRANCH  19  20
ATOM     20  O   UNL     1      32.523 -14.792 -22.394  0.00  0.00    -0.270 OA
BRANCH  20  21
ATOM     21  P   UNL     1      32.510 -13.205 -22.070  0.00  0.00    +0.485 P 
ATOM     22  O   UNL     1      32.600 -12.876 -20.608  0.00  0.00    -0.227 OA
BRANCH  21  23
ATOM     23  O   UNL     1      31.168 -12.667 -22.795  0.00  0.00    -0.302 OA
ATOM     24  H   UNL     1      30.810 -13.361 -23.370  0.00  0.00    +0.222 HD
ENDBRANCH  21  23
BRANCH  21  25
ATOM     25  O   UNL     1      33.701 -12.595 -22.975  0.00  0.00    -0.176 OA
BRANCH  25  26
ATOM     26  P   UNL     1      33.679 -11.474 -24.140  0.00  0.00    +0.539 P 
ATOM     27  O   UNL     1      33.632 -12.027 -25.534  0.00  0.00    -0.215 OA
BRANCH  26  28
ATOM     28  O   UNL     1      34.979 -10.575 -23.795  0.00  0.00    -0.293 OA
ATOM     29  H   UNL     1      35.575 -11.078 -23.217  0.00  0.00    +0.223 HD
ENDBRANCH  26  28
BRANCH  26  30
ATOM     30  O   UNL     1      32.433 -10.539 -23.718  0.00  0.00    -0.402 OA
BRANCH  30  31
ATOM     31  C   UNL     1      32.529  -9.352 -23.046  0.00  0.00    +0.149 C 
ATOM     32  C   UNL     1      32.301  -9.315 -21.673  0.00  0.00    +0.037 C 
ATOM     33  C   UNL     1      32.853  -8.190 -23.739  0.00  0.00    +0.037 C 
ATOM     34  C   UNL     1      32.398  -8.104 -20.988  0.00  0.00    +0.003 C 
ATOM     35  C   UNL     1      32.951  -6.979 -23.053  0.00  0.00    +0.003 C 
ATOM     36  C   UNL     1      32.722  -6.936 -21.677  0.00  0.00    +0.000 C 
ENDBRANCH  30  31
ENDBRANCH  26  30
ENDBRANCH  25  26
ENDBRANCH  21  25
ENDBRANCH  20  21
ENDBRANCH  19  20
ENDBRANCH   4  19
TORSDOF 12
ENDMDL
MODEL 5
REMARK VINA RESULT:      -9.5      1.492      2.071
REMARK  Name = 449409
REMARK  12 active torsions:
REMARK  status: ('A' for Active; 'I' for Inactive)
REMARK    1  A    between atoms: C_2  and  O_15
REMARK    2  A    between atoms: C_3  and  O_17
REMARK    3  A    between atoms: C_4  and  C_19
REMARK    4  A    between atoms: C_5  and  N_8
REMARK    5  A    between atoms: C_19  and  O_20
REMARK    6  A    between atoms: O_20  and  P_21
REMARK    7  A    between atoms: P_21  and  O_23
REMARK    8  A    between atoms: P_21  and  O_25
REMARK    9  A    between atoms: O_25  and  P_26
REMARK   10  A    between atoms: P_26  and  O_28
REMARK   11  A    between atoms: P_26  and  O_30
REMARK   12  A    between atoms: O_30  and  C_31
REMARK                            x       y       z     vdW  Elec       q    Type
REMARK                         _______ _______ _______ _____ _____    ______ ____
ROOT
ATOM      1  O   UNL     1      35.022 -24.777 -16.101  0.00  0.00    -0.333 OA
ATOM      2  C   UNL     1      33.555 -23.525 -14.725  0.00  0.00    +0.171 C 
ATOM      3  C   UNL     1      34.657 -24.099 -13.860  0.00  0.00    +0.187 C 
ATOM      4  C   UNL     1      34.163 -23.616 -16.118  0.00  0.00    +0.176 C 
ATOM      5  C   UNL     1      35.207 -25.206 -14.742  0.00  0.00    +0.229 C 
ENDROOT
BRANCH   5   8
ATOM      6  O   UNL     1      36.673 -27.317 -15.913  0.00  0.00    -0.252 OA
ATOM      7  O   UNL     1      40.561 -26.035 -13.796  0.00  0.00    -0.270 OA
ATOM      8  N   UNL     1      36.603 -25.447 -14.515  0.00  0.00    -0.217 N 
ATOM      9  N   UNL     1      38.608 -26.679 -14.858  0.00  0.00    -0.236 N 
ATOM     10  C   UNL     1      37.245 -26.536 -15.151  0.00  0.00    +0.315 C 
ATOM     11  C   UNL     1      37.323 -24.610 -13.670  0.00  0.00    +0.076 C 
ATOM     12  C   UNL     1      38.622 -24.758 -13.400  0.00  0.00    +0.074 C 
ATOM     13  C   UNL     1      39.366 -25.872 -14.024  0.00  0.00    +0.254 C 
ATOM     14  H   UNL     1      39.075 -27.430 -15.288  0.00  0.00    +0.159 HD
ENDBRANCH   5   8
BRANCH   2  15
ATOM     15  O   UNL     1      32.407 -24.374 -14.691  0.00  0.00    -0.379 OA
ATOM     16  H   UNL     1      32.662 -25.273 -14.952  0.00  0.00    +0.211 HD
ENDBRANCH   2  15
BRANCH   3  17
ATOM     17  O   UNL     1      34.174 -24.579 -12.623  0.00  0.00    -0.378 OA
ATOM     18  H   UNL     1      33.411 -24.047 -12.346  0.00  0.00    +0.211 HD
ENDBRANCH   3  17
BRANCH   4  19
ATOM     19  C   UNL     1      35.010 -22.405 -16.486  0.00  0.00    +0.186 C 
BRANCH  19  20
ATOM     20  O   UNL     1      35.419 -22.530 -17.836  0.00  0.00    -0.270 OA
BRANCH  20  21
ATOM     21  P   UNL     1      34.396 -22.148 -19.031  0.00  0.00    +0.485 P 
ATOM     22  O   UNL     1      32.948 -22.203 -18.641  0.00  0.00    -0.227 OA
BRANCH  21  23
ATOM     23  O   UNL     1      34.802 -23.151 -20.234  0.00  0.00    -0.302 OA
ATOM     24  H   UNL     1      35.622 -23.616 -20.004  0.00  0.00    +0.222 HD
ENDBRANCH  21  23
BRANCH  21  25
ATOM     25  O   UNL     1      34.901 -20.705 -19.553  0.00  0.00    -0.176 OA
BRANCH  25  26
ATOM     26  P   UNL     1      34.389 -19.783 -20.779  0.00  0.00    +0.539 P 
ATOM     27  O   UNL     1      32.900 -19.607 -20.845  0.00  0.00    -0.215 OA
BRANCH  26  28
ATOM     28  O   UNL     1      35.060 -20.495 -22.067  0.00  0.00    -0.293 OA
ATOM     29  H   UNL     1      34.434 -20.479 -22.808  0.00  0.00    +0.223 HD
ENDBRANCH  26  28
BRANCH  26  30
ATOM     30  O   UNL     1      35.242 -18.426 -20.591  0.00  0.00    -0.402 OA
BRANCH  30  31
ATOM     31  C   UNL     1      35.012 -17.252 -21.252  0.00  0.00    +0.149 C 
ATOM     32  C   UNL     1      35.197 -17.187 -22.631  0.00  0.00    +0.037 C 
ATOM     33  C   UNL     1      34.595 -16.130 -20.543  0.00  0.00    +0.037 C 
ATOM     34  C   UNL     1      34.963 -15.988 -23.304  0.00  0.00    +0.003 C 
ATOM     35  C   UNL     1      34.361 -14.931 -21.218  0.00  0.00    +0.003 C 
ATOM     36  C   UNL     1      34.546 -14.861 -22.599  0.00  0.00    +0.000 C 
ENDBRANCH  30  31
ENDBRANCH  26  30
ENDBRANCH  25  26
ENDBRANCH  21  25
ENDBRANCH  20  21
ENDBRANCH  19  20
ENDBRANCH   4  19
TORSDOF 12
ENDMDL
MODEL 6
REMARK VINA RESULT:      -9.4      8.907     13.245
REMARK  Name = 449409
REMARK  12 active torsions:
REMARK  status: ('A' for Active; 'I' for Inactive)
REMARK    1  A    between atoms: C_2  and  O_15
REMARK    2  A    between atoms: C_3  and  O_17
REMARK    3  A    between atoms: C_4  and  C_19
REMARK    4  A    between atoms: C_5  and  N_8
REMARK    5  A    between atoms: C_19  and  O_20
REMARK    6  A    between atoms: O_20  and  P_21
REMARK    7  A    between atoms: P_21  and  O_23
REMARK    8  A    between atoms: P_21  and  O_25
REMARK    9  A    between atoms: O_25  and  P_26
REMARK   10  A    between atoms: P_26  and  O_28
REMARK   11  A    between atoms: P_26  and  O_30
REMARK   12  A    between atoms: O_30  and  C_31
REMARK                            x       y       z     vdW  Elec       q    Type
REMARK                         _______ _______ _______ _____ _____    ______ ____
ROOT
ATOM      1  O   UNL     1      34.443 -14.101 -22.675  0.00  0.00    -0.333 OA
ATOM      2  C   UNL     1      32.927 -13.331 -24.326  0.00  0.00    +0.171 C 
ATOM      3  C   UNL     1      33.185 -14.805 -24.556  0.00  0.00    +0.187 C 
ATOM      4  C   UNL     1      33.374 -13.151 -22.882  0.00  0.00    +0.176 C 
ATOM      5  C   UNL     1      34.468 -15.027 -23.773  0.00  0.00    +0.229 C 
ENDROOT
BRANCH   5   8
ATOM      6  O   UNL     1      34.911 -17.324 -25.355  0.00  0.00    -0.252 OA
ATOM      7  O   UNL     1      34.839 -20.097 -21.675  0.00  0.00    -0.270 OA
ATOM      8  N   UNL     1      34.570 -16.361 -23.255  0.00  0.00    -0.217 N 
ATOM      9  N   UNL     1      34.874 -18.704 -23.522  0.00  0.00    -0.236 N 
ATOM     10  C   UNL     1      34.792 -17.446 -24.135  0.00  0.00    +0.315 C 
ATOM     11  C   UNL     1      34.450 -16.585 -21.887  0.00  0.00    +0.076 C 
ATOM     12  C   UNL     1      34.530 -17.790 -21.318  0.00  0.00    +0.074 C 
ATOM     13  C   UNL     1      34.760 -18.976 -22.168  0.00  0.00    +0.254 C 
ATOM     14  H   UNL     1      35.028 -19.474 -24.115  0.00  0.00    +0.159 HD
ENDBRANCH   5   8
BRANCH   2  15
ATOM     15  O   UNL     1      33.786 -12.544 -25.152  0.00  0.00    -0.379 OA
ATOM     16  H   UNL     1      34.356 -11.994 -24.592  0.00  0.00    +0.211 HD
ENDBRANCH   2  15
BRANCH   3  17
ATOM     17  O   UNL     1      33.324 -15.118 -25.927  0.00  0.00    -0.378 OA
ATOM     18  H   UNL     1      32.731 -15.851 -26.152  0.00  0.00    +0.211 HD
ENDBRANCH   3  17
BRANCH   4  19
ATOM     19  C   UNL     1      32.275 -13.448 -21.870  0.00  0.00    +0.186 C 
BRANCH  19  20
ATOM     20  O   UNL     1      32.300 -12.450 -20.865  0.00  0.00    -0.270 OA
BRANCH  20  21
ATOM     21  P   UNL     1      31.348 -11.146 -20.995  0.00  0.00    +0.485 P 
ATOM     22  O   UNL     1      30.484 -10.895 -19.794  0.00  0.00    -0.227 OA
BRANCH  21  23
ATOM     23  O   UNL     1      30.529 -11.392 -22.368  0.00  0.00    -0.302 OA
ATOM     24  H   UNL     1      30.021 -12.215 -22.299  0.00  0.00    +0.222 HD
ENDBRANCH  21  23
BRANCH  21  25
ATOM     25  O   UNL     1      32.357  -9.940 -21.366  0.00  0.00    -0.176 OA
BRANCH  25  26
ATOM     26  P   UNL     1      32.566  -9.118 -22.742  0.00  0.00    +0.539 P 
ATOM     27  O   UNL     1      32.846  -9.976 -23.942  0.00  0.00    -0.215 OA
BRANCH  26  28
ATOM     28  O   UNL     1      33.732  -8.066 -22.356  0.00  0.00    -0.293 OA
ATOM     29  H   UNL     1      33.566  -7.710 -21.469  0.00  0.00    +0.223 HD
ENDBRANCH  26  28
BRANCH  26  30
ATOM     30  O   UNL     1      31.233  -8.213 -22.829  0.00  0.00    -0.402 OA
BRANCH  30  31
ATOM     31  C   UNL     1      31.202  -6.883 -23.145  0.00  0.00    +0.149 C 
ATOM     32  C   UNL     1      30.943  -5.943 -22.152  0.00  0.00    +0.037 C 
ATOM     33  C   UNL     1      31.427  -6.480 -24.457  0.00  0.00    +0.037 C 
ATOM     34  C   UNL     1      30.910  -4.586 -22.475  0.00  0.00    +0.003 C 
ATOM     35  C   UNL     1      31.395  -5.122 -24.779  0.00  0.00    +0.003 C 
ATOM     36  C   UNL     1      31.135  -4.176 -23.788  0.00  0.00    +0.000 C 
ENDBRANCH  30  31
ENDBRANCH  26  30
ENDBRANCH  25  26
ENDBRANCH  21  25
ENDBRANCH  20  21
ENDBRANCH  19  20
ENDBRANCH   4  19
TORSDOF 12
ENDMDL
MODEL 7
REMARK VINA RESULT:      -9.4      7.686     13.409
REMARK  Name = 449409
REMARK  12 active torsions:
REMARK  status: ('A' for Active; 'I' for Inactive)
REMARK    1  A    between atoms: C_2  and  O_15
REMARK    2  A    between atoms: C_3  and  O_17
REMARK    3  A    between atoms: C_4  and  C_19
REMARK    4  A    between atoms: C_5  and  N_8
REMARK    5  A    between atoms: C_19  and  O_20
REMARK    6  A    between atoms: O_20  and  P_21
REMARK    7  A    between atoms: P_21  and  O_23
REMARK    8  A    between atoms: P_21  and  O_25
REMARK    9  A    between atoms: O_25  and  P_26
REMARK   10  A    between atoms: P_26  and  O_28
REMARK   11  A    between atoms: P_26  and  O_30
REMARK   12  A    between atoms: O_30  and  C_31
REMARK                            x       y       z     vdW  Elec       q    Type
REMARK                         _______ _______ _______ _____ _____    ______ ____
ROOT
ATOM      1  O   UNL     1      31.683 -12.040 -22.975  0.00  0.00    -0.333 OA
ATOM      2  C   UNL     1      33.555 -13.059 -24.010  0.00  0.00    +0.171 C 
ATOM      3  C   UNL     1      33.931 -11.647 -23.614  0.00  0.00    +0.187 C 
ATOM      4  C   UNL     1      32.333 -13.320 -23.140  0.00  0.00    +0.176 C 
ATOM      5  C   UNL     1      32.570 -11.001 -23.419  0.00  0.00    +0.229 C 
ENDROOT
BRANCH   5   8
ATOM      6  O   UNL     1      33.642  -8.424 -23.853  0.00  0.00    -0.252 OA
ATOM      7  O   UNL     1      32.611  -7.073 -19.569  0.00  0.00    -0.270 OA
ATOM      8  N   UNL     1      32.594  -9.957 -22.436  0.00  0.00    -0.217 N 
ATOM      9  N   UNL     1      33.129  -7.753 -21.720  0.00  0.00    -0.236 N 
ATOM     10  C   UNL     1      33.157  -8.698 -22.754  0.00  0.00    +0.315 C 
ATOM     11  C   UNL     1      32.064 -10.183 -21.170  0.00  0.00    +0.076 C 
ATOM     12  C   UNL     1      32.045  -9.273 -20.194  0.00  0.00    +0.074 C 
ATOM     13  C   UNL     1      32.614  -7.933 -20.446  0.00  0.00    +0.254 C 
ATOM     14  H   UNL     1      33.516  -6.871 -21.919  0.00  0.00    +0.159 HD
ENDBRANCH   5   8
BRANCH   2  15
ATOM     15  O   UNL     1      33.138 -13.095 -25.375  0.00  0.00    -0.379 OA
ATOM     16  H   UNL     1      32.868 -12.206 -25.654  0.00  0.00    +0.211 HD
ENDBRANCH   2  15
BRANCH   3  17
ATOM     17  O   UNL     1      34.704 -11.000 -24.603  0.00  0.00    -0.378 OA
ATOM     18  H   UNL     1      35.181 -10.256 -24.204  0.00  0.00    +0.211 HD
ENDBRANCH   3  17
BRANCH   4  19
ATOM     19  C   UNL     1      32.681 -13.856 -21.758  0.00  0.00    +0.186 C 
BRANCH  19  20
ATOM     20  O   UNL     1      32.915 -15.249 -21.857  0.00  0.00    -0.270 OA
BRANCH  20  21
ATOM     21  P   UNL     1      34.343 -15.865 -21.403  0.00  0.00    +0.485 P 
ATOM     22  O   UNL     1      34.925 -15.226 -20.175  0.00  0.00    -0.227 OA
BRANCH  21  23
ATOM     23  O   UNL     1      35.266 -15.735 -22.725  0.00  0.00    -0.302 OA
ATOM     24  H   UNL     1      36.179 -15.539 -22.464  0.00  0.00    +0.222 HD
ENDBRANCH  21  23
BRANCH  21  25
ATOM     25  O   UNL     1      34.080 -17.454 -21.278  0.00  0.00    -0.176 OA
BRANCH  25  26
ATOM     26  P   UNL     1      34.963 -18.716 -21.768  0.00  0.00    +0.539 P 
ATOM     27  O   UNL     1      36.384 -18.705 -21.286  0.00  0.00    -0.215 OA
BRANCH  26  28
ATOM     28  O   UNL     1      34.777 -18.679 -23.375  0.00  0.00    -0.293 OA
ATOM     29  H   UNL     1      34.954 -17.783 -23.701  0.00  0.00    +0.223 HD
ENDBRANCH  26  28
BRANCH  26  30
ATOM     30  O   UNL     1      34.078 -19.981 -21.299  0.00  0.00    -0.402 OA
BRANCH  30  31
ATOM     31  C   UNL     1      34.369 -20.798 -20.242  0.00  0.00    +0.149 C 
ATOM     32  C   UNL     1      33.342 -21.479 -19.593  0.00  0.00    +0.037 C 
ATOM     33  C   UNL     1      35.687 -20.942 -19.822  0.00  0.00    +0.037 C 
ATOM     34  C   UNL     1      33.639 -22.312 -18.514  0.00  0.00    +0.003 C 
ATOM     35  C   UNL     1      35.983 -21.776 -18.742  0.00  0.00    +0.003 C 
ATOM     36  C   UNL     1      34.958 -22.459 -18.088  0.00  0.00    +0.000 C 
ENDBRANCH  30  31
ENDBRANCH  26  30
ENDBRANCH  25  26
ENDBRANCH  21  25
ENDBRANCH  20  21
ENDBRANCH  19  20
ENDBRANCH   4  19
TORSDOF 12
ENDMDL
MODEL 8
REMARK VINA RESULT:      -9.2      2.166      4.358
REMARK  Name = 449409
REMARK  12 active torsions:
REMARK  status: ('A' for Active; 'I' for Inactive)
REMARK    1  A    between atoms: C_2  and  O_15
REMARK    2  A    between atoms: C_3  and  O_17
REMARK    3  A    between atoms: C_4  and  C_19
REMARK    4  A    between atoms: C_5  and  N_8
REMARK    5  A    between atoms: C_19  and  O_20
REMARK    6  A    between atoms: O_20  and  P_21
REMARK    7  A    between atoms: P_21  and  O_23
REMARK    8  A    between atoms: P_21  and  O_25
REMARK    9  A    between atoms: O_25  and  P_26
REMARK   10  A    between atoms: P_26  and  O_28
REMARK   11  A    between atoms: P_26  and  O_30
REMARK   12  A    between atoms: O_30  and  C_31
REMARK                            x       y       z     vdW  Elec       q    Type
REMARK                         _______ _______ _______ _____ _____    ______ ____
ROOT
ATOM      1  O   UNL     1      35.196 -22.183 -15.449  0.00  0.00    -0.333 OA
ATOM      2  C   UNL     1      37.033 -23.674 -15.567  0.00  0.00    +0.171 C 
ATOM      3  C   UNL     1      35.805 -24.453 -15.146  0.00  0.00    +0.187 C 
ATOM      4  C   UNL     1      36.422 -22.420 -16.175  0.00  0.00    +0.176 C 
ATOM      5  C   UNL     1      34.878 -23.348 -14.670  0.00  0.00    +0.229 C 
ENDROOT
BRANCH   5   8
ATOM      6  O   UNL     1      33.303 -24.769 -12.806  0.00  0.00    -0.252 OA
ATOM      7  O   UNL     1      29.575 -24.541 -15.507  0.00  0.00    -0.270 OA
ATOM      8  N   UNL     1      33.494 -23.672 -14.860  0.00  0.00    -0.217 N 
ATOM      9  N   UNL     1      31.448 -24.656 -14.152  0.00  0.00    -0.236 N 
ATOM     10  C   UNL     1      32.794 -24.391 -13.863  0.00  0.00    +0.315 C 
ATOM     11  C   UNL     1      32.843 -23.280 -16.024  0.00  0.00    +0.076 C 
ATOM     12  C   UNL     1      31.560 -23.540 -16.287  0.00  0.00    +0.074 C 
ATOM     13  C   UNL     1      30.758 -24.287 -15.296  0.00  0.00    +0.254 C 
ATOM     14  H   UNL     1      30.941 -25.156 -13.473  0.00  0.00    +0.159 HD
ENDBRANCH   5   8
BRANCH   2  15
ATOM     15  O   UNL     1      37.788 -23.282 -14.420  0.00  0.00    -0.379 OA
ATOM     16  H   UNL     1      38.644 -23.740 -14.425  0.00  0.00    +0.211 HD
ENDBRANCH   2  15
BRANCH   3  17
ATOM     17  O   UNL     1      36.089 -25.397 -14.134  0.00  0.00    -0.378 OA
ATOM     18  H   UNL     1      36.651 -26.099 -14.497  0.00  0.00    +0.211 HD
ENDBRANCH   3  17
BRANCH   4  19
ATOM     19  C   UNL     1      36.077 -22.572 -17.651  0.00  0.00    +0.186 C 
BRANCH  19  20
ATOM     20  O   UNL     1      35.009 -21.695 -17.961  0.00  0.00    -0.270 OA
BRANCH  20  21
ATOM     21  P   UNL     1      34.108 -21.950 -19.282  0.00  0.00    +0.485 P 
ATOM     22  O   UNL     1      32.688 -21.481 -19.156  0.00  0.00    -0.227 OA
BRANCH  21  23
ATOM     23  O   UNL     1      34.265 -23.535 -19.565  0.00  0.00    -0.302 OA
ATOM     24  H   UNL     1      34.595 -23.672 -20.467  0.00  0.00    +0.222 HD
ENDBRANCH  21  23
BRANCH  21  25
ATOM     25  O   UNL     1      34.943 -21.266 -20.483  0.00  0.00    -0.176 OA
BRANCH  25  26
ATOM     26  P   UNL     1      35.137 -19.712 -20.888  0.00  0.00    +0.539 P 
ATOM     27  O   UNL     1      36.294 -19.035 -20.212  0.00  0.00    -0.215 OA
BRANCH  26  28
ATOM     28  O   UNL     1      33.683 -19.077 -20.575  0.00  0.00    -0.293 OA
ATOM     29  H   UNL     1      33.760 -18.112 -20.507  0.00  0.00    +0.223 HD
ENDBRANCH  26  28
BRANCH  26  30
ATOM     30  O   UNL     1      35.205 -19.764 -22.499  0.00  0.00    -0.402 OA
BRANCH  30  31
ATOM     31  C   UNL     1      34.981 -18.703 -23.332  0.00  0.00    +0.149 C 
ATOM     32  C   UNL     1      34.445 -18.920 -24.598  0.00  0.00    +0.037 C 
ATOM     33  C   UNL     1      35.292 -17.415 -22.909  0.00  0.00    +0.037 C 
ATOM     34  C   UNL     1      34.219 -17.838 -25.448  0.00  0.00    +0.003 C 
ATOM     35  C   UNL     1      35.065 -16.332 -23.760  0.00  0.00    +0.003 C 
ATOM     36  C   UNL     1      34.529 -16.544 -25.030  0.00  0.00    +0.000 C 
ENDBRANCH  30  31
ENDBRANCH  26  30
ENDBRANCH  25  26
ENDBRANCH  21  25
ENDBRANCH  20  21
ENDBRANCH  19  20
ENDBRANCH   4  19
TORSDOF 12
ENDMDL
MODEL 9
REMARK VINA RESULT:      -9.2      4.704      7.307
REMARK  Name = 449409
REMARK  12 active torsions:
REMARK  status: ('A' for Active; 'I' for Inactive)
REMARK    1  A    between atoms: C_2  and  O_15
REMARK    2  A    between atoms: C_3  and  O_17
REMARK    3  A    between atoms: C_4  and  C_19
REMARK    4  A    between atoms: C_5  and  N_8
REMARK    5  A    between atoms: C_19  and  O_20
REMARK    6  A    between atoms: O_20  and  P_21
REMARK    7  A    between atoms: P_21  and  O_23
REMARK    8  A    between atoms: P_21  and  O_25
REMARK    9  A    between atoms: O_25  and  P_26
REMARK   10  A    between atoms: P_26  and  O_28
REMARK   11  A    between atoms: P_26  and  O_30
REMARK   12  A    between atoms: O_30  and  C_31
REMARK                            x       y       z     vdW  Elec       q    Type
REMARK                         _______ _______ _______ _____ _____    ______ ____
ROOT
ATOM      1  O   UNL     1      30.210 -22.693 -14.572  0.00  0.00    -0.333 OA
ATOM      2  C   UNL     1      30.733 -24.970 -14.176  0.00  0.00    +0.171 C 
ATOM      3  C   UNL     1      29.386 -24.896 -14.862  0.00  0.00    +0.187 C 
ATOM      4  C   UNL     1      31.328 -23.604 -14.493  0.00  0.00    +0.176 C 
ATOM      5  C   UNL     1      28.989 -23.449 -14.624  0.00  0.00    +0.229 C 
ENDROOT
BRANCH   5   8
ATOM      6  O   UNL     1      29.520 -23.766 -17.380  0.00  0.00    -0.252 OA
ATOM      7  O   UNL     1      25.748 -21.399 -18.565  0.00  0.00    -0.270 OA
ATOM      8  N   UNL     1      28.162 -22.927 -15.674  0.00  0.00    -0.217 N 
ATOM      9  N   UNL     1      27.642 -22.587 -17.969  0.00  0.00    -0.236 N 
ATOM     10  C   UNL     1      28.519 -23.141 -17.026  0.00  0.00    +0.315 C 
ATOM     11  C   UNL     1      27.012 -22.211 -15.360  0.00  0.00    +0.076 C 
ATOM     12  C   UNL     1      26.186 -21.688 -16.269  0.00  0.00    +0.074 C 
ATOM     13  C   UNL     1      26.487 -21.867 -17.705  0.00  0.00    +0.254 C 
ATOM     14  H   UNL     1      27.870 -22.722 -18.916  0.00  0.00    +0.159 HD
ENDBRANCH   5   8
BRANCH   2  15
ATOM     15  O   UNL     1      30.564 -25.056 -12.761  0.00  0.00    -0.379 OA
ATOM     16  H   UNL     1      31.371 -25.417 -12.361  0.00  0.00    +0.211 HD
ENDBRANCH   2  15
BRANCH   3  17
ATOM     17  O   UNL     1      28.457 -25.811 -14.320  0.00  0.00    -0.378 OA
ATOM     18  H   UNL     1      28.753 -26.717 -14.500  0.00  0.00    +0.211 HD
ENDBRANCH   3  17
BRANCH   4  19
ATOM     19  C   UNL     1      32.067 -23.563 -15.824  0.00  0.00    +0.186 C 
BRANCH  19  20
ATOM     20  O   UNL     1      33.164 -22.675 -15.708  0.00  0.00    -0.270 OA
BRANCH  20  21
ATOM     21  P   UNL     1      34.645 -23.253 -15.397  0.00  0.00    +0.485 P 
ATOM     22  O   UNL     1      34.931 -24.582 -16.033  0.00  0.00    -0.227 OA
BRANCH  21  23
ATOM     23  O   UNL     1      34.736 -23.252 -13.782  0.00  0.00    -0.302 OA
ATOM     24  H   UNL     1      33.948 -22.823 -13.413  0.00  0.00    +0.222 HD
ENDBRANCH  21  23
BRANCH  21  25
ATOM     25  O   UNL     1      35.646 -22.064 -15.834  0.00  0.00    -0.176 OA
BRANCH  25  26
ATOM     26  P   UNL     1      37.033 -22.097 -16.664  0.00  0.00    +0.539 P 
ATOM     27  O   UNL     1      38.100 -22.962 -16.058  0.00  0.00    -0.215 OA
BRANCH  26  28
ATOM     28  O   UNL     1      37.407 -20.529 -16.800  0.00  0.00    -0.293 OA
ATOM     29  H   UNL     1      36.722 -20.077 -17.318  0.00  0.00    +0.223 HD
ENDBRANCH  26  28
BRANCH  26  30
ATOM     30  O   UNL     1      36.557 -22.517 -18.148  0.00  0.00    -0.402 OA
BRANCH  30  31
ATOM     31  C   UNL     1      35.740 -21.773 -18.954  0.00  0.00    +0.149 C 
ATOM     32  C   UNL     1      34.361 -21.955 -18.898  0.00  0.00    +0.037 C 
ATOM     33  C   UNL     1      36.294 -20.840 -19.825  0.00  0.00    +0.037 C 
ATOM     34  C   UNL     1      33.529 -21.197 -19.721  0.00  0.00    +0.003 C 
ATOM     35  C   UNL     1      35.460 -20.081 -20.648  0.00  0.00    +0.003 C 
ATOM     36  C   UNL     1      34.078 -20.261 -20.596  0.00  0.00    +0.000 C 
ENDBRANCH  30  31
ENDBRANCH  26  30
ENDBRANCH  25  26
ENDBRANCH  21  25
ENDBRANCH  20  21
ENDBRANCH  19  20
ENDBRANCH   4  19
TORSDOF 12
ENDMDL
