MODEL 1
REMARK VINA RESULT:      -8.5      0.000      0.000
REMARK  Name = 784625
REMARK  3 active torsions:
REMARK  status: ('A' for Active; 'I' for Inactive)
REMARK    1  A    between atoms: C_2  and  C_7
REMARK    2  A    between atoms: C_4  and  C_14
REMARK    3  A    between atoms: C_14  and  O_15
REMARK                            x       y       z     vdW  Elec       q    Type
REMARK                         _______ _______ _______ _____ _____    ______ ____
ROOT
ATOM      1  O   UNL     1      34.463 -18.274 -23.166  0.00  0.00    -0.447 OA
ATOM      2  C   UNL     1      34.602 -18.077 -21.834  0.00  0.00    +0.146 C 
ATOM      3  C   UNL     1      34.828 -16.757 -21.548  0.00  0.00    +0.041 C 
ATOM      4  C   UNL     1      34.602 -17.054 -23.748  0.00  0.00    +0.220 C 
ATOM      5  C   UNL     1      34.827 -16.087 -22.795  0.00  0.00    +0.047 C 
ENDROOT
BRANCH   2   7
ATOM      6 CL   UNL     1      37.217 -19.401 -20.876  0.00  0.00    -0.082 Cl
ATOM      7  C   UNL     1      34.487 -19.269 -21.023  0.00  0.00    +0.045 C 
ATOM      8  C   UNL     1      35.609 -19.942 -20.541  0.00  0.00    +0.061 C 
ATOM      9  C   UNL     1      33.209 -19.742 -20.728  0.00  0.00    +0.004 C 
ATOM     10  C   UNL     1      35.453 -21.089 -19.763  0.00  0.00    +0.011 C 
ATOM     11  C   UNL     1      33.053 -20.889 -19.949  0.00  0.00    +0.000 C 
ATOM     12  C   UNL     1      34.176 -21.563 -19.467  0.00  0.00    +0.001 C 
ENDBRANCH   2   7
BRANCH   4  14
ATOM     13  O   UNL     1      34.306 -15.942 -25.845  0.00  0.00    -0.242 OA
ATOM     14  C   UNL     1      34.498 -16.977 -25.165  0.00  0.00    +0.373 C 
BRANCH  14  15
ATOM     15  O   UNL     1      34.632 -18.191 -25.794  0.00  0.00    -0.475 OA
ATOM     16  H   UNL     1      34.245 -18.958 -25.420  0.00  0.00    +0.296 HD
ENDBRANCH  14  15
ENDBRANCH   4  14
TORSDOF 3
ENDMDL
MODEL 2
REMARK VINA RESULT:      -8.4      2.279      3.057
REMARK  Name = 784625
REMARK  3 active torsions:
REMARK  status: ('A' for Active; 'I' for Inactive)
REMARK    1  A    between atoms: C_2  and  C_7
REMARK    2  A    between atoms: C_4  and  C_14
REMARK    3  A    between atoms: C_14  and  O_15
REMARK                            x       y       z     vdW  Elec       q    Type
REMARK                         _______ _______ _______ _____ _____    ______ ____
ROOT
ATOM      1  O   UNL     1      34.892 -17.530 -21.017  0.00  0.00    -0.447 OA
ATOM      2  C   UNL     1      35.157 -18.724 -21.598  0.00  0.00    +0.146 C 
ATOM      3  C   UNL     1      35.366 -18.585 -22.943  0.00  0.00    +0.041 C 
ATOM      4  C   UNL     1      34.931 -16.605 -22.012  0.00  0.00    +0.220 C 
ATOM      5  C   UNL     1      35.219 -17.204 -23.216  0.00  0.00    +0.047 C 
ENDROOT
BRANCH   2   7
ATOM      6 CL   UNL     1      32.430 -19.951 -20.846  0.00  0.00    -0.082 Cl
ATOM      7  C   UNL     1      35.162 -19.855 -20.698  0.00  0.00    +0.045 C 
ATOM      8  C   UNL     1      33.981 -20.481 -20.296  0.00  0.00    +0.061 C 
ATOM      9  C   UNL     1      36.391 -20.318 -20.228  0.00  0.00    +0.004 C 
ATOM     10  C   UNL     1      34.031 -21.570 -19.425  0.00  0.00    +0.011 C 
ATOM     11  C   UNL     1      36.440 -21.406 -19.358  0.00  0.00    +0.000 C 
ATOM     12  C   UNL     1      35.259 -22.032 -18.956  0.00  0.00    +0.001 C 
ENDBRANCH   2   7
BRANCH   4  14
ATOM     13  O   UNL     1      34.364 -14.323 -22.452  0.00  0.00    -0.242 OA
ATOM     14  C   UNL     1      34.683 -15.247 -21.668  0.00  0.00    +0.373 C 
BRANCH  14  15
ATOM     15  O   UNL     1      34.821 -14.984 -20.326  0.00  0.00    -0.475 OA
ATOM     16  H   UNL     1      35.662 -15.057 -19.918  0.00  0.00    +0.296 HD
ENDBRANCH  14  15
ENDBRANCH   4  14
TORSDOF 3
ENDMDL
MODEL 3
REMARK VINA RESULT:      -8.3      1.803      2.401
REMARK  Name = 784625
REMARK  3 active torsions:
REMARK  status: ('A' for Active; 'I' for Inactive)
REMARK    1  A    between atoms: C_2  and  C_7
REMARK    2  A    between atoms: C_4  and  C_14
REMARK    3  A    between atoms: C_14  and  O_15
REMARK                            x       y       z     vdW  Elec       q    Type
REMARK                         _______ _______ _______ _____ _____    ______ ____
ROOT
ATOM      1  O   UNL     1      34.512 -17.369 -21.136  0.00  0.00    -0.447 OA
ATOM      2  C   UNL     1      34.661 -18.575 -21.731  0.00  0.00    +0.146 C 
ATOM      3  C   UNL     1      34.950 -18.440 -23.062  0.00  0.00    +0.041 C 
ATOM      4  C   UNL     1      34.711 -16.439 -22.106  0.00  0.00    +0.220 C 
ATOM      5  C   UNL     1      34.984 -17.047 -23.309  0.00  0.00    +0.047 C 
ENDROOT
BRANCH   2   7
ATOM      6 CL   UNL     1      37.201 -19.849 -20.532  0.00  0.00    -0.082 Cl
ATOM      7  C   UNL     1      34.486 -19.714 -20.857  0.00  0.00    +0.045 C 
ATOM      8  C   UNL     1      35.571 -20.362 -20.265  0.00  0.00    +0.061 C 
ATOM      9  C   UNL     1      33.188 -20.163 -20.613  0.00  0.00    +0.004 C 
ATOM     10  C   UNL     1      35.357 -21.457 -19.429  0.00  0.00    +0.011 C 
ATOM     11  C   UNL     1      32.975 -21.259 -19.777  0.00  0.00    +0.000 C 
ATOM     12  C   UNL     1      34.060 -21.906 -19.185  0.00  0.00    +0.001 C 
ENDBRANCH   2   7
BRANCH   4  14
ATOM     13  O   UNL     1      34.358 -14.107 -22.509  0.00  0.00    -0.242 OA
ATOM     14  C   UNL     1      34.610 -15.066 -21.744  0.00  0.00    +0.373 C 
BRANCH  14  15
ATOM     15  O   UNL     1      34.819 -14.833 -20.406  0.00  0.00    -0.475 OA
ATOM     16  H   UNL     1      35.627 -15.087 -20.006  0.00  0.00    +0.296 HD
ENDBRANCH  14  15
ENDBRANCH   4  14
TORSDOF 3
ENDMDL
MODEL 4
REMARK VINA RESULT:      -8.3      2.585      5.475
REMARK  Name = 784625
REMARK  3 active torsions:
REMARK  status: ('A' for Active; 'I' for Inactive)
REMARK    1  A    between atoms: C_2  and  C_7
REMARK    2  A    between atoms: C_4  and  C_14
REMARK    3  A    between atoms: C_14  and  O_15
REMARK                            x       y       z     vdW  Elec       q    Type
REMARK                         _______ _______ _______ _____ _____    ______ ____
ROOT
ATOM      1  O   UNL     1      34.324 -20.057 -21.129  0.00  0.00    -0.447 OA
ATOM      2  C   UNL     1      35.342 -19.263 -21.538  0.00  0.00    +0.146 C 
ATOM      3  C   UNL     1      36.481 -19.507 -20.820  0.00  0.00    +0.041 C 
ATOM      4  C   UNL     1      34.822 -20.826 -20.126  0.00  0.00    +0.220 C 
ATOM      5  C   UNL     1      36.145 -20.526 -19.898  0.00  0.00    +0.047 C 
ENDROOT
BRANCH   2   7
ATOM      6 CL   UNL     1      34.886 -16.302 -20.809  0.00  0.00    -0.082 Cl
ATOM      7  C   UNL     1      35.014 -18.355 -22.615  0.00  0.00    +0.045 C 
ATOM      8  C   UNL     1      34.789 -16.997 -22.390  0.00  0.00    +0.061 C 
ATOM      9  C   UNL     1      34.925 -18.872 -23.908  0.00  0.00    +0.004 C 
ATOM     10  C   UNL     1      34.475 -16.156 -23.458  0.00  0.00    +0.011 C 
ATOM     11  C   UNL     1      34.611 -18.031 -24.975  0.00  0.00    +0.000 C 
ATOM     12  C   UNL     1      34.385 -16.672 -24.749  0.00  0.00    +0.001 C 
ENDBRANCH   2   7
BRANCH   4  14
ATOM     13  O   UNL     1      32.701 -21.674 -19.416  0.00  0.00    -0.242 OA
ATOM     14  C   UNL     1      33.947 -21.764 -19.508  0.00  0.00    +0.373 C 
BRANCH  14  15
ATOM     15  O   UNL     1      34.593 -22.856 -18.982  0.00  0.00    -0.475 OA
ATOM     16  H   UNL     1      35.525 -22.851 -18.892  0.00  0.00    +0.296 HD
ENDBRANCH  14  15
ENDBRANCH   4  14
TORSDOF 3
ENDMDL
MODEL 5
REMARK VINA RESULT:      -8.3      2.702      5.522
REMARK  Name = 784625
REMARK  3 active torsions:
REMARK  status: ('A' for Active; 'I' for Inactive)
REMARK    1  A    between atoms: C_2  and  C_7
REMARK    2  A    between atoms: C_4  and  C_14
REMARK    3  A    between atoms: C_14  and  O_15
REMARK                            x       y       z     vdW  Elec       q    Type
REMARK                         _______ _______ _______ _____ _____    ______ ____
ROOT
ATOM      1  O   UNL     1      34.279 -19.916 -20.608  0.00  0.00    -0.447 OA
ATOM      2  C   UNL     1      35.359 -19.175 -20.951  0.00  0.00    +0.146 C 
ATOM      3  C   UNL     1      36.520 -19.766 -20.532  0.00  0.00    +0.041 C 
ATOM      4  C   UNL     1      34.758 -21.007 -19.955  0.00  0.00    +0.220 C 
ATOM      5  C   UNL     1      36.131 -20.962 -19.882  0.00  0.00    +0.047 C 
ENDROOT
BRANCH   2   7
ATOM      6 CL   UNL     1      35.014 -19.366 -24.010  0.00  0.00    -0.082 Cl
ATOM      7  C   UNL     1      35.061 -17.954 -21.665  0.00  0.00    +0.045 C 
ATOM      8  C   UNL     1      34.887 -17.934 -23.049  0.00  0.00    +0.061 C 
ATOM      9  C   UNL     1      34.948 -16.773 -20.931  0.00  0.00    +0.004 C 
ATOM     10  C   UNL     1      34.600 -16.732 -23.698  0.00  0.00    +0.011 C 
ATOM     11  C   UNL     1      34.662 -15.572 -21.580  0.00  0.00    +0.000 C 
ATOM     12  C   UNL     1      34.489 -15.552 -22.965  0.00  0.00    +0.001 C 
ENDBRANCH   2   7
BRANCH   4  14
ATOM     13  O   UNL     1      33.990 -23.203 -19.395  0.00  0.00    -0.242 OA
ATOM     14  C   UNL     1      33.819 -21.964 -19.479  0.00  0.00    +0.373 C 
BRANCH  14  15
ATOM     15  O   UNL     1      32.623 -21.414 -19.084  0.00  0.00    -0.475 OA
ATOM     16  H   UNL     1      32.532 -21.058 -18.222  0.00  0.00    +0.296 HD
ENDBRANCH  14  15
ENDBRANCH   4  14
TORSDOF 3
ENDMDL
MODEL 6
REMARK VINA RESULT:      -7.8      8.759     10.048
REMARK  Name = 784625
REMARK  3 active torsions:
REMARK  status: ('A' for Active; 'I' for Inactive)
REMARK    1  A    between atoms: C_2  and  C_7
REMARK    2  A    between atoms: C_4  and  C_14
REMARK    3  A    between atoms: C_14  and  O_15
REMARK                            x       y       z     vdW  Elec       q    Type
REMARK                         _______ _______ _______ _____ _____    ______ ____
ROOT
ATOM      1  O   UNL     1      35.171 -25.240 -15.150  0.00  0.00    -0.447 OA
ATOM      2  C   UNL     1      34.837 -23.943 -14.951  0.00  0.00    +0.146 C 
ATOM      3  C   UNL     1      35.945 -23.174 -14.726  0.00  0.00    +0.041 C 
ATOM      4  C   UNL     1      36.525 -25.303 -15.050  0.00  0.00    +0.220 C 
ATOM      5  C   UNL     1      37.048 -24.058 -14.790  0.00  0.00    +0.047 C 
ENDROOT
BRANCH   2   7
ATOM      6 CL   UNL     1      33.656 -23.246 -17.714  0.00  0.00    -0.082 Cl
ATOM      7  C   UNL     1      33.420 -23.660 -15.018  0.00  0.00    +0.045 C 
ATOM      8  C   UNL     1      32.790 -23.334 -16.220  0.00  0.00    +0.061 C 
ATOM      9  C   UNL     1      32.681 -23.719 -13.837  0.00  0.00    +0.004 C 
ATOM     10  C   UNL     1      31.421 -23.067 -16.239  0.00  0.00    +0.011 C 
ATOM     11  C   UNL     1      31.312 -23.452 -13.857  0.00  0.00    +0.000 C 
ATOM     12  C   UNL     1      30.682 -23.126 -15.058  0.00  0.00    +0.001 C 
ENDBRANCH   2   7
BRANCH   4  14
ATOM     13  O   UNL     1      38.026 -27.078 -14.485  0.00  0.00    -0.242 OA
ATOM     14  C   UNL     1      37.146 -26.572 -15.219  0.00  0.00    +0.373 C 
BRANCH  14  15
ATOM     15  O   UNL     1      36.693 -27.266 -16.316  0.00  0.00    -0.475 OA
ATOM     16  H   UNL     1      37.186 -27.258 -17.112  0.00  0.00    +0.296 HD
ENDBRANCH  14  15
ENDBRANCH   4  14
TORSDOF 3
ENDMDL
MODEL 7
REMARK VINA RESULT:      -7.6      4.061      5.712
REMARK  Name = 784625
REMARK  3 active torsions:
REMARK  status: ('A' for Active; 'I' for Inactive)
REMARK    1  A    between atoms: C_2  and  C_7
REMARK    2  A    between atoms: C_4  and  C_14
REMARK    3  A    between atoms: C_14  and  O_15
REMARK                            x       y       z     vdW  Elec       q    Type
REMARK                         _______ _______ _______ _____ _____    ______ ____
ROOT
ATOM      1  O   UNL     1      34.065 -13.149 -23.942  0.00  0.00    -0.447 OA
ATOM      2  C   UNL     1      33.468 -14.197 -23.329  0.00  0.00    +0.146 C 
ATOM      3  C   UNL     1      32.415 -13.787 -22.557  0.00  0.00    +0.041 C 
ATOM      4  C   UNL     1      33.380 -12.041 -23.555  0.00  0.00    +0.220 C 
ATOM      5  C   UNL     1      32.354 -12.381 -22.704  0.00  0.00    +0.047 C 
ENDROOT
BRANCH   2   7
ATOM      6 CL   UNL     1      33.084 -15.340 -26.167  0.00  0.00    -0.082 Cl
ATOM      7  C   UNL     1      34.056 -15.488 -23.612  0.00  0.00    +0.045 C 
ATOM      8  C   UNL     1      33.939 -16.091 -24.865  0.00  0.00    +0.061 C 
ATOM      9  C   UNL     1      34.756 -16.131 -22.591  0.00  0.00    +0.004 C 
ATOM     10  C   UNL     1      34.521 -17.337 -25.096  0.00  0.00    +0.011 C 
ATOM     11  C   UNL     1      35.338 -17.377 -22.823  0.00  0.00    +0.000 C 
ATOM     12  C   UNL     1      35.221 -17.980 -24.076  0.00  0.00    +0.001 C 
ENDBRANCH   2   7
BRANCH   4  14
ATOM     13  O   UNL     1      33.229  -9.681 -23.915  0.00  0.00    -0.242 OA
ATOM     14  C   UNL     1      33.807 -10.782 -24.064  0.00  0.00    +0.373 C 
BRANCH  14  15
ATOM     15  O   UNL     1      34.978 -10.846 -24.779  0.00  0.00    -0.475 OA
ATOM     16  H   UNL     1      35.517 -11.611 -24.730  0.00  0.00    +0.296 HD
ENDBRANCH  14  15
ENDBRANCH   4  14
TORSDOF 3
ENDMDL
MODEL 8
REMARK VINA RESULT:      -7.6      3.501      5.197
REMARK  Name = 784625
REMARK  3 active torsions:
REMARK  status: ('A' for Active; 'I' for Inactive)
REMARK    1  A    between atoms: C_2  and  C_7
REMARK    2  A    between atoms: C_4  and  C_14
REMARK    3  A    between atoms: C_14  and  O_15
REMARK                            x       y       z     vdW  Elec       q    Type
REMARK                         _______ _______ _______ _____ _____    ______ ____
ROOT
ATOM      1  O   UNL     1      34.092 -13.352 -23.833  0.00  0.00    -0.447 OA
ATOM      2  C   UNL     1      33.496 -14.382 -23.187  0.00  0.00    +0.146 C 
ATOM      3  C   UNL     1      32.422 -13.952 -22.454  0.00  0.00    +0.041 C 
ATOM      4  C   UNL     1      33.386 -12.238 -23.507  0.00  0.00    +0.220 C 
ATOM      5  C   UNL     1      32.348 -12.554 -22.662  0.00  0.00    +0.047 C 
ENDROOT
BRANCH   2   7
ATOM      6 CL   UNL     1      34.760 -15.783 -20.748  0.00  0.00    -0.082 Cl
ATOM      7  C   UNL     1      34.104 -15.675 -23.404  0.00  0.00    +0.045 C 
ATOM      8  C   UNL     1      34.703 -16.390 -22.366  0.00  0.00    +0.061 C 
ATOM      9  C   UNL     1      34.082 -16.205 -24.694  0.00  0.00    +0.004 C 
ATOM     10  C   UNL     1      35.280 -17.635 -22.619  0.00  0.00    +0.011 C 
ATOM     11  C   UNL     1      34.659 -17.450 -24.946  0.00  0.00    +0.000 C 
ATOM     12  C   UNL     1      35.258 -18.165 -23.909  0.00  0.00    +0.001 C 
ENDBRANCH   2   7
BRANCH   4  14
ATOM     13  O   UNL     1      33.384  -9.858 -23.754  0.00  0.00    -0.242 OA
ATOM     14  C   UNL     1      33.809 -10.997 -24.060  0.00  0.00    +0.373 C 
BRANCH  14  15
ATOM     15  O   UNL     1      34.784 -11.125 -25.020  0.00  0.00    -0.475 OA
ATOM     16  H   UNL     1      35.159 -10.361 -25.412  0.00  0.00    +0.296 HD
ENDBRANCH  14  15
ENDBRANCH   4  14
TORSDOF 3
ENDMDL
MODEL 9
REMARK VINA RESULT:      -7.5      4.738      7.166
REMARK  Name = 784625
REMARK  3 active torsions:
REMARK  status: ('A' for Active; 'I' for Inactive)
REMARK    1  A    between atoms: C_2  and  C_7
REMARK    2  A    between atoms: C_4  and  C_14
REMARK    3  A    between atoms: C_14  and  O_15
REMARK                            x       y       z     vdW  Elec       q    Type
REMARK                         _______ _______ _______ _____ _____    ______ ____
ROOT
ATOM      1  O   UNL     1      33.190 -14.120 -24.364  0.00  0.00    -0.447 OA
ATOM      2  C   UNL     1      33.492 -13.548 -23.175  0.00  0.00    +0.146 C 
ATOM      3  C   UNL     1      34.375 -14.316 -22.465  0.00  0.00    +0.041 C 
ATOM      4  C   UNL     1      33.894 -15.281 -24.418  0.00  0.00    +0.220 C 
ATOM      5  C   UNL     1      34.639 -15.447 -23.273  0.00  0.00    +0.047 C 
ENDROOT
BRANCH   2   7
ATOM      6 CL   UNL     1      34.423 -11.107 -24.814  0.00  0.00    -0.082 Cl
ATOM      7  C   UNL     1      32.836 -12.285 -22.920  0.00  0.00    +0.045 C 
ATOM      8  C   UNL     1      33.184 -11.122 -23.607  0.00  0.00    +0.061 C 
ATOM      9  C   UNL     1      31.830 -12.250 -21.955  0.00  0.00    +0.004 C 
ATOM     10  C   UNL     1      32.525  -9.924 -23.329  0.00  0.00    +0.011 C 
ATOM     11  C   UNL     1      31.171 -11.052 -21.677  0.00  0.00    +0.000 C 
ATOM     12  C   UNL     1      31.520  -9.889 -22.364  0.00  0.00    +0.001 C 
ENDBRANCH   2   7
BRANCH   4  14
ATOM     13  O   UNL     1      33.942 -17.327 -25.656  0.00  0.00    -0.242 OA
ATOM     14  C   UNL     1      33.757 -16.091 -25.580  0.00  0.00    +0.373 C 
BRANCH  14  15
ATOM     15  O   UNL     1      33.379 -15.388 -26.699  0.00  0.00    -0.475 OA
ATOM     16  H   UNL     1      32.531 -15.524 -27.074  0.00  0.00    +0.296 HD
ENDBRANCH  14  15
ENDBRANCH   4  14
TORSDOF 3
ENDMDL
