MODEL 1
REMARK VINA RESULT:      -3.8      0.000      0.000
REMARK  Name = 6409
REMARK  2 active torsions:
REMARK  status: ('A' for Active; 'I' for Inactive)
REMARK    1  A    between atoms: C_4  and  C_5
REMARK    2  A    between atoms: C_5  and  O_6
REMARK                            x       y       z     vdW  Elec       q    Type
REMARK                         _______ _______ _______ _____ _____    ______ ____
ROOT
ATOM      1  F   UNL     1      38.366 -24.537 -14.457  0.00  0.00    -0.167 F 
ATOM      2  F   UNL     1      38.843 -25.903 -12.826  0.00  0.00    -0.167 F 
ATOM      3  F   UNL     1      38.203 -26.690 -14.761  0.00  0.00    -0.167 F 
ATOM      4  C   UNL     1      38.933 -25.726 -14.161  0.00  0.00    +0.425 C 
ENDROOT
BRANCH   4   5
ATOM      5  C   UNL     1      40.367 -25.761 -14.622  0.00  0.00    +0.242 C 
BRANCH   5   6
ATOM      6  O   UNL     1      40.398 -25.943 -16.029  0.00  0.00    -0.375 OA
ATOM      7  H   UNL     1      41.211 -25.556 -16.388  0.00  0.00    +0.211 HD
ENDBRANCH   5   6
ENDBRANCH   4   5
TORSDOF 2
ENDMDL
MODEL 2
REMARK VINA RESULT:      -3.7     10.773     11.249
REMARK  Name = 6409
REMARK  2 active torsions:
REMARK  status: ('A' for Active; 'I' for Inactive)
REMARK    1  A    between atoms: C_4  and  C_5
REMARK    2  A    between atoms: C_5  and  O_6
REMARK                            x       y       z     vdW  Elec       q    Type
REMARK                         _______ _______ _______ _____ _____    ______ ____
ROOT
ATOM      1  F   UNL     1      28.585 -24.014 -15.227  0.00  0.00    -0.167 F 
ATOM      2  F   UNL     1      28.656 -21.849 -14.974  0.00  0.00    -0.167 F 
ATOM      3  F   UNL     1      30.087 -22.845 -16.290  0.00  0.00    -0.167 F 
ATOM      4  C   UNL     1      28.805 -22.847 -15.871  0.00  0.00    +0.425 C 
ENDROOT
BRANCH   4   5
ATOM      5  C   UNL     1      27.851 -22.691 -17.027  0.00  0.00    +0.242 C 
BRANCH   5   6
ATOM      6  O   UNL     1      27.641 -23.958 -17.630  0.00  0.00    -0.375 OA
ATOM      7  H   UNL     1      27.202 -24.549 -16.999  0.00  0.00    +0.211 HD
ENDBRANCH   5   6
ENDBRANCH   4   5
TORSDOF 2
ENDMDL
MODEL 3
REMARK VINA RESULT:      -3.7     17.340     18.017
REMARK  Name = 6409
REMARK  2 active torsions:
REMARK  status: ('A' for Active; 'I' for Inactive)
REMARK    1  A    between atoms: C_4  and  C_5
REMARK    2  A    between atoms: C_5  and  O_6
REMARK                            x       y       z     vdW  Elec       q    Type
REMARK                         _______ _______ _______ _____ _____    ______ ____
ROOT
ATOM      1  F   UNL     1      31.968 -11.916 -19.711  0.00  0.00    -0.167 F 
ATOM      2  F   UNL     1      30.186 -11.290 -20.802  0.00  0.00    -0.167 F 
ATOM      3  F   UNL     1      30.516 -10.601 -18.755  0.00  0.00    -0.167 F 
ATOM      4  C   UNL     1      31.127 -10.881 -19.925  0.00  0.00    +0.425 C 
ENDROOT
BRANCH   4   5
ATOM      5  C   UNL     1      31.879  -9.685 -20.449  0.00  0.00    +0.242 C 
BRANCH   5   6
ATOM      6  O   UNL     1      32.633  -9.111 -19.392  0.00  0.00    -0.375 OA
ATOM      7  H   UNL     1      33.546  -8.968 -19.685  0.00  0.00    +0.211 HD
ENDBRANCH   5   6
ENDBRANCH   4   5
TORSDOF 2
ENDMDL
MODEL 4
REMARK VINA RESULT:      -3.6     12.344     12.722
REMARK  Name = 6409
REMARK  2 active torsions:
REMARK  status: ('A' for Active; 'I' for Inactive)
REMARK    1  A    between atoms: C_4  and  C_5
REMARK    2  A    between atoms: C_5  and  O_6
REMARK                            x       y       z     vdW  Elec       q    Type
REMARK                         _______ _______ _______ _____ _____    ______ ____
ROOT
ATOM      1  F   UNL     1      34.261 -18.804 -22.571  0.00  0.00    -0.167 F 
ATOM      2  F   UNL     1      36.342 -18.561 -23.179  0.00  0.00    -0.167 F 
ATOM      3  F   UNL     1      34.896 -19.448 -24.555  0.00  0.00    -0.167 F 
ATOM      4  C   UNL     1      35.065 -18.498 -23.613  0.00  0.00    +0.425 C 
ENDROOT
BRANCH   4   5
ATOM      5  C   UNL     1      34.738 -17.129 -24.152  0.00  0.00    +0.242 C 
BRANCH   5   6
ATOM      6  O   UNL     1      35.683 -16.195 -23.652  0.00  0.00    -0.375 OA
ATOM      7  H   UNL     1      36.493 -16.660 -23.393  0.00  0.00    +0.211 HD
ENDBRANCH   5   6
ENDBRANCH   4   5
TORSDOF 2
ENDMDL
MODEL 5
REMARK VINA RESULT:      -3.6     10.976     11.406
REMARK  Name = 6409
REMARK  2 active torsions:
REMARK  status: ('A' for Active; 'I' for Inactive)
REMARK    1  A    between atoms: C_4  and  C_5
REMARK    2  A    between atoms: C_5  and  O_6
REMARK                            x       y       z     vdW  Elec       q    Type
REMARK                         _______ _______ _______ _____ _____    ______ ____
ROOT
ATOM      1  F   UNL     1      29.805 -23.488 -16.435  0.00  0.00    -0.167 F 
ATOM      2  F   UNL     1      28.005 -24.512 -17.119  0.00  0.00    -0.167 F 
ATOM      3  F   UNL     1      28.553 -24.556 -15.004  0.00  0.00    -0.167 F 
ATOM      4  C   UNL     1      28.528 -23.783 -16.110  0.00  0.00    +0.425 C 
ENDROOT
BRANCH   4   5
ATOM      5  C   UNL     1      27.735 -22.523 -15.878  0.00  0.00    +0.242 C 
BRANCH   5   6
ATOM      6  O   UNL     1      27.725 -21.754 -17.071  0.00  0.00    -0.375 OA
ATOM      7  H   UNL     1      27.841 -20.817 -16.854  0.00  0.00    +0.211 HD
ENDBRANCH   5   6
ENDBRANCH   4   5
TORSDOF 2
ENDMDL
MODEL 6
REMARK VINA RESULT:      -3.6     12.093     12.635
REMARK  Name = 6409
REMARK  2 active torsions:
REMARK  status: ('A' for Active; 'I' for Inactive)
REMARK    1  A    between atoms: C_4  and  C_5
REMARK    2  A    between atoms: C_5  and  O_6
REMARK                            x       y       z     vdW  Elec       q    Type
REMARK                         _______ _______ _______ _____ _____    ______ ____
ROOT
ATOM      1  F   UNL     1      40.747 -14.204 -18.302  0.00  0.00    -0.167 F 
ATOM      2  F   UNL     1      42.909 -14.158 -18.015  0.00  0.00    -0.167 F 
ATOM      3  F   UNL     1      41.719 -12.359 -17.667  0.00  0.00    -0.167 F 
ATOM      4  C   UNL     1      41.735 -13.701 -17.530  0.00  0.00    +0.425 C 
ENDROOT
BRANCH   4   5
ATOM      5  C   UNL     1      41.543 -14.106 -16.091  0.00  0.00    +0.242 C 
BRANCH   5   6
ATOM      6  O   UNL     1      40.439 -14.994 -16.002  0.00  0.00    -0.375 OA
ATOM      7  H   UNL     1      40.189 -15.290 -16.891  0.00  0.00    +0.211 HD
ENDBRANCH   5   6
ENDBRANCH   4   5
TORSDOF 2
ENDMDL
MODEL 7
REMARK VINA RESULT:      -3.6     11.350     11.944
REMARK  Name = 6409
REMARK  2 active torsions:
REMARK  status: ('A' for Active; 'I' for Inactive)
REMARK    1  A    between atoms: C_4  and  C_5
REMARK    2  A    between atoms: C_5  and  O_6
REMARK                            x       y       z     vdW  Elec       q    Type
REMARK                         _______ _______ _______ _____ _____    ______ ____
ROOT
ATOM      1  F   UNL     1      40.485 -14.552 -16.462  0.00  0.00    -0.167 F 
ATOM      2  F   UNL     1      41.368 -15.586 -14.757  0.00  0.00    -0.167 F 
ATOM      3  F   UNL     1      42.393 -13.877 -15.652  0.00  0.00    -0.167 F 
ATOM      4  C   UNL     1      41.184 -14.373 -15.319  0.00  0.00    +0.425 C 
ENDROOT
BRANCH   4   5
ATOM      5  C   UNL     1      40.449 -13.444 -14.388  0.00  0.00    +0.242 C 
BRANCH   5   6
ATOM      6  O   UNL     1      40.974 -13.590 -13.077  0.00  0.00    -0.375 OA
ATOM      7  H   UNL     1      41.851 -13.180 -13.031  0.00  0.00    +0.211 HD
ENDBRANCH   5   6
ENDBRANCH   4   5
TORSDOF 2
ENDMDL
MODEL 8
REMARK VINA RESULT:      -3.6     11.497     11.891
REMARK  Name = 6409
REMARK  2 active torsions:
REMARK  status: ('A' for Active; 'I' for Inactive)
REMARK    1  A    between atoms: C_4  and  C_5
REMARK    2  A    between atoms: C_5  and  O_6
REMARK                            x       y       z     vdW  Elec       q    Type
REMARK                         _______ _______ _______ _____ _____    ______ ____
ROOT
ATOM      1  F   UNL     1      41.518 -13.165 -15.926  0.00  0.00    -0.167 F 
ATOM      2  F   UNL     1      40.815 -14.350 -17.617  0.00  0.00    -0.167 F 
ATOM      3  F   UNL     1      42.831 -14.653 -16.831  0.00  0.00    -0.167 F 
ATOM      4  C   UNL     1      41.552 -14.394 -16.487  0.00  0.00    +0.425 C 
ENDROOT
BRANCH   4   5
ATOM      5  C   UNL     1      41.022 -15.429 -15.530  0.00  0.00    +0.242 C 
BRANCH   5   6
ATOM      6  O   UNL     1      40.446 -14.775 -14.409  0.00  0.00    -0.375 OA
ATOM      7  H   UNL     1      40.990 -14.938 -13.624  0.00  0.00    +0.211 HD
ENDBRANCH   5   6
ENDBRANCH   4   5
TORSDOF 2
ENDMDL
MODEL 9
REMARK VINA RESULT:      -3.6     11.091     11.700
REMARK  Name = 6409
REMARK  2 active torsions:
REMARK  status: ('A' for Active; 'I' for Inactive)
REMARK    1  A    between atoms: C_4  and  C_5
REMARK    2  A    between atoms: C_5  and  O_6
REMARK                            x       y       z     vdW  Elec       q    Type
REMARK                         _______ _______ _______ _____ _____    ______ ____
ROOT
ATOM      1  F   UNL     1      40.877 -14.425 -18.265  0.00  0.00    -0.167 F 
ATOM      2  F   UNL     1      41.729 -13.106 -16.751  0.00  0.00    -0.167 F 
ATOM      3  F   UNL     1      40.536 -14.835 -16.150  0.00  0.00    -0.167 F 
ATOM      4  C   UNL     1      41.449 -14.394 -17.041  0.00  0.00    +0.425 C 
ENDROOT
BRANCH   4   5
ATOM      5  C   UNL     1      42.692 -15.243 -17.015  0.00  0.00    +0.242 C 
BRANCH   5   6
ATOM      6  O   UNL     1      42.531 -16.275 -16.053  0.00  0.00    -0.375 OA
ATOM      7  H   UNL     1      42.764 -17.127 -16.450  0.00  0.00    +0.211 HD
ENDBRANCH   5   6
ENDBRANCH   4   5
TORSDOF 2
ENDMDL
