MODEL 1
REMARK VINA RESULT:      -8.2      0.000      0.000
REMARK  Name = 24768551
REMARK  5 active torsions:
REMARK  status: ('A' for Active; 'I' for Inactive)
REMARK    1  A    between atoms: C_2  and  C_11
REMARK    2  A    between atoms: C_11  and  C_13
REMARK    3  A    between atoms: C_11  and  C_16
REMARK    4  A    between atoms: C_13  and  O_14
REMARK    5  A    between atoms: C_16  and  C_17
REMARK                            x       y       z     vdW  Elec       q    Type
REMARK                         _______ _______ _______ _____ _____    ______ ____
ROOT
ATOM      1  N   UNL     1      36.683 -19.904 -20.484  0.00  0.00    -0.312 N 
ATOM      2  C   UNL     1      35.244 -18.477 -21.390  0.00  0.00    +0.004 C 
ATOM      3  C   UNL     1      34.504 -19.535 -20.792  0.00  0.00    +0.011 C 
ATOM      4  C   UNL     1      35.430 -20.417 -20.231  0.00  0.00    +0.048 C 
ATOM      5  C   UNL     1      36.580 -18.732 -21.185  0.00  0.00    +0.058 C 
ATOM      6  C   UNL     1      33.131 -19.827 -20.673  0.00  0.00    +0.001 C 
ATOM      7  C   UNL     1      35.051 -21.581 -19.554  0.00  0.00    +0.015 C 
ATOM      8  C   UNL     1      32.736 -20.988 -19.999  0.00  0.00    +0.000 C 
ATOM      9  C   UNL     1      33.683 -21.851 -19.448  0.00  0.00    +0.001 C 
ATOM     10  H   UNL     1      37.529 -20.320 -20.203  0.00  0.00    +0.152 HD
ENDROOT
BRANCH   2  11
ATOM     11  C   UNL     1      34.675 -17.279 -22.126  0.00  0.00    +0.122 C 
BRANCH  11  13
ATOM     12  O   UNL     1      34.993 -16.036 -20.049  0.00  0.00    -0.250 OA
ATOM     13  C   UNL     1      34.685 -16.045 -21.233  0.00  0.00    +0.317 C 
BRANCH  13  14
ATOM     14  O   UNL     1      34.295 -14.925 -21.899  0.00  0.00    -0.480 OA
ATOM     15  H   UNL     1      33.774 -14.999 -22.674  0.00  0.00    +0.295 HD
ENDBRANCH  13  14
ENDBRANCH  11  13
BRANCH  11  16
ATOM     16  C   UNL     1      35.400 -16.986 -23.457  0.00  0.00    +0.016 C 
BRANCH  16  17
ATOM     17  C   UNL     1      34.567 -17.365 -24.687  0.00  0.00    +0.001 C 
ATOM     18  C   UNL     1      34.398 -18.872 -24.798  0.00  0.00    +0.000 C 
ENDBRANCH  16  17
ENDBRANCH  11  16
ENDBRANCH   2  11
TORSDOF 5
ENDMDL
MODEL 2
REMARK VINA RESULT:      -8.1      1.666      2.629
REMARK  Name = 24768551
REMARK  5 active torsions:
REMARK  status: ('A' for Active; 'I' for Inactive)
REMARK    1  A    between atoms: C_2  and  C_11
REMARK    2  A    between atoms: C_11  and  C_13
REMARK    3  A    between atoms: C_11  and  C_16
REMARK    4  A    between atoms: C_13  and  O_14
REMARK    5  A    between atoms: C_16  and  C_17
REMARK                            x       y       z     vdW  Elec       q    Type
REMARK                         _______ _______ _______ _____ _____    ______ ____
ROOT
ATOM      1  N   UNL     1      36.852 -20.038 -20.291  0.00  0.00    -0.312 N 
ATOM      2  C   UNL     1      35.692 -18.600 -21.521  0.00  0.00    +0.004 C 
ATOM      3  C   UNL     1      34.778 -19.513 -20.924  0.00  0.00    +0.011 C 
ATOM      4  C   UNL     1      35.532 -20.405 -20.158  0.00  0.00    +0.048 C 
ATOM      5  C   UNL     1      36.959 -18.949 -21.115  0.00  0.00    +0.058 C 
ATOM      6  C   UNL     1      33.378 -19.666 -20.961  0.00  0.00    +0.001 C 
ATOM      7  C   UNL     1      34.953 -21.446 -19.424  0.00  0.00    +0.015 C 
ATOM      8  C   UNL     1      32.785 -20.703 -20.232  0.00  0.00    +0.000 C 
ATOM      9  C   UNL     1      33.562 -21.579 -19.476  0.00  0.00    +0.001 C 
ATOM     10  H   UNL     1      37.610 -20.494 -19.858  0.00  0.00    +0.152 HD
ENDROOT
BRANCH   2  11
ATOM     11  C   UNL     1      35.345 -17.447 -22.444  0.00  0.00    +0.122 C 
BRANCH  11  13
ATOM     12  O   UNL     1      34.917 -19.106 -24.184  0.00  0.00    -0.250 OA
ATOM     13  C   UNL     1      35.135 -17.944 -23.869  0.00  0.00    +0.317 C 
BRANCH  13  14
ATOM     14  O   UNL     1      35.229 -16.940 -24.782  0.00  0.00    -0.480 OA
ATOM     15  H   UNL     1      35.346 -16.056 -24.495  0.00  0.00    +0.295 HD
ENDBRANCH  13  14
ENDBRANCH  11  13
BRANCH  11  16
ATOM     16  C   UNL     1      34.117 -16.641 -21.969  0.00  0.00    +0.016 C 
BRANCH  16  17
ATOM     17  C   UNL     1      34.439 -15.688 -20.813  0.00  0.00    +0.001 C 
ATOM     18  C   UNL     1      33.219 -14.879 -20.405  0.00  0.00    +0.000 C 
ENDBRANCH  16  17
ENDBRANCH  11  16
ENDBRANCH   2  11
TORSDOF 5
ENDMDL
MODEL 3
REMARK VINA RESULT:      -8.0      2.127      3.306
REMARK  Name = 24768551
REMARK  5 active torsions:
REMARK  status: ('A' for Active; 'I' for Inactive)
REMARK    1  A    between atoms: C_2  and  C_11
REMARK    2  A    between atoms: C_11  and  C_13
REMARK    3  A    between atoms: C_11  and  C_16
REMARK    4  A    between atoms: C_13  and  O_14
REMARK    5  A    between atoms: C_16  and  C_17
REMARK                            x       y       z     vdW  Elec       q    Type
REMARK                         _______ _______ _______ _____ _____    ______ ____
ROOT
ATOM      1  N   UNL     1      32.659 -20.278 -20.489  0.00  0.00    -0.312 N 
ATOM      2  C   UNL     1      34.309 -19.106 -21.400  0.00  0.00    +0.004 C 
ATOM      3  C   UNL     1      34.881 -20.084 -20.540  0.00  0.00    +0.011 C 
ATOM      4  C   UNL     1      33.824 -20.806 -19.980  0.00  0.00    +0.048 C 
ATOM      5  C   UNL     1      32.942 -19.249 -21.347  0.00  0.00    +0.058 C 
ATOM      6  C   UNL     1      36.200 -20.426 -20.182  0.00  0.00    +0.001 C 
ATOM      7  C   UNL     1      34.022 -21.857 -19.078  0.00  0.00    +0.015 C 
ATOM      8  C   UNL     1      36.413 -21.476 -19.281  0.00  0.00    +0.000 C 
ATOM      9  C   UNL     1      35.339 -22.179 -18.738  0.00  0.00    +0.001 C 
ATOM     10  H   UNL     1      31.754 -20.594 -20.267  0.00  0.00    +0.152 HD
ENDROOT
BRANCH   2  11
ATOM     11  C   UNL     1      35.061 -18.082 -22.230  0.00  0.00    +0.122 C 
BRANCH  11  13
ATOM     12  O   UNL     1      35.100 -19.692 -24.065  0.00  0.00    -0.250 OA
ATOM     13  C   UNL     1      35.152 -18.530 -23.683  0.00  0.00    +0.317 C 
BRANCH  13  14
ATOM     14  O   UNL     1      35.313 -17.483 -24.534  0.00  0.00    -0.480 OA
ATOM     15  H   UNL     1      35.438 -17.637 -25.450  0.00  0.00    +0.295 HD
ENDBRANCH  13  14
ENDBRANCH  11  13
BRANCH  11  16
ATOM     16  C   UNL     1      34.451 -16.666 -22.140  0.00  0.00    +0.016 C 
BRANCH  16  17
ATOM     17  C   UNL     1      34.588 -16.045 -20.746  0.00  0.00    +0.001 C 
ATOM     18  C   UNL     1      33.457 -15.069 -20.461  0.00  0.00    +0.000 C 
ENDBRANCH  16  17
ENDBRANCH  11  16
ENDBRANCH   2  11
TORSDOF 5
ENDMDL
MODEL 4
REMARK VINA RESULT:      -8.0      1.488      2.331
REMARK  Name = 24768551
REMARK  5 active torsions:
REMARK  status: ('A' for Active; 'I' for Inactive)
REMARK    1  A    between atoms: C_2  and  C_11
REMARK    2  A    between atoms: C_11  and  C_13
REMARK    3  A    between atoms: C_11  and  C_16
REMARK    4  A    between atoms: C_13  and  O_14
REMARK    5  A    between atoms: C_16  and  C_17
REMARK                            x       y       z     vdW  Elec       q    Type
REMARK                         _______ _______ _______ _____ _____    ______ ____
ROOT
ATOM      1  N   UNL     1      32.666 -20.891 -19.908  0.00  0.00    -0.312 N 
ATOM      2  C   UNL     1      33.823 -19.431 -21.115  0.00  0.00    +0.004 C 
ATOM      3  C   UNL     1      34.743 -20.217 -20.366  0.00  0.00    +0.011 C 
ATOM      4  C   UNL     1      33.991 -21.126 -19.617  0.00  0.00    +0.048 C 
ATOM      5  C   UNL     1      32.555 -19.868 -20.812  0.00  0.00    +0.058 C 
ATOM      6  C   UNL     1      36.147 -20.244 -20.253  0.00  0.00    +0.001 C 
ATOM      7  C   UNL     1      34.576 -22.063 -18.759  0.00  0.00    +0.015 C 
ATOM      8  C   UNL     1      36.746 -21.176 -19.398  0.00  0.00    +0.000 C 
ATOM      9  C   UNL     1      35.971 -22.071 -18.663  0.00  0.00    +0.001 C 
ATOM     10  H   UNL     1      31.909 -21.388 -19.522  0.00  0.00    +0.152 HD
ENDROOT
BRANCH   2  11
ATOM     11  C   UNL     1      34.167 -18.309 -22.076  0.00  0.00    +0.122 C 
BRANCH  11  13
ATOM     12  O   UNL     1      35.343 -16.898 -20.467  0.00  0.00    -0.250 OA
ATOM     13  C   UNL     1      34.470 -17.024 -21.315  0.00  0.00    +0.317 C 
BRANCH  13  14
ATOM     14  O   UNL     1      33.642 -16.007 -21.675  0.00  0.00    -0.480 OA
ATOM     15  H   UNL     1      33.425 -15.876 -22.577  0.00  0.00    +0.295 HD
ENDBRANCH  13  14
ENDBRANCH  11  13
BRANCH  11  16
ATOM     16  C   UNL     1      35.333 -18.661 -23.024  0.00  0.00    +0.016 C 
BRANCH  16  17
ATOM     17  C   UNL     1      34.880 -18.875 -24.473  0.00  0.00    +0.001 C 
ATOM     18  C   UNL     1      34.497 -17.560 -25.133  0.00  0.00    +0.000 C 
ENDBRANCH  16  17
ENDBRANCH  11  16
ENDBRANCH   2  11
TORSDOF 5
ENDMDL
MODEL 5
REMARK VINA RESULT:      -7.9      2.402      5.204
REMARK  Name = 24768551
REMARK  5 active torsions:
REMARK  status: ('A' for Active; 'I' for Inactive)
REMARK    1  A    between atoms: C_2  and  C_11
REMARK    2  A    between atoms: C_11  and  C_13
REMARK    3  A    between atoms: C_11  and  C_16
REMARK    4  A    between atoms: C_13  and  O_14
REMARK    5  A    between atoms: C_16  and  C_17
REMARK                            x       y       z     vdW  Elec       q    Type
REMARK                         _______ _______ _______ _____ _____    ______ ____
ROOT
ATOM      1  N   UNL     1      34.893 -18.316 -23.848  0.00  0.00    -0.312 N 
ATOM      2  C   UNL     1      34.659 -18.987 -21.745  0.00  0.00    +0.004 C 
ATOM      3  C   UNL     1      34.609 -17.565 -21.766  0.00  0.00    +0.011 C 
ATOM      4  C   UNL     1      34.758 -17.170 -23.098  0.00  0.00    +0.048 C 
ATOM      5  C   UNL     1      34.835 -19.420 -23.039  0.00  0.00    +0.058 C 
ATOM      6  C   UNL     1      34.450 -16.573 -20.779  0.00  0.00    +0.001 C 
ATOM      7  C   UNL     1      34.756 -15.827 -23.492  0.00  0.00    +0.015 C 
ATOM      8  C   UNL     1      34.446 -15.226 -21.158  0.00  0.00    +0.000 C 
ATOM      9  C   UNL     1      34.597 -14.861 -22.494  0.00  0.00    +0.001 C 
ATOM     10  H   UNL     1      35.014 -18.339 -24.825  0.00  0.00    +0.152 HD
ENDROOT
BRANCH   2  11
ATOM     11  C   UNL     1      34.542 -19.877 -20.522  0.00  0.00    +0.122 C 
BRANCH  11  13
ATOM     12  O   UNL     1      32.110 -19.668 -20.468  0.00  0.00    -0.250 OA
ATOM     13  C   UNL     1      33.109 -20.364 -20.347  0.00  0.00    +0.317 C 
BRANCH  13  14
ATOM     14  O   UNL     1      33.052 -21.683 -20.022  0.00  0.00    -0.480 OA
ATOM     15  H   UNL     1      33.829 -22.136 -19.762  0.00  0.00    +0.295 HD
ENDBRANCH  13  14
ENDBRANCH  11  13
BRANCH  11  16
ATOM     16  C   UNL     1      35.518 -21.073 -20.550  0.00  0.00    +0.016 C 
BRANCH  16  17
ATOM     17  C   UNL     1      36.665 -20.931 -19.544  0.00  0.00    +0.001 C 
ATOM     18  C   UNL     1      36.382 -21.706 -18.268  0.00  0.00    +0.000 C 
ENDBRANCH  16  17
ENDBRANCH  11  16
ENDBRANCH   2  11
TORSDOF 5
ENDMDL
MODEL 6
REMARK VINA RESULT:      -7.6      9.320     10.944
REMARK  Name = 24768551
REMARK  5 active torsions:
REMARK  status: ('A' for Active; 'I' for Inactive)
REMARK    1  A    between atoms: C_2  and  C_11
REMARK    2  A    between atoms: C_11  and  C_13
REMARK    3  A    between atoms: C_11  and  C_16
REMARK    4  A    between atoms: C_13  and  O_14
REMARK    5  A    between atoms: C_16  and  C_17
REMARK                            x       y       z     vdW  Elec       q    Type
REMARK                         _______ _______ _______ _____ _____    ______ ____
ROOT
ATOM      1  N   UNL     1      32.566  -7.891 -19.557  0.00  0.00    -0.312 N 
ATOM      2  C   UNL     1      32.254  -7.694 -21.746  0.00  0.00    +0.004 C 
ATOM      3  C   UNL     1      31.920  -9.024 -21.367  0.00  0.00    +0.011 C 
ATOM      4  C   UNL     1      32.124  -9.122 -19.989  0.00  0.00    +0.048 C 
ATOM      5  C   UNL     1      32.648  -7.022 -20.612  0.00  0.00    +0.058 C 
ATOM      6  C   UNL     1      31.461 -10.159 -22.067  0.00  0.00    +0.001 C 
ATOM      7  C   UNL     1      31.892 -10.301 -19.272  0.00  0.00    +0.015 C 
ATOM      8  C   UNL     1      31.224 -11.345 -21.363  0.00  0.00    +0.000 C 
ATOM      9  C   UNL     1      31.437 -11.413 -19.987  0.00  0.00    +0.001 C 
ATOM     10  H   UNL     1      32.790  -7.669 -18.625  0.00  0.00    +0.152 HD
ENDROOT
BRANCH   2  11
ATOM     11  C   UNL     1      32.193  -7.110 -23.145  0.00  0.00    +0.122 C 
BRANCH  11  13
ATOM     12  O   UNL     1      30.258  -5.729 -22.590  0.00  0.00    -0.250 OA
ATOM     13  C   UNL     1      31.330  -5.855 -23.166  0.00  0.00    +0.317 C 
BRANCH  13  14
ATOM     14  O   UNL     1      31.882  -4.865 -23.917  0.00  0.00    -0.480 OA
ATOM     15  H   UNL     1      32.610  -5.052 -24.477  0.00  0.00    +0.295 HD
ENDBRANCH  13  14
ENDBRANCH  11  13
BRANCH  11  16
ATOM     16  C   UNL     1      33.588  -6.816 -23.738  0.00  0.00    +0.016 C 
BRANCH  16  17
ATOM     17  C   UNL     1      34.652  -7.822 -23.287  0.00  0.00    +0.001 C 
ATOM     18  C   UNL     1      34.712  -9.021 -24.220  0.00  0.00    +0.000 C 
ENDBRANCH  16  17
ENDBRANCH  11  16
ENDBRANCH   2  11
TORSDOF 5
ENDMDL
MODEL 7
REMARK VINA RESULT:      -7.4      4.021      5.699
REMARK  Name = 24768551
REMARK  5 active torsions:
REMARK  status: ('A' for Active; 'I' for Inactive)
REMARK    1  A    between atoms: C_2  and  C_11
REMARK    2  A    between atoms: C_11  and  C_13
REMARK    3  A    between atoms: C_11  and  C_16
REMARK    4  A    between atoms: C_13  and  O_14
REMARK    5  A    between atoms: C_16  and  C_17
REMARK                            x       y       z     vdW  Elec       q    Type
REMARK                         _______ _______ _______ _____ _____    ______ ____
ROOT
ATOM      1  N   UNL     1      33.329 -15.570 -25.910  0.00  0.00    -0.312 N 
ATOM      2  C   UNL     1      33.606 -14.428 -24.026  0.00  0.00    +0.004 C 
ATOM      3  C   UNL     1      34.216 -15.704 -23.867  0.00  0.00    +0.011 C 
ATOM      4  C   UNL     1      34.028 -16.401 -25.063  0.00  0.00    +0.048 C 
ATOM      5  C   UNL     1      33.069 -14.376 -25.292  0.00  0.00    +0.058 C 
ATOM      6  C   UNL     1      34.912 -16.335 -22.817  0.00  0.00    +0.001 C 
ATOM      7  C   UNL     1      34.504 -17.701 -25.262  0.00  0.00    +0.015 C 
ATOM      8  C   UNL     1      35.394 -17.636 -23.002  0.00  0.00    +0.000 C 
ATOM      9  C   UNL     1      35.192 -18.307 -24.206  0.00  0.00    +0.001 C 
ATOM     10  H   UNL     1      33.056 -15.802 -26.827  0.00  0.00    +0.152 HD
ENDROOT
BRANCH   2  11
ATOM     11  C   UNL     1      33.549 -13.318 -22.994  0.00  0.00    +0.122 C 
BRANCH  11  13
ATOM     12  O   UNL     1      32.632 -11.114 -23.504  0.00  0.00    -0.250 OA
ATOM     13  C   UNL     1      33.505 -11.955 -23.673  0.00  0.00    +0.317 C 
BRANCH  13  14
ATOM     14  O   UNL     1      34.555 -11.767 -24.516  0.00  0.00    -0.480 OA
ATOM     15  H   UNL     1      35.395 -12.125 -24.306  0.00  0.00    +0.295 HD
ENDBRANCH  13  14
ENDBRANCH  11  13
BRANCH  11  16
ATOM     16  C   UNL     1      32.369 -13.469 -22.010  0.00  0.00    +0.016 C 
BRANCH  16  17
ATOM     17  C   UNL     1      32.784 -14.093 -20.673  0.00  0.00    +0.001 C 
ATOM     18  C   UNL     1      32.301 -15.530 -20.560  0.00  0.00    +0.000 C 
ENDBRANCH  16  17
ENDBRANCH  11  16
ENDBRANCH   2  11
TORSDOF 5
ENDMDL
MODEL 8
REMARK VINA RESULT:      -7.4      7.093      9.919
REMARK  Name = 24768551
REMARK  5 active torsions:
REMARK  status: ('A' for Active; 'I' for Inactive)
REMARK    1  A    between atoms: C_2  and  C_11
REMARK    2  A    between atoms: C_11  and  C_13
REMARK    3  A    between atoms: C_11  and  C_16
REMARK    4  A    between atoms: C_13  and  O_14
REMARK    5  A    between atoms: C_16  and  C_17
REMARK                            x       y       z     vdW  Elec       q    Type
REMARK                         _______ _______ _______ _____ _____    ______ ____
ROOT
ATOM      1  N   UNL     1      34.460 -24.119 -14.853  0.00  0.00    -0.312 N 
ATOM      2  C   UNL     1      36.503 -23.903 -14.012  0.00  0.00    +0.004 C 
ATOM      3  C   UNL     1      36.460 -23.218 -15.258  0.00  0.00    +0.011 C 
ATOM      4  C   UNL     1      35.168 -23.369 -15.765  0.00  0.00    +0.048 C 
ATOM      5  C   UNL     1      35.259 -24.447 -13.790  0.00  0.00    +0.058 C 
ATOM      6  C   UNL     1      37.400 -22.481 -16.006  0.00  0.00    +0.001 C 
ATOM      7  C   UNL     1      34.766 -22.817 -16.987  0.00  0.00    +0.015 C 
ATOM      8  C   UNL     1      37.012 -21.923 -17.230  0.00  0.00    +0.000 C 
ATOM      9  C   UNL     1      35.715 -22.090 -17.711  0.00  0.00    +0.001 C 
ATOM     10  H   UNL     1      33.516 -24.382 -14.951  0.00  0.00    +0.152 HD
ENDROOT
BRANCH   2  11
ATOM     11  C   UNL     1      37.699 -24.021 -13.086  0.00  0.00    +0.122 C 
BRANCH  11  13
ATOM     12  O   UNL     1      36.967 -24.256 -10.769  0.00  0.00    -0.250 OA
ATOM     13  C   UNL     1      37.344 -23.539 -11.686  0.00  0.00    +0.317 C 
BRANCH  13  14
ATOM     14  O   UNL     1      37.481 -22.192 -11.557  0.00  0.00    -0.480 OA
ATOM     15  H   UNL     1      38.089 -21.840 -10.937  0.00  0.00    +0.295 HD
ENDBRANCH  13  14
ENDBRANCH  11  13
BRANCH  11  16
ATOM     16  C   UNL     1      38.282 -25.450 -13.032  0.00  0.00    +0.016 C 
BRANCH  16  17
ATOM     17  C   UNL     1      38.776 -25.945 -14.395  0.00  0.00    +0.001 C 
ATOM     18  C   UNL     1      40.117 -25.325 -14.757  0.00  0.00    +0.000 C 
ENDBRANCH  16  17
ENDBRANCH  11  16
ENDBRANCH   2  11
TORSDOF 5
ENDMDL
MODEL 9
REMARK VINA RESULT:      -7.4      5.032      7.694
REMARK  Name = 24768551
REMARK  5 active torsions:
REMARK  status: ('A' for Active; 'I' for Inactive)
REMARK    1  A    between atoms: C_2  and  C_11
REMARK    2  A    between atoms: C_11  and  C_13
REMARK    3  A    between atoms: C_11  and  C_16
REMARK    4  A    between atoms: C_13  and  O_14
REMARK    5  A    between atoms: C_16  and  C_17
REMARK                            x       y       z     vdW  Elec       q    Type
REMARK                         _______ _______ _______ _____ _____    ______ ____
ROOT
ATOM      1  N   UNL     1      33.626 -10.965 -24.466  0.00  0.00    -0.312 N 
ATOM      2  C   UNL     1      33.309 -13.112 -24.000  0.00  0.00    +0.004 C 
ATOM      3  C   UNL     1      32.649 -12.339 -23.004  0.00  0.00    +0.011 C 
ATOM      4  C   UNL     1      32.863 -10.996 -23.320  0.00  0.00    +0.048 C 
ATOM      5  C   UNL     1      33.901 -12.240 -24.884  0.00  0.00    +0.058 C 
ATOM      6  C   UNL     1      31.887 -12.654 -21.862  0.00  0.00    +0.001 C 
ATOM      7  C   UNL     1      32.351  -9.947 -22.548  0.00  0.00    +0.015 C 
ATOM      8  C   UNL     1      31.368 -11.616 -21.080  0.00  0.00    +0.000 C 
ATOM      9  C   UNL     1      31.598 -10.284 -21.419  0.00  0.00    +0.001 C 
ATOM     10  H   UNL     1      33.930 -10.146 -24.919  0.00  0.00    +0.152 HD
ENDROOT
BRANCH   2  11
ATOM     11  C   UNL     1      33.361 -14.626 -24.082  0.00  0.00    +0.122 C 
BRANCH  11  13
ATOM     12  O   UNL     1      34.156 -15.808 -26.065  0.00  0.00    -0.250 OA
ATOM     13  C   UNL     1      33.321 -15.088 -25.533  0.00  0.00    +0.317 C 
BRANCH  13  14
ATOM     14  O   UNL     1      32.243 -14.596 -26.199  0.00  0.00    -0.480 OA
ATOM     15  H   UNL     1      32.017 -13.690 -26.122  0.00  0.00    +0.295 HD
ENDBRANCH  13  14
ENDBRANCH  11  13
BRANCH  11  16
ATOM     16  C   UNL     1      34.584 -15.229 -23.358  0.00  0.00    +0.016 C 
BRANCH  16  17
ATOM     17  C   UNL     1      34.209 -15.975 -22.073  0.00  0.00    +0.001 C 
ATOM     18  C   UNL     1      34.529 -15.147 -20.838  0.00  0.00    +0.000 C 
ENDBRANCH  16  17
ENDBRANCH  11  16
ENDBRANCH   2  11
TORSDOF 5
ENDMDL
