MODEL 1
REMARK VINA RESULT:      -5.6      0.000      0.000
REMARK  Name = 644111
REMARK  8 active torsions:
REMARK  status: ('A' for Active; 'I' for Inactive)
REMARK    1  A    between atoms: C_1  and  O_2
REMARK    2  A    between atoms: C_1  and  C_5
REMARK    3  A    between atoms: C_1  and  C_9
REMARK    4  A    between atoms: C_5  and  C_6
REMARK    5  A    between atoms: C_6  and  O_7
REMARK    6  A    between atoms: C_9  and  O_10
REMARK    7  A    between atoms: C_9  and  C_12
REMARK    8  A    between atoms: C_12  and  O_13
REMARK                            x       y       z     vdW  Elec       q    Type
REMARK                         _______ _______ _______ _____ _____    ______ ____
ROOT
ATOM      1  C   UNL     1      38.140 -24.927 -13.246  0.00  0.00    +0.200 C 
ENDROOT
BRANCH   1   2
ATOM      2  O   UNL     1      37.983 -23.683 -13.914  0.00  0.00    -0.375 OA
ATOM      3  H   UNL     1      37.958 -22.966 -13.261  0.00  0.00    +0.211 HD
ENDBRANCH   1   2
BRANCH   1   5
ATOM      4  O   UNL     1      38.241 -26.927 -14.592  0.00  0.00    -0.291 OA
ATOM      5  C   UNL     1      38.816 -25.915 -14.195  0.00  0.00    +0.209 C 
BRANCH   5   6
ATOM      6  C   UNL     1      40.223 -25.571 -14.647  0.00  0.00    +0.205 C 
BRANCH   6   7
ATOM      7  O   UNL     1      40.410 -25.934 -16.000  0.00  0.00    -0.375 OA
ATOM      8  H   UNL     1      39.570 -25.855 -16.477  0.00  0.00    +0.211 HD
ENDBRANCH   6   7
ENDBRANCH   5   6
ENDBRANCH   1   5
BRANCH   1   9
ATOM      9  C   UNL     1      36.776 -25.423 -12.756  0.00  0.00    +0.174 C 
BRANCH   9  10
ATOM     10  O   UNL     1      36.935 -26.640 -12.023  0.00  0.00    -0.379 OA
ATOM     11  H   UNL     1      36.213 -26.727 -11.380  0.00  0.00    +0.211 HD
ENDBRANCH   9  10
BRANCH   9  12
ATOM     12  C   UNL     1      36.107 -24.415 -11.825  0.00  0.00    +0.169 C 
BRANCH  12  13
ATOM     13  O   UNL     1      35.380 -25.122 -10.824  0.00  0.00    -0.379 OA
ATOM     14  H   UNL     1      34.493 -24.740 -10.737  0.00  0.00    +0.211 HD
ENDBRANCH  12  13
ENDBRANCH   9  12
ENDBRANCH   1   9
TORSDOF 8
ENDMDL
MODEL 2
REMARK VINA RESULT:      -5.5      1.151      4.599
REMARK  Name = 644111
REMARK  8 active torsions:
REMARK  status: ('A' for Active; 'I' for Inactive)
REMARK    1  A    between atoms: C_1  and  O_2
REMARK    2  A    between atoms: C_1  and  C_5
REMARK    3  A    between atoms: C_1  and  C_9
REMARK    4  A    between atoms: C_5  and  C_6
REMARK    5  A    between atoms: C_6  and  O_7
REMARK    6  A    between atoms: C_9  and  O_10
REMARK    7  A    between atoms: C_9  and  C_12
REMARK    8  A    between atoms: C_12  and  O_13
REMARK                            x       y       z     vdW  Elec       q    Type
REMARK                         _______ _______ _______ _____ _____    ______ ____
ROOT
ATOM      1  C   UNL     1      37.847 -25.512 -12.445  0.00  0.00    +0.200 C 
ENDROOT
BRANCH   1   2
ATOM      2  O   UNL     1      36.863 -26.534 -12.523  0.00  0.00    -0.375 OA
ATOM      3  H   UNL     1      37.235 -27.307 -12.976  0.00  0.00    +0.211 HD
ENDBRANCH   1   2
BRANCH   1   5
ATOM      4  O   UNL     1      37.936 -23.357 -11.363  0.00  0.00    -0.291 OA
ATOM      5  C   UNL     1      37.239 -24.294 -11.752  0.00  0.00    +0.209 C 
BRANCH   5   6
ATOM      6  C   UNL     1      35.731 -24.282 -11.594  0.00  0.00    +0.205 C 
BRANCH   6   7
ATOM      7  O   UNL     1      35.344 -25.062 -10.480  0.00  0.00    -0.375 OA
ATOM      8  H   UNL     1      35.436 -24.537  -9.670  0.00  0.00    +0.211 HD
ENDBRANCH   6   7
ENDBRANCH   5   6
ENDBRANCH   1   5
BRANCH   1   9
ATOM      9  C   UNL     1      38.368 -25.192 -13.849  0.00  0.00    +0.174 C 
BRANCH   9  10
ATOM     10  O   UNL     1      38.170 -23.805 -14.137  0.00  0.00    -0.379 OA
ATOM     11  H   UNL     1      38.294 -23.286 -13.327  0.00  0.00    +0.211 HD
ENDBRANCH   9  10
BRANCH   9  12
ATOM     12  C   UNL     1      39.863 -25.473 -13.978  0.00  0.00    +0.169 C 
BRANCH  12  13
ATOM     13  O   UNL     1      40.044 -26.705 -14.670  0.00  0.00    -0.379 OA
ATOM     14  H   UNL     1      40.881 -27.110 -14.397  0.00  0.00    +0.211 HD
ENDBRANCH  12  13
ENDBRANCH   9  12
ENDBRANCH   1   9
TORSDOF 8
ENDMDL
MODEL 3
REMARK VINA RESULT:      -5.4      0.907      4.213
REMARK  Name = 644111
REMARK  8 active torsions:
REMARK  status: ('A' for Active; 'I' for Inactive)
REMARK    1  A    between atoms: C_1  and  O_2
REMARK    2  A    between atoms: C_1  and  C_5
REMARK    3  A    between atoms: C_1  and  C_9
REMARK    4  A    between atoms: C_5  and  C_6
REMARK    5  A    between atoms: C_6  and  O_7
REMARK    6  A    between atoms: C_9  and  O_10
REMARK    7  A    between atoms: C_9  and  C_12
REMARK    8  A    between atoms: C_12  and  O_13
REMARK                            x       y       z     vdW  Elec       q    Type
REMARK                         _______ _______ _______ _____ _____    ______ ____
ROOT
ATOM      1  C   UNL     1      37.987 -24.844 -13.301  0.00  0.00    +0.200 C 
ENDROOT
BRANCH   1   2
ATOM      2  O   UNL     1      38.710 -23.865 -12.569  0.00  0.00    -0.375 OA
ATOM      3  H   UNL     1      38.097 -23.186 -12.244  0.00  0.00    +0.211 HD
ENDBRANCH   1   2
BRANCH   1   5
ATOM      4  O   UNL     1      37.087 -26.656 -11.985  0.00  0.00    -0.291 OA
ATOM      5  C   UNL     1      36.961 -25.495 -12.374  0.00  0.00    +0.209 C 
BRANCH   5   6
ATOM      6  C   UNL     1      35.796 -24.631 -11.934  0.00  0.00    +0.205 C 
BRANCH   6   7
ATOM      7  O   UNL     1      35.324 -25.043 -10.667  0.00  0.00    -0.375 OA
ATOM      8  H   UNL     1      35.906 -24.692  -9.975  0.00  0.00    +0.211 HD
ENDBRANCH   6   7
ENDBRANCH   5   6
ENDBRANCH   1   5
BRANCH   1   9
ATOM      9  C   UNL     1      38.963 -25.860 -13.903  0.00  0.00    +0.174 C 
BRANCH   9  10
ATOM     10  O   UNL     1      38.238 -26.898 -14.567  0.00  0.00    -0.379 OA
ATOM     11  H   UNL     1      37.462 -26.518 -15.009  0.00  0.00    +0.211 HD
ENDBRANCH   9  10
BRANCH   9  12
ATOM     12  C   UNL     1      39.885 -25.217 -14.936  0.00  0.00    +0.169 C 
BRANCH  12  13
ATOM     13  O   UNL     1      39.215 -24.107 -15.527  0.00  0.00    -0.379 OA
ATOM     14  H   UNL     1      39.330 -23.324 -14.966  0.00  0.00    +0.211 HD
ENDBRANCH  12  13
ENDBRANCH   9  12
ENDBRANCH   1   9
TORSDOF 8
ENDMDL
MODEL 4
REMARK VINA RESULT:      -5.3      1.152      2.284
REMARK  Name = 644111
REMARK  8 active torsions:
REMARK  status: ('A' for Active; 'I' for Inactive)
REMARK    1  A    between atoms: C_1  and  O_2
REMARK    2  A    between atoms: C_1  and  C_5
REMARK    3  A    between atoms: C_1  and  C_9
REMARK    4  A    between atoms: C_5  and  C_6
REMARK    5  A    between atoms: C_6  and  O_7
REMARK    6  A    between atoms: C_9  and  O_10
REMARK    7  A    between atoms: C_9  and  C_12
REMARK    8  A    between atoms: C_12  and  O_13
REMARK                            x       y       z     vdW  Elec       q    Type
REMARK                         _______ _______ _______ _____ _____    ______ ____
ROOT
ATOM      1  C   UNL     1      36.746 -25.534 -12.889  0.00  0.00    +0.200 C 
ENDROOT
BRANCH   1   2
ATOM      2  O   UNL     1      37.013 -26.441 -11.830  0.00  0.00    -0.375 OA
ATOM      3  H   UNL     1      37.916 -26.786 -11.919  0.00  0.00    +0.211 HD
ENDBRANCH   1   2
BRANCH   1   5
ATOM      4  O   UNL     1      38.657 -24.061 -12.926  0.00  0.00    -0.291 OA
ATOM      5  C   UNL     1      38.072 -25.014 -13.440  0.00  0.00    +0.209 C 
BRANCH   5   6
ATOM      6  C   UNL     1      38.649 -25.749 -14.635  0.00  0.00    +0.205 C 
BRANCH   6   7
ATOM      7  O   UNL     1      38.276 -27.112 -14.605  0.00  0.00    -0.375 OA
ATOM      8  H   UNL     1      37.593 -27.276 -15.273  0.00  0.00    +0.211 HD
ENDBRANCH   6   7
ENDBRANCH   5   6
ENDBRANCH   1   5
BRANCH   1   9
ATOM      9  C   UNL     1      35.837 -24.408 -12.385  0.00  0.00    +0.174 C 
BRANCH   9  10
ATOM     10  O   UNL     1      34.466 -24.770 -12.571  0.00  0.00    -0.379 OA
ATOM     11  H   UNL     1      34.350 -25.713 -12.375  0.00  0.00    +0.211 HD
ENDBRANCH   9  10
BRANCH   9  12
ATOM     12  C   UNL     1      36.038 -24.142 -10.895  0.00  0.00    +0.169 C 
BRANCH  12  13
ATOM     13  O   UNL     1      35.248 -25.063 -10.149  0.00  0.00    -0.379 OA
ATOM     14  H   UNL     1      35.473 -24.996  -9.209  0.00  0.00    +0.211 HD
ENDBRANCH  12  13
ENDBRANCH   9  12
ENDBRANCH   1   9
TORSDOF 8
ENDMDL
MODEL 5
REMARK VINA RESULT:      -5.2     10.719     11.834
REMARK  Name = 644111
REMARK  8 active torsions:
REMARK  status: ('A' for Active; 'I' for Inactive)
REMARK    1  A    between atoms: C_1  and  O_2
REMARK    2  A    between atoms: C_1  and  C_5
REMARK    3  A    between atoms: C_1  and  C_9
REMARK    4  A    between atoms: C_5  and  C_6
REMARK    5  A    between atoms: C_6  and  O_7
REMARK    6  A    between atoms: C_9  and  O_10
REMARK    7  A    between atoms: C_9  and  C_12
REMARK    8  A    between atoms: C_12  and  O_13
REMARK                            x       y       z     vdW  Elec       q    Type
REMARK                         _______ _______ _______ _____ _____    ______ ____
ROOT
ATOM      1  C   UNL     1      40.901 -14.985 -15.980  0.00  0.00    +0.200 C 
ENDROOT
BRANCH   1   2
ATOM      2  O   UNL     1      40.202 -15.864 -15.110  0.00  0.00    -0.375 OA
ATOM      3  H   UNL     1      40.110 -16.732 -15.533  0.00  0.00    +0.211 HD
ENDBRANCH   1   2
BRANCH   1   5
ATOM      4  O   UNL     1      42.733 -16.545 -16.151  0.00  0.00    -0.291 OA
ATOM      5  C   UNL     1      41.965 -15.780 -16.733  0.00  0.00    +0.209 C 
BRANCH   5   6
ATOM      6  C   UNL     1      42.011 -15.601 -18.239  0.00  0.00    +0.205 C 
BRANCH   6   7
ATOM      7  O   UNL     1      41.248 -14.477 -18.627  0.00  0.00    -0.375 OA
ATOM      8  H   UNL     1      41.234 -13.830 -17.905  0.00  0.00    +0.211 HD
ENDBRANCH   6   7
ENDBRANCH   5   6
ENDBRANCH   1   5
BRANCH   1   9
ATOM      9  C   UNL     1      41.494 -13.827 -15.171  0.00  0.00    +0.174 C 
BRANCH   9  10
ATOM     10  O   UNL     1      41.889 -12.771 -16.051  0.00  0.00    -0.379 OA
ATOM     11  H   UNL     1      42.778 -12.953 -16.395  0.00  0.00    +0.211 HD
ENDBRANCH   9  10
BRANCH   9  12
ATOM     12  C   UNL     1      40.481 -13.244 -14.188  0.00  0.00    +0.169 C 
BRANCH  12  13
ATOM     13  O   UNL     1      40.926 -13.502 -12.859  0.00  0.00    -0.379 OA
ATOM     14  H   UNL     1      40.174 -13.780 -12.314  0.00  0.00    +0.211 HD
ENDBRANCH  12  13
ENDBRANCH   9  12
ENDBRANCH   1   9
TORSDOF 8
ENDMDL
MODEL 6
REMARK VINA RESULT:      -5.2      1.897      2.793
REMARK  Name = 644111
REMARK  8 active torsions:
REMARK  status: ('A' for Active; 'I' for Inactive)
REMARK    1  A    between atoms: C_1  and  O_2
REMARK    2  A    between atoms: C_1  and  C_5
REMARK    3  A    between atoms: C_1  and  C_9
REMARK    4  A    between atoms: C_5  and  C_6
REMARK    5  A    between atoms: C_6  and  O_7
REMARK    6  A    between atoms: C_9  and  O_10
REMARK    7  A    between atoms: C_9  and  C_12
REMARK    8  A    between atoms: C_12  and  O_13
REMARK                            x       y       z     vdW  Elec       q    Type
REMARK                         _______ _______ _______ _____ _____    ______ ____
ROOT
ATOM      1  C   UNL     1      37.253 -24.691 -14.620  0.00  0.00    +0.200 C 
ENDROOT
BRANCH   1   2
ATOM      2  O   UNL     1      38.037 -24.115 -15.655  0.00  0.00    -0.375 OA
ATOM      3  H   UNL     1      38.107 -23.157 -15.513  0.00  0.00    +0.211 HD
ENDBRANCH   1   2
BRANCH   1   5
ATOM      4  O   UNL     1      38.703 -26.619 -14.636  0.00  0.00    -0.291 OA
ATOM      5  C   UNL     1      38.049 -25.819 -13.967  0.00  0.00    +0.209 C 
BRANCH   5   6
ATOM      6  C   UNL     1      38.018 -25.887 -12.453  0.00  0.00    +0.205 C 
BRANCH   6   7
ATOM      7  O   UNL     1      36.815 -26.480 -12.008  0.00  0.00    -0.375 OA
ATOM      8  H   UNL     1      37.018 -27.250 -11.454  0.00  0.00    +0.211 HD
ENDBRANCH   6   7
ENDBRANCH   5   6
ENDBRANCH   1   5
BRANCH   1   9
ATOM      9  C   UNL     1      35.917 -25.171 -15.196  0.00  0.00    +0.174 C 
BRANCH   9  10
ATOM     10  O   UNL     1      35.767 -26.576 -14.973  0.00  0.00    -0.379 OA
ATOM     11  H   UNL     1      36.478 -27.053 -15.429  0.00  0.00    +0.211 HD
ENDBRANCH   9  10
BRANCH   9  12
ATOM     12  C   UNL     1      34.731 -24.476 -14.531  0.00  0.00    +0.169 C 
BRANCH  12  13
ATOM     13  O   UNL     1      34.652 -24.896 -13.171  0.00  0.00    -0.379 OA
ATOM     14  H   UNL     1      35.433 -25.427 -12.951  0.00  0.00    +0.211 HD
ENDBRANCH  12  13
ENDBRANCH   9  12
ENDBRANCH   1   9
TORSDOF 8
ENDMDL
MODEL 7
REMARK VINA RESULT:      -5.1     10.699     12.168
REMARK  Name = 644111
REMARK  8 active torsions:
REMARK  status: ('A' for Active; 'I' for Inactive)
REMARK    1  A    between atoms: C_1  and  O_2
REMARK    2  A    between atoms: C_1  and  C_5
REMARK    3  A    between atoms: C_1  and  C_9
REMARK    4  A    between atoms: C_5  and  C_6
REMARK    5  A    between atoms: C_6  and  O_7
REMARK    6  A    between atoms: C_9  and  O_10
REMARK    7  A    between atoms: C_9  and  C_12
REMARK    8  A    between atoms: C_12  and  O_13
REMARK                            x       y       z     vdW  Elec       q    Type
REMARK                         _______ _______ _______ _____ _____    ______ ____
ROOT
ATOM      1  C   UNL     1      41.583 -15.228 -17.463  0.00  0.00    +0.200 C 
ENDROOT
BRANCH   1   2
ATOM      2  O   UNL     1      41.233 -13.999 -18.083  0.00  0.00    -0.375 OA
ATOM      3  H   UNL     1      42.025 -13.447 -18.179  0.00  0.00    +0.211 HD
ENDBRANCH   1   2
BRANCH   1   5
ATOM      4  O   UNL     1      40.597 -16.234 -15.504  0.00  0.00    -0.291 OA
ATOM      5  C   UNL     1      41.065 -15.222 -16.027  0.00  0.00    +0.209 C 
BRANCH   5   6
ATOM      6  C   UNL     1      41.181 -13.916 -15.265  0.00  0.00    +0.205 C 
BRANCH   6   7
ATOM      7  O   UNL     1      40.368 -13.942 -14.110  0.00  0.00    -0.375 OA
ATOM      8  H   UNL     1      40.190 -13.035 -13.817  0.00  0.00    +0.211 HD
ENDBRANCH   6   7
ENDBRANCH   5   6
ENDBRANCH   1   5
BRANCH   1   9
ATOM      9  C   UNL     1      43.101 -15.428 -17.540  0.00  0.00    +0.174 C 
BRANCH   9  10
ATOM     10  O   UNL     1      43.547 -16.199 -16.421  0.00  0.00    -0.379 OA
ATOM     11  H   UNL     1      44.083 -15.640 -15.837  0.00  0.00    +0.211 HD
ENDBRANCH   9  10
BRANCH   9  12
ATOM     12  C   UNL     1      43.511 -16.181 -18.803  0.00  0.00    +0.169 C 
BRANCH  12  13
ATOM     13  O   UNL     1      42.349 -16.430 -19.590  0.00  0.00    -0.379 OA
ATOM     14  H   UNL     1      42.189 -17.385 -19.637  0.00  0.00    +0.211 HD
ENDBRANCH  12  13
ENDBRANCH   9  12
ENDBRANCH   1   9
TORSDOF 8
ENDMDL
MODEL 8
REMARK VINA RESULT:      -5.1      1.986      2.358
REMARK  Name = 644111
REMARK  8 active torsions:
REMARK  status: ('A' for Active; 'I' for Inactive)
REMARK    1  A    between atoms: C_1  and  O_2
REMARK    2  A    between atoms: C_1  and  C_5
REMARK    3  A    between atoms: C_1  and  C_9
REMARK    4  A    between atoms: C_5  and  C_6
REMARK    5  A    between atoms: C_6  and  O_7
REMARK    6  A    between atoms: C_9  and  O_10
REMARK    7  A    between atoms: C_9  and  C_12
REMARK    8  A    between atoms: C_12  and  O_13
REMARK                            x       y       z     vdW  Elec       q    Type
REMARK                         _______ _______ _______ _____ _____    ______ ____
ROOT
ATOM      1  C   UNL     1      37.182 -24.395 -14.155  0.00  0.00    +0.200 C 
ENDROOT
BRANCH   1   2
ATOM      2  O   UNL     1      36.565 -24.276 -15.429  0.00  0.00    -0.375 OA
ATOM      3  H   UNL     1      37.248 -24.209 -16.114  0.00  0.00    +0.211 HD
ENDBRANCH   1   2
BRANCH   1   5
ATOM      4  O   UNL     1      38.514 -26.104 -13.092  0.00  0.00    -0.291 OA
ATOM      5  C   UNL     1      37.760 -25.803 -14.016  0.00  0.00    +0.209 C 
BRANCH   5   6
ATOM      6  C   UNL     1      37.335 -26.819 -15.059  0.00  0.00    +0.205 C 
BRANCH   6   7
ATOM      7  O   UNL     1      35.938 -27.026 -15.009  0.00  0.00    -0.375 OA
ATOM      8  H   UNL     1      35.681 -27.669 -15.687  0.00  0.00    +0.211 HD
ENDBRANCH   6   7
ENDBRANCH   5   6
ENDBRANCH   1   5
BRANCH   1   9
ATOM      9  C   UNL     1      36.164 -24.067 -13.058  0.00  0.00    +0.174 C 
BRANCH   9  10
ATOM     10  O   UNL     1      35.660 -25.276 -12.484  0.00  0.00    -0.379 OA
ATOM     11  H   UNL     1      36.373 -25.933 -12.436  0.00  0.00    +0.211 HD
ENDBRANCH   9  10
BRANCH   9  12
ATOM     12  C   UNL     1      36.790 -23.254 -11.928  0.00  0.00    +0.169 C 
BRANCH  12  13
ATOM     13  O   UNL     1      37.312 -24.149 -10.949  0.00  0.00    -0.379 OA
ATOM     14  H   UNL     1      37.196 -23.765 -10.066  0.00  0.00    +0.211 HD
ENDBRANCH  12  13
ENDBRANCH   9  12
ENDBRANCH   1   9
TORSDOF 8
ENDMDL
MODEL 9
REMARK VINA RESULT:      -5.0      1.460      2.859
REMARK  Name = 644111
REMARK  8 active torsions:
REMARK  status: ('A' for Active; 'I' for Inactive)
REMARK    1  A    between atoms: C_1  and  O_2
REMARK    2  A    between atoms: C_1  and  C_5
REMARK    3  A    between atoms: C_1  and  C_9
REMARK    4  A    between atoms: C_5  and  C_6
REMARK    5  A    between atoms: C_6  and  O_7
REMARK    6  A    between atoms: C_9  and  O_10
REMARK    7  A    between atoms: C_9  and  C_12
REMARK    8  A    between atoms: C_12  and  O_13
REMARK                            x       y       z     vdW  Elec       q    Type
REMARK                         _______ _______ _______ _____ _____    ______ ____
ROOT
ATOM      1  C   UNL     1      37.178 -25.752 -13.004  0.00  0.00    +0.200 C 
ENDROOT
BRANCH   1   2
ATOM      2  O   UNL     1      36.863 -26.008 -11.643  0.00  0.00    -0.375 OA
ATOM      3  H   UNL     1      35.921 -25.832 -11.489  0.00  0.00    +0.211 HD
ENDBRANCH   1   2
BRANCH   1   5
ATOM      4  O   UNL     1      38.824 -24.113 -12.350  0.00  0.00    -0.291 OA
ATOM      5  C   UNL     1      38.541 -25.067 -13.075  0.00  0.00    +0.209 C 
BRANCH   5   6
ATOM      6  C   UNL     1      39.540 -25.638 -14.062  0.00  0.00    +0.205 C 
BRANCH   6   7
ATOM      7  O   UNL     1      39.008 -26.781 -14.701  0.00  0.00    -0.375 OA
ATOM      8  H   UNL     1      38.581 -26.518 -15.531  0.00  0.00    +0.211 HD
ENDBRANCH   6   7
ENDBRANCH   5   6
ENDBRANCH   1   5
BRANCH   1   9
ATOM      9  C   UNL     1      36.064 -24.914 -13.640  0.00  0.00    +0.174 C 
BRANCH   9  10
ATOM     10  O   UNL     1      36.464 -23.542 -13.704  0.00  0.00    -0.379 OA
ATOM     11  H   UNL     1      37.106 -23.426 -14.423  0.00  0.00    +0.211 HD
ENDBRANCH   9  10
BRANCH   9  12
ATOM     12  C   UNL     1      35.759 -25.365 -15.066  0.00  0.00    +0.169 C 
BRANCH  12  13
ATOM     13  O   UNL     1      36.008 -26.764 -15.172  0.00  0.00    -0.379 OA
ATOM     14  H   UNL     1      36.583 -27.046 -14.443  0.00  0.00    +0.211 HD
ENDBRANCH  12  13
ENDBRANCH   9  12
ENDBRANCH   1   9
TORSDOF 8
ENDMDL
