MODEL 1
REMARK VINA RESULT:      -9.6      0.000      0.000
REMARK  Name = 128600
REMARK  3 active torsions:
REMARK  status: ('A' for Active; 'I' for Inactive)
REMARK    1  A    between atoms: C_3  and  C_15
REMARK    2  A    between atoms: C_11  and  O_23
REMARK    3  A    between atoms: C_20  and  O_21
REMARK                            x       y       z     vdW  Elec       q    Type
REMARK                         _______ _______ _______ _____ _____    ______ ____
ROOT
ATOM      1  O   UNL     1      33.946 -14.582 -23.063  0.00  0.00    -0.454 OA
ATOM      2  O   UNL     1      33.290 -15.831 -26.880  0.00  0.00    -0.287 OA
ATOM      3  C   UNL     1      33.419 -13.729 -24.017  0.00  0.00    +0.144 A 
ATOM      4  C   UNL     1      33.175 -14.053 -25.302  0.00  0.00    +0.052 A 
ATOM      5  C   UNL     1      34.045 -16.349 -24.717  0.00  0.00    +0.076 A 
ATOM      6  C   UNL     1      34.247 -15.867 -23.427  0.00  0.00    +0.148 A 
ATOM      7  C   UNL     1      33.486 -15.446 -25.736  0.00  0.00    +0.198 A 
ATOM      8  C   UNL     1      34.369 -17.672 -25.033  0.00  0.00    +0.043 C 
ATOM      9  C   UNL     1      32.627 -13.147 -26.367  0.00  0.00    +0.038 C 
ATOM     10  C   UNL     1      34.775 -16.703 -22.443  0.00  0.00    +0.041 C 
ATOM     11  C   UNL     1      34.897 -18.506 -24.047  0.00  0.00    +0.134 C 
ATOM     12  C   UNL     1      35.099 -18.022 -22.754  0.00  0.00    +0.040 C 
ENDROOT
BRANCH   3  15
ATOM     13 BR   UNL     1      34.467  -8.522 -24.201  0.00  0.00    -0.046 Br
ATOM     14 BR   UNL     1      30.715 -10.804 -20.499  0.00  0.00    -0.046 Br
ATOM     15  C   UNL     1      33.146 -12.392 -23.470  0.00  0.00    +0.036 C 
ATOM     16  C   UNL     1      32.228 -12.238 -22.432  0.00  0.00    +0.013 C 
ATOM     17  C   UNL     1      33.807 -11.278 -23.987  0.00  0.00    +0.013 C 
ATOM     18  C   UNL     1      33.549 -10.010 -23.468  0.00  0.00    +0.069 C 
ATOM     19  C   UNL     1      31.970 -10.969 -21.911  0.00  0.00    +0.069 C 
ATOM     20  C   UNL     1      32.631  -9.856 -22.430  0.00  0.00    +0.146 C 
BRANCH  20  21
ATOM     21  O   UNL     1      32.378  -8.614 -21.920  0.00  0.00    -0.505 OA
ATOM     22  H   UNL     1      32.824  -7.866 -22.266  0.00  0.00    +0.292 HD
ENDBRANCH  20  21
ENDBRANCH   3  15
BRANCH  11  23
ATOM     23  O   UNL     1      35.216 -19.795 -24.347  0.00  0.00    -0.506 OA
ATOM     24  H   UNL     1      34.796 -20.227 -25.065  0.00  0.00    +0.292 HD
ENDBRANCH  11  23
TORSDOF 3
ENDMDL
MODEL 2
REMARK VINA RESULT:      -9.6      0.016      2.015
REMARK  Name = 128600
REMARK  3 active torsions:
REMARK  status: ('A' for Active; 'I' for Inactive)
REMARK    1  A    between atoms: C_3  and  C_15
REMARK    2  A    between atoms: C_11  and  O_23
REMARK    3  A    between atoms: C_20  and  O_21
REMARK                            x       y       z     vdW  Elec       q    Type
REMARK                         _______ _______ _______ _____ _____    ______ ____
ROOT
ATOM      1  O   UNL     1      33.956 -14.587 -23.069  0.00  0.00    -0.454 OA
ATOM      2  O   UNL     1      33.290 -15.843 -26.882  0.00  0.00    -0.287 OA
ATOM      3  C   UNL     1      33.428 -13.735 -24.023  0.00  0.00    +0.144 A 
ATOM      4  C   UNL     1      33.181 -14.061 -25.307  0.00  0.00    +0.052 A 
ATOM      5  C   UNL     1      34.050 -16.357 -24.719  0.00  0.00    +0.076 A 
ATOM      6  C   UNL     1      34.255 -15.873 -23.431  0.00  0.00    +0.148 A 
ATOM      7  C   UNL     1      33.490 -15.456 -25.738  0.00  0.00    +0.198 A 
ATOM      8  C   UNL     1      34.372 -17.680 -25.034  0.00  0.00    +0.043 C 
ATOM      9  C   UNL     1      32.631 -13.157 -26.372  0.00  0.00    +0.038 C 
ATOM     10  C   UNL     1      34.785 -16.707 -22.446  0.00  0.00    +0.041 C 
ATOM     11  C   UNL     1      34.902 -18.514 -24.048  0.00  0.00    +0.134 C 
ATOM     12  C   UNL     1      35.107 -18.028 -22.755  0.00  0.00    +0.040 C 
ENDROOT
BRANCH   3  15
ATOM     13 BR   UNL     1      30.713 -10.795 -20.525  0.00  0.00    -0.046 Br
ATOM     14 BR   UNL     1      34.496  -8.532 -24.208  0.00  0.00    -0.046 Br
ATOM     15  C   UNL     1      33.158 -12.397 -23.478  0.00  0.00    +0.036 C 
ATOM     16  C   UNL     1      33.825 -11.286 -23.994  0.00  0.00    +0.013 C 
ATOM     17  C   UNL     1      32.233 -12.237 -22.445  0.00  0.00    +0.013 C 
ATOM     18  C   UNL     1      31.976 -10.968 -21.929  0.00  0.00    +0.069 C 
ATOM     19  C   UNL     1      33.568 -10.016 -23.477  0.00  0.00    +0.069 C 
ATOM     20  C   UNL     1      32.643  -9.857 -22.445  0.00  0.00    +0.146 C 
BRANCH  20  21
ATOM     21  O   UNL     1      32.392  -8.614 -21.940  0.00  0.00    -0.505 OA
ATOM     22  H   UNL     1      31.513  -8.359 -21.738  0.00  0.00    +0.292 HD
ENDBRANCH  20  21
ENDBRANCH   3  15
BRANCH  11  23
ATOM     23  O   UNL     1      35.218 -19.803 -24.346  0.00  0.00    -0.506 OA
ATOM     24  H   UNL     1      34.539 -20.438 -24.463  0.00  0.00    +0.292 HD
ENDBRANCH  11  23
TORSDOF 3
ENDMDL
MODEL 3
REMARK VINA RESULT:      -9.6      9.733     13.426
REMARK  Name = 128600
REMARK  3 active torsions:
REMARK  status: ('A' for Active; 'I' for Inactive)
REMARK    1  A    between atoms: C_3  and  C_15
REMARK    2  A    between atoms: C_11  and  O_23
REMARK    3  A    between atoms: C_20  and  O_21
REMARK                            x       y       z     vdW  Elec       q    Type
REMARK                         _______ _______ _______ _____ _____    ______ ____
ROOT
ATOM      1  O   UNL     1      36.287 -22.476 -17.177  0.00  0.00    -0.454 OA
ATOM      2  O   UNL     1      32.290 -22.726 -17.898  0.00  0.00    -0.287 OA
ATOM      3  C   UNL     1      35.446 -23.166 -16.323  0.00  0.00    +0.144 A 
ATOM      4  C   UNL     1      34.113 -23.295 -16.478  0.00  0.00    +0.052 A 
ATOM      5  C   UNL     1      34.391 -21.922 -18.577  0.00  0.00    +0.076 A 
ATOM      6  C   UNL     1      35.749 -21.871 -18.281  0.00  0.00    +0.148 A 
ATOM      7  C   UNL     1      33.490 -22.653 -17.672  0.00  0.00    +0.198 A 
ATOM      8  C   UNL     1      33.895 -21.288 -19.720  0.00  0.00    +0.043 C 
ATOM      9  C   UNL     1      33.168 -24.016 -15.560  0.00  0.00    +0.038 C 
ATOM     10  C   UNL     1      36.624 -21.186 -19.124  0.00  0.00    +0.041 C 
ATOM     11  C   UNL     1      34.771 -20.601 -20.562  0.00  0.00    +0.134 C 
ATOM     12  C   UNL     1      36.134 -20.551 -20.264  0.00  0.00    +0.040 C 
ENDROOT
BRANCH   3  15
ATOM     13 BR   UNL     1      35.467 -24.352 -11.142  0.00  0.00    -0.046 Br
ATOM     14 BR   UNL     1      39.861 -25.591 -14.628  0.00  0.00    -0.046 Br
ATOM     15  C   UNL     1      36.174 -23.760 -15.193  0.00  0.00    +0.036 C 
ATOM     16  C   UNL     1      37.444 -24.303 -15.389  0.00  0.00    +0.013 C 
ATOM     17  C   UNL     1      35.597 -23.780 -13.922  0.00  0.00    +0.013 C 
ATOM     18  C   UNL     1      36.288 -24.343 -12.851  0.00  0.00    +0.069 C 
ATOM     19  C   UNL     1      38.136 -24.865 -14.317  0.00  0.00    +0.069 C 
ATOM     20  C   UNL     1      37.558 -24.885 -13.047  0.00  0.00    +0.146 C 
BRANCH  20  21
ATOM     21  O   UNL     1      38.237 -25.436 -11.998  0.00  0.00    -0.505 OA
ATOM     22  H   UNL     1      37.980 -26.272 -11.662  0.00  0.00    +0.292 HD
ENDBRANCH  20  21
ENDBRANCH   3  15
BRANCH  11  23
ATOM     23  O   UNL     1      34.296 -19.980 -21.676  0.00  0.00    -0.506 OA
ATOM     24  H   UNL     1      34.812 -19.324 -22.102  0.00  0.00    +0.292 HD
ENDBRANCH  11  23
TORSDOF 3
ENDMDL
MODEL 4
REMARK VINA RESULT:      -9.5      9.805     13.367
REMARK  Name = 128600
REMARK  3 active torsions:
REMARK  status: ('A' for Active; 'I' for Inactive)
REMARK    1  A    between atoms: C_3  and  C_15
REMARK    2  A    between atoms: C_11  and  O_23
REMARK    3  A    between atoms: C_20  and  O_21
REMARK                            x       y       z     vdW  Elec       q    Type
REMARK                         _______ _______ _______ _____ _____    ______ ____
ROOT
ATOM      1  O   UNL     1      36.231 -22.529 -17.100  0.00  0.00    -0.454 OA
ATOM      2  O   UNL     1      32.228 -22.744 -17.798  0.00  0.00    -0.287 OA
ATOM      3  C   UNL     1      35.387 -23.202 -16.234  0.00  0.00    +0.144 A 
ATOM      4  C   UNL     1      34.053 -23.319 -16.382  0.00  0.00    +0.052 A 
ATOM      5  C   UNL     1      34.334 -21.969 -18.496  0.00  0.00    +0.076 A 
ATOM      6  C   UNL     1      35.694 -21.929 -18.207  0.00  0.00    +0.148 A 
ATOM      7  C   UNL     1      33.431 -22.682 -17.579  0.00  0.00    +0.198 A 
ATOM      8  C   UNL     1      33.839 -21.341 -19.642  0.00  0.00    +0.043 C 
ATOM      9  C   UNL     1      33.105 -24.020 -15.452  0.00  0.00    +0.038 C 
ATOM     10  C   UNL     1      36.571 -21.261 -19.061  0.00  0.00    +0.041 C 
ATOM     11  C   UNL     1      34.717 -20.671 -20.495  0.00  0.00    +0.134 C 
ATOM     12  C   UNL     1      36.082 -20.633 -20.205  0.00  0.00    +0.040 C 
ENDROOT
BRANCH   3  15
ATOM     13 BR   UNL     1      39.780 -25.667 -14.539  0.00  0.00    -0.046 Br
ATOM     14 BR   UNL     1      35.422 -24.335 -11.042  0.00  0.00    -0.046 Br
ATOM     15  C   UNL     1      36.115 -23.792 -15.102  0.00  0.00    +0.036 C 
ATOM     16  C   UNL     1      35.544 -23.793 -13.830  0.00  0.00    +0.013 C 
ATOM     17  C   UNL     1      37.377 -24.355 -15.300  0.00  0.00    +0.013 C 
ATOM     18  C   UNL     1      38.067 -24.915 -14.227  0.00  0.00    +0.069 C 
ATOM     19  C   UNL     1      36.235 -24.355 -12.756  0.00  0.00    +0.069 C 
ATOM     20  C   UNL     1      37.496 -24.916 -12.954  0.00  0.00    +0.146 C 
BRANCH  20  21
ATOM     21  O   UNL     1      38.171 -25.465 -11.902  0.00  0.00    -0.505 OA
ATOM     22  H   UNL     1      39.050 -25.197 -11.718  0.00  0.00    +0.292 HD
ENDBRANCH  20  21
ENDBRANCH   3  15
BRANCH  11  23
ATOM     23  O   UNL     1      34.243 -20.056 -21.613  0.00  0.00    -0.506 OA
ATOM     24  H   UNL     1      34.300 -20.485 -22.444  0.00  0.00    +0.292 HD
ENDBRANCH  11  23
TORSDOF 3
ENDMDL
MODEL 5
REMARK VINA RESULT:      -9.2     12.419     14.813
REMARK  Name = 128600
REMARK  3 active torsions:
REMARK  status: ('A' for Active; 'I' for Inactive)
REMARK    1  A    between atoms: C_3  and  C_15
REMARK    2  A    between atoms: C_11  and  O_23
REMARK    3  A    between atoms: C_20  and  O_21
REMARK                            x       y       z     vdW  Elec       q    Type
REMARK                         _______ _______ _______ _____ _____    ______ ____
ROOT
ATOM      1  O   UNL     1      32.223 -24.493 -14.450  0.00  0.00    -0.454 OA
ATOM      2  O   UNL     1      32.283 -22.303 -17.879  0.00  0.00    -0.287 OA
ATOM      3  C   UNL     1      33.415 -24.064 -15.006  0.00  0.00    +0.144 A 
ATOM      4  C   UNL     1      33.531 -23.343 -16.139  0.00  0.00    +0.052 A 
ATOM      5  C   UNL     1      31.011 -23.422 -16.251  0.00  0.00    +0.076 A 
ATOM      6  C   UNL     1      31.051 -24.167 -15.077  0.00  0.00    +0.148 A 
ATOM      7  C   UNL     1      32.274 -22.964 -16.849  0.00  0.00    +0.198 A 
ATOM      8  C   UNL     1      29.784 -23.116 -16.849  0.00  0.00    +0.043 C 
ATOM      9  C   UNL     1      34.807 -22.881 -16.782  0.00  0.00    +0.038 C 
ATOM     10  C   UNL     1      29.867 -24.613 -14.490  0.00  0.00    +0.041 C 
ATOM     11  C   UNL     1      28.601 -23.563 -16.261  0.00  0.00    +0.134 C 
ATOM     12  C   UNL     1      28.642 -24.310 -15.082  0.00  0.00    +0.040 C 
ENDROOT
BRANCH   3  15
ATOM     13 BR   UNL     1      38.086 -26.599 -14.925  0.00  0.00    -0.046 Br
ATOM     14 BR   UNL     1      35.816 -24.124 -10.265  0.00  0.00    -0.046 Br
ATOM     15  C   UNL     1      34.578 -24.490 -14.214  0.00  0.00    +0.036 C 
ATOM     16  C   UNL     1      34.652 -24.172 -12.858  0.00  0.00    +0.013 C 
ATOM     17  C   UNL     1      35.607 -25.214 -14.818  0.00  0.00    +0.013 C 
ATOM     18  C   UNL     1      36.709 -25.618 -14.066  0.00  0.00    +0.069 C 
ATOM     19  C   UNL     1      35.755 -24.577 -12.106  0.00  0.00    +0.069 C 
ATOM     20  C   UNL     1      36.783 -25.300 -12.710  0.00  0.00    +0.146 C 
BRANCH  20  21
ATOM     21  O   UNL     1      37.862 -25.696 -11.973  0.00  0.00    -0.505 OA
ATOM     22  H   UNL     1      38.568 -26.156 -12.385  0.00  0.00    +0.292 HD
ENDBRANCH  20  21
ENDBRANCH   3  15
BRANCH  11  23
ATOM     23  O   UNL     1      27.403 -23.270 -16.837  0.00  0.00    -0.506 OA
ATOM     24  H   UNL     1      26.789 -22.721 -16.390  0.00  0.00    +0.292 HD
ENDBRANCH  11  23
TORSDOF 3
ENDMDL
MODEL 6
REMARK VINA RESULT:      -9.2     12.421     14.875
REMARK  Name = 128600
REMARK  3 active torsions:
REMARK  status: ('A' for Active; 'I' for Inactive)
REMARK    1  A    between atoms: C_3  and  C_15
REMARK    2  A    between atoms: C_11  and  O_23
REMARK    3  A    between atoms: C_20  and  O_21
REMARK                            x       y       z     vdW  Elec       q    Type
REMARK                         _______ _______ _______ _____ _____    ______ ____
ROOT
ATOM      1  O   UNL     1      32.236 -24.462 -14.441  0.00  0.00    -0.454 OA
ATOM      2  O   UNL     1      32.288 -22.370 -17.931  0.00  0.00    -0.287 OA
ATOM      3  C   UNL     1      33.427 -24.057 -15.017  0.00  0.00    +0.144 A 
ATOM      4  C   UNL     1      33.540 -23.368 -16.170  0.00  0.00    +0.052 A 
ATOM      5  C   UNL     1      31.019 -23.434 -16.264  0.00  0.00    +0.076 A 
ATOM      6  C   UNL     1      31.062 -24.145 -15.070  0.00  0.00    +0.148 A 
ATOM      7  C   UNL     1      32.281 -23.001 -16.883  0.00  0.00    +0.198 A 
ATOM      8  C   UNL     1      29.791 -23.136 -16.862  0.00  0.00    +0.043 C 
ATOM      9  C   UNL     1      34.815 -22.934 -16.835  0.00  0.00    +0.038 C 
ATOM     10  C   UNL     1      29.879 -24.566 -14.462  0.00  0.00    +0.041 C 
ATOM     11  C   UNL     1      28.608 -23.558 -16.254  0.00  0.00    +0.134 C 
ATOM     12  C   UNL     1      28.652 -24.271 -15.055  0.00  0.00    +0.040 C 
ENDROOT
BRANCH   3  15
ATOM     13 BR   UNL     1      35.839 -24.038 -10.281  0.00  0.00    -0.046 Br
ATOM     14 BR   UNL     1      38.108 -26.572 -14.910  0.00  0.00    -0.046 Br
ATOM     15  C   UNL     1      34.592 -24.468 -14.221  0.00  0.00    +0.036 C 
ATOM     16  C   UNL     1      35.623 -25.195 -14.816  0.00  0.00    +0.013 C 
ATOM     17  C   UNL     1      34.669 -24.129 -12.869  0.00  0.00    +0.013 C 
ATOM     18  C   UNL     1      35.775 -24.518 -12.115  0.00  0.00    +0.069 C 
ATOM     19  C   UNL     1      36.729 -25.584 -14.061  0.00  0.00    +0.069 C 
ATOM     20  C   UNL     1      36.805 -25.245 -12.710  0.00  0.00    +0.146 C 
BRANCH  20  21
ATOM     21  O   UNL     1      37.889 -25.626 -11.972  0.00  0.00    -0.505 OA
ATOM     22  H   UNL     1      38.573 -26.128 -12.369  0.00  0.00    +0.292 HD
ENDBRANCH  20  21
ENDBRANCH   3  15
BRANCH  11  23
ATOM     23  O   UNL     1      27.408 -23.273 -16.831  0.00  0.00    -0.506 OA
ATOM     24  H   UNL     1      26.620 -23.334 -16.328  0.00  0.00    +0.292 HD
ENDBRANCH  11  23
TORSDOF 3
ENDMDL
MODEL 7
REMARK VINA RESULT:      -8.8      8.258     11.700
REMARK  Name = 128600
REMARK  3 active torsions:
REMARK  status: ('A' for Active; 'I' for Inactive)
REMARK    1  A    between atoms: C_3  and  C_15
REMARK    2  A    between atoms: C_11  and  O_23
REMARK    3  A    between atoms: C_20  and  O_21
REMARK                            x       y       z     vdW  Elec       q    Type
REMARK                         _______ _______ _______ _____ _____    ______ ____
ROOT
ATOM      1  O   UNL     1      32.498 -21.542 -18.794  0.00  0.00    -0.454 OA
ATOM      2  O   UNL     1      36.494 -22.176 -18.365  0.00  0.00    -0.287 OA
ATOM      3  C   UNL     1      32.992 -22.344 -17.781  0.00  0.00    +0.144 A 
ATOM      4  C   UNL     1      34.295 -22.615 -17.568  0.00  0.00    +0.052 A 
ATOM      5  C   UNL     1      34.759 -21.140 -19.563  0.00  0.00    +0.076 A 
ATOM      6  C   UNL     1      33.383 -20.958 -19.660  0.00  0.00    +0.148 A 
ATOM      7  C   UNL     1      35.291 -21.993 -18.489  0.00  0.00    +0.198 A 
ATOM      8  C   UNL     1      35.618 -20.518 -20.473  0.00  0.00    +0.043 C 
ATOM      9  C   UNL     1      34.863 -23.499 -16.495  0.00  0.00    +0.038 C 
ATOM     10  C   UNL     1      32.854 -20.153 -20.669  0.00  0.00    +0.041 C 
ATOM     11  C   UNL     1      35.087 -19.714 -21.482  0.00  0.00    +0.134 C 
ATOM     12  C   UNL     1      33.707 -19.531 -21.579  0.00  0.00    +0.040 C 
ENDROOT
BRANCH   3  15
ATOM     13 BR   UNL     1      27.765 -22.841 -16.957  0.00  0.00    -0.046 Br
ATOM     14 BR   UNL     1      31.692 -25.165 -13.469  0.00  0.00    -0.046 Br
ATOM     15  C   UNL     1      31.919 -22.890 -16.938  0.00  0.00    +0.036 C 
ATOM     16  C   UNL     1      32.236 -23.638 -15.804  0.00  0.00    +0.013 C 
ATOM     17  C   UNL     1      30.584 -22.659 -17.270  0.00  0.00    +0.013 C 
ATOM     18  C   UNL     1      29.567 -23.176 -16.469  0.00  0.00    +0.069 C 
ATOM     19  C   UNL     1      31.218 -24.155 -15.002  0.00  0.00    +0.069 C 
ATOM     20  C   UNL     1      29.883 -23.924 -15.335  0.00  0.00    +0.146 C 
BRANCH  20  21
ATOM     21  O   UNL     1      28.887 -24.430 -14.550  0.00  0.00    -0.505 OA
ATOM     22  H   UNL     1      28.158 -24.868 -14.943  0.00  0.00    +0.292 HD
ENDBRANCH  20  21
ENDBRANCH   3  15
BRANCH  11  23
ATOM     23  O   UNL     1      35.917 -19.105 -22.374  0.00  0.00    -0.506 OA
ATOM     24  H   UNL     1      35.587 -18.435 -22.939  0.00  0.00    +0.292 HD
ENDBRANCH  11  23
TORSDOF 3
ENDMDL
MODEL 8
REMARK VINA RESULT:      -8.8      8.258     11.719
REMARK  Name = 128600
REMARK  3 active torsions:
REMARK  status: ('A' for Active; 'I' for Inactive)
REMARK    1  A    between atoms: C_3  and  C_15
REMARK    2  A    between atoms: C_11  and  O_23
REMARK    3  A    between atoms: C_20  and  O_21
REMARK                            x       y       z     vdW  Elec       q    Type
REMARK                         _______ _______ _______ _____ _____    ______ ____
ROOT
ATOM      1  O   UNL     1      32.498 -21.541 -18.793  0.00  0.00    -0.454 OA
ATOM      2  O   UNL     1      36.494 -22.177 -18.365  0.00  0.00    -0.287 OA
ATOM      3  C   UNL     1      32.992 -22.344 -17.780  0.00  0.00    +0.144 A 
ATOM      4  C   UNL     1      34.295 -22.615 -17.567  0.00  0.00    +0.052 A 
ATOM      5  C   UNL     1      34.758 -21.141 -19.563  0.00  0.00    +0.076 A 
ATOM      6  C   UNL     1      33.383 -20.959 -19.660  0.00  0.00    +0.148 A 
ATOM      7  C   UNL     1      35.291 -21.994 -18.489  0.00  0.00    +0.198 A 
ATOM      8  C   UNL     1      35.617 -20.519 -20.474  0.00  0.00    +0.043 C 
ATOM      9  C   UNL     1      34.864 -23.498 -16.494  0.00  0.00    +0.038 C 
ATOM     10  C   UNL     1      32.853 -20.154 -20.669  0.00  0.00    +0.041 C 
ATOM     11  C   UNL     1      35.086 -19.715 -21.483  0.00  0.00    +0.134 C 
ATOM     12  C   UNL     1      33.706 -19.532 -21.580  0.00  0.00    +0.040 C 
ENDROOT
BRANCH   3  15
ATOM     13 BR   UNL     1      31.691 -25.166 -13.468  0.00  0.00    -0.046 Br
ATOM     14 BR   UNL     1      27.765 -22.844 -16.960  0.00  0.00    -0.046 Br
ATOM     15  C   UNL     1      31.920 -22.889 -16.936  0.00  0.00    +0.036 C 
ATOM     16  C   UNL     1      30.585 -22.660 -17.270  0.00  0.00    +0.013 C 
ATOM     17  C   UNL     1      32.236 -23.638 -15.802  0.00  0.00    +0.013 C 
ATOM     18  C   UNL     1      31.218 -24.155 -15.002  0.00  0.00    +0.069 C 
ATOM     19  C   UNL     1      29.567 -23.179 -16.470  0.00  0.00    +0.069 C 
ATOM     20  C   UNL     1      29.883 -23.926 -15.336  0.00  0.00    +0.146 C 
BRANCH  20  21
ATOM     21  O   UNL     1      28.886 -24.433 -14.553  0.00  0.00    -0.505 OA
ATOM     22  H   UNL     1      28.629 -23.983 -13.772  0.00  0.00    +0.292 HD
ENDBRANCH  20  21
ENDBRANCH   3  15
BRANCH  11  23
ATOM     23  O   UNL     1      35.916 -19.107 -22.375  0.00  0.00    -0.506 OA
ATOM     24  H   UNL     1      35.674 -18.286 -22.755  0.00  0.00    +0.292 HD
ENDBRANCH  11  23
TORSDOF 3
ENDMDL
MODEL 9
REMARK VINA RESULT:      -8.6      2.819      7.863
REMARK  Name = 128600
REMARK  3 active torsions:
REMARK  status: ('A' for Active; 'I' for Inactive)
REMARK    1  A    between atoms: C_3  and  C_15
REMARK    2  A    between atoms: C_11  and  O_23
REMARK    3  A    between atoms: C_20  and  O_21
REMARK                            x       y       z     vdW  Elec       q    Type
REMARK                         _______ _______ _______ _____ _____    ______ ____
ROOT
ATOM      1  O   UNL     1      33.072 -10.480 -23.251  0.00  0.00    -0.454 OA
ATOM      2  O   UNL     1      31.195  -9.796 -19.706  0.00  0.00    -0.287 OA
ATOM      3  C   UNL     1      32.702 -11.524 -22.422  0.00  0.00    +0.144 A 
ATOM      4  C   UNL     1      32.085 -11.392 -21.231  0.00  0.00    +0.052 A 
ATOM      5  C   UNL     1      32.157  -8.905 -21.656  0.00  0.00    +0.076 A 
ATOM      6  C   UNL     1      32.796  -9.199 -22.856  0.00  0.00    +0.148 A 
ATOM      7  C   UNL     1      31.762 -10.010 -20.769  0.00  0.00    +0.198 A 
ATOM      8  C   UNL     1      31.897  -7.577 -21.303  0.00  0.00    +0.043 C 
ATOM      9  C   UNL     1      31.690 -12.500 -20.297  0.00  0.00    +0.038 C 
ATOM     10  C   UNL     1      33.180  -8.169 -23.715  0.00  0.00    +0.041 C 
ATOM     11  C   UNL     1      32.283  -6.548 -22.162  0.00  0.00    +0.134 C 
ATOM     12  C   UNL     1      32.923  -6.844 -23.367  0.00  0.00    +0.040 C 
ENDROOT
BRANCH   3  15
ATOM     13 BR   UNL     1      34.678 -16.381 -21.554  0.00  0.00    -0.046 Br
ATOM     14 BR   UNL     1      32.930 -14.621 -26.735  0.00  0.00    -0.046 Br
ATOM     15  C   UNL     1      33.063 -12.832 -22.988  0.00  0.00    +0.036 C 
ATOM     16  C   UNL     1      32.868 -13.082 -24.346  0.00  0.00    +0.013 C 
ATOM     17  C   UNL     1      33.604 -13.822 -22.167  0.00  0.00    +0.013 C 
ATOM     18  C   UNL     1      33.948 -15.062 -22.704  0.00  0.00    +0.069 C 
ATOM     19  C   UNL     1      33.212 -14.323 -24.883  0.00  0.00    +0.069 C 
ATOM     20  C   UNL     1      33.752 -15.313 -24.062  0.00  0.00    +0.146 C 
BRANCH  20  21
ATOM     21  O   UNL     1      34.089 -16.526 -24.589  0.00  0.00    -0.505 OA
ATOM     22  H   UNL     1      33.527 -17.265 -24.459  0.00  0.00    +0.292 HD
ENDBRANCH  20  21
ENDBRANCH   3  15
BRANCH  11  23
ATOM     23  O   UNL     1      32.034  -5.253 -21.826  0.00  0.00    -0.506 OA
ATOM     24  H   UNL     1      31.164  -4.912 -21.885  0.00  0.00    +0.292 HD
ENDBRANCH  11  23
TORSDOF 3
ENDMDL
