MODEL 1
REMARK VINA RESULT:     -10.5      0.000      0.000
REMARK  Name = 5735
REMARK  2 active torsions:
REMARK  status: ('A' for Active; 'I' for Inactive)
REMARK    1  A    between atoms: C_7  and  O_18
REMARK    2  A    between atoms: O_18  and  C_26
REMARK                            x       y       z     vdW  Elec       q    Type
REMARK                         _______ _______ _______ _____ _____    ______ ____
ROOT
ATOM      1 CL   UNL     1      28.513 -22.958 -15.745  0.00  0.00    -0.081 Cl
ATOM      2  O   UNL     1      34.065 -24.650 -12.345  0.00  0.00    -0.268 OA
ATOM      3  N   UNL     1      34.161 -23.938 -14.613  0.00  0.00    -0.200 N 
ATOM      4  N   UNL     1      37.706 -24.287 -15.271  0.00  0.00    -0.239 NA
ATOM      5  N   UNL     1      36.935 -25.026 -12.623  0.00  0.00    -0.236 NA
ATOM      6  N   UNL     1      31.906 -23.934 -13.900  0.00  0.00    -0.228 NA
ATOM      7  C   UNL     1      35.247 -23.732 -15.584  0.00  0.00    +0.299 C 
ATOM      8  C   UNL     1      36.446 -24.210 -14.830  0.00  0.00    +0.141 C 
ATOM      9  C   UNL     1      36.095 -24.568 -13.554  0.00  0.00    +0.154 C 
ATOM     10  C   UNL     1      34.658 -24.400 -13.379  0.00  0.00    +0.276 C 
ATOM     11  C   UNL     1      32.816 -23.707 -14.880  0.00  0.00    +0.141 C 
ATOM     12  C   UNL     1      32.476 -23.251 -16.148  0.00  0.00    +0.036 C 
ATOM     13  C   UNL     1      38.587 -24.746 -14.350  0.00  0.00    +0.119 C 
ATOM     14  C   UNL     1      38.212 -25.106 -13.059  0.00  0.00    +0.120 C 
ATOM     15  C   UNL     1      31.134 -23.014 -16.425  0.00  0.00    +0.016 C 
ATOM     16  C   UNL     1      30.612 -23.694 -14.206  0.00  0.00    +0.112 C 
ATOM     17  C   UNL     1      30.178 -23.239 -15.440  0.00  0.00    +0.077 C 
ENDROOT
BRANCH   7  18
ATOM     18  O   UNL     1      35.392 -22.340 -15.888  0.00  0.00    -0.412 OA
BRANCH  18  26
ATOM     19  O   UNL     1      37.542 -21.858 -16.499  0.00  0.00    -0.226 OA
ATOM     20  N   UNL     1      35.857 -21.897 -18.100  0.00  0.00    -0.250 N 
ATOM     21  N   UNL     1      34.856 -20.912 -20.591  0.00  0.00    +0.388 N 
ATOM     22  C   UNL     1      34.449 -22.088 -18.455  0.00  0.00    +0.074 C 
ATOM     23  C   UNL     1      36.760 -21.699 -19.231  0.00  0.00    +0.074 C 
ATOM     24  C   UNL     1      33.973 -21.001 -19.418  0.00  0.00    -0.055 C 
ATOM     25  C   UNL     1      36.236 -20.618 -20.174  0.00  0.00    -0.055 C 
ATOM     26  C   UNL     1      36.361 -22.018 -16.802  0.00  0.00    +0.406 C 
ATOM     27  C   UNL     1      34.374 -19.894 -21.523  0.00  0.00    -0.101 C 
ATOM     28  H   UNL     1      34.850 -21.814 -21.068  0.00  0.00    -0.080 HD
ENDBRANCH  18  26
ENDBRANCH   7  18
TORSDOF 2
ENDMDL
MODEL 2
REMARK VINA RESULT:     -10.2      2.492      6.196
REMARK  Name = 5735
REMARK  2 active torsions:
REMARK  status: ('A' for Active; 'I' for Inactive)
REMARK    1  A    between atoms: C_7  and  O_18
REMARK    2  A    between atoms: O_18  and  C_26
REMARK                            x       y       z     vdW  Elec       q    Type
REMARK                         _______ _______ _______ _____ _____    ______ ____
ROOT
ATOM      1 CL   UNL     1      34.940 -19.785 -22.012  0.00  0.00    -0.081 Cl
ATOM      2  O   UNL     1      30.620 -22.080 -17.395  0.00  0.00    -0.268 OA
ATOM      3  N   UNL     1      32.932 -22.639 -17.325  0.00  0.00    -0.200 N 
ATOM      4  N   UNL     1      32.994 -24.862 -14.467  0.00  0.00    -0.239 NA
ATOM      5  N   UNL     1      30.404 -23.833 -15.086  0.00  0.00    -0.236 NA
ATOM      6  N   UNL     1      32.532 -21.252 -19.198  0.00  0.00    -0.228 NA
ATOM      7  C   UNL     1      33.772 -23.440 -16.422  0.00  0.00    +0.299 C 
ATOM      8  C   UNL     1      32.768 -24.012 -15.474  0.00  0.00    +0.141 C 
ATOM      9  C   UNL     1      31.517 -23.526 -15.754  0.00  0.00    +0.154 C 
ATOM     10  C   UNL     1      31.585 -22.648 -16.915  0.00  0.00    +0.276 C 
ATOM     11  C   UNL     1      33.407 -21.959 -18.441  0.00  0.00    +0.141 C 
ATOM     12  C   UNL     1      34.766 -22.044 -18.722  0.00  0.00    +0.036 C 
ATOM     13  C   UNL     1      31.884 -25.194 -13.764  0.00  0.00    +0.119 C 
ATOM     14  C   UNL     1      30.622 -24.692 -14.065  0.00  0.00    +0.120 C 
ATOM     15  C   UNL     1      35.251 -21.366 -19.836  0.00  0.00    +0.016 C 
ATOM     16  C   UNL     1      33.040 -20.607 -20.272  0.00  0.00    +0.112 C 
ATOM     17  C   UNL     1      34.378 -20.633 -20.631  0.00  0.00    +0.077 C 
ENDROOT
BRANCH   7  18
ATOM     18  O   UNL     1      34.687 -22.600 -15.708  0.00  0.00    -0.412 OA
BRANCH  18  26
ATOM     19  O   UNL     1      36.663 -22.823 -16.836  0.00  0.00    -0.226 OA
ATOM     20  N   UNL     1      36.530 -23.412 -14.592  0.00  0.00    -0.250 N 
ATOM     21  N   UNL     1      37.485 -25.057 -12.457  0.00  0.00    +0.388 N 
ATOM     22  C   UNL     1      35.751 -23.545 -13.359  0.00  0.00    +0.074 C 
ATOM     23  C   UNL     1      37.958 -23.686 -14.454  0.00  0.00    +0.074 C 
ATOM     24  C   UNL     1      36.041 -24.877 -12.666  0.00  0.00    -0.055 C 
ATOM     25  C   UNL     1      38.200 -25.015 -13.741  0.00  0.00    -0.055 C 
ATOM     26  C   UNL     1      36.012 -22.935 -15.799  0.00  0.00    +0.406 C 
ATOM     27  C   UNL     1      37.751 -26.316 -11.762  0.00  0.00    -0.101 C 
ATOM     28  H   UNL     1      37.825 -24.291 -11.874  0.00  0.00    -0.080 HD
ENDBRANCH  18  26
ENDBRANCH   7  18
TORSDOF 2
ENDMDL
MODEL 3
REMARK VINA RESULT:     -10.1      2.484      6.310
REMARK  Name = 5735
REMARK  2 active torsions:
REMARK  status: ('A' for Active; 'I' for Inactive)
REMARK    1  A    between atoms: C_7  and  O_18
REMARK    2  A    between atoms: O_18  and  C_26
REMARK                            x       y       z     vdW  Elec       q    Type
REMARK                         _______ _______ _______ _____ _____    ______ ____
ROOT
ATOM      1 CL   UNL     1      35.676 -20.507 -21.077  0.00  0.00    -0.081 Cl
ATOM      2  O   UNL     1      30.454 -22.332 -17.250  0.00  0.00    -0.268 OA
ATOM      3  N   UNL     1      32.668 -23.055 -16.764  0.00  0.00    -0.200 N 
ATOM      4  N   UNL     1      32.059 -25.183 -13.898  0.00  0.00    -0.239 NA
ATOM      5  N   UNL     1      29.704 -23.989 -14.982  0.00  0.00    -0.236 NA
ATOM      6  N   UNL     1      32.708 -21.703 -18.705  0.00  0.00    -0.228 NA
ATOM      7  C   UNL     1      33.273 -23.885 -15.712  0.00  0.00    +0.299 C 
ATOM      8  C   UNL     1      32.079 -24.352 -14.945  0.00  0.00    +0.141 C 
ATOM      9  C   UNL     1      30.937 -23.785 -15.450  0.00  0.00    +0.154 C 
ATOM     10  C   UNL     1      31.273 -22.952 -16.597  0.00  0.00    +0.276 C 
ATOM     11  C   UNL     1      33.381 -22.448 -17.792  0.00  0.00    +0.141 C 
ATOM     12  C   UNL     1      34.758 -22.640 -17.828  0.00  0.00    +0.036 C 
ATOM     13  C   UNL     1      30.822 -25.411 -13.395  0.00  0.00    +0.119 C 
ATOM     14  C   UNL     1      29.674 -24.828 -13.923  0.00  0.00    +0.120 C 
ATOM     15  C   UNL     1      35.480 -22.036 -18.851  0.00  0.00    +0.016 C 
ATOM     16  C   UNL     1      33.444 -21.133 -19.684  0.00  0.00    +0.112 C 
ATOM     17  C   UNL     1      34.818 -21.267 -19.801  0.00  0.00    +0.077 C 
ENDROOT
BRANCH   7  18
ATOM     18  O   UNL     1      34.112 -23.092 -14.864  0.00  0.00    -0.412 OA
BRANCH  18  26
ATOM     19  O   UNL     1      33.971 -23.535 -12.626  0.00  0.00    -0.226 OA
ATOM     20  N   UNL     1      35.676 -24.477 -13.895  0.00  0.00    -0.250 N 
ATOM     21  N   UNL     1      38.351 -25.484 -13.996  0.00  0.00    +0.388 N 
ATOM     22  C   UNL     1      36.349 -24.653 -15.184  0.00  0.00    +0.074 C 
ATOM     23  C   UNL     1      36.194 -25.303 -12.808  0.00  0.00    +0.074 C 
ATOM     24  C   UNL     1      37.866 -24.557 -15.030  0.00  0.00    -0.055 C 
ATOM     25  C   UNL     1      37.714 -25.190 -12.703  0.00  0.00    -0.055 C 
ATOM     26  C   UNL     1      34.539 -23.687 -13.707  0.00  0.00    +0.406 C 
ATOM     27  C   UNL     1      39.806 -25.411 -13.880  0.00  0.00    -0.101 C 
ATOM     28  H   UNL     1      38.097 -26.434 -14.270  0.00  0.00    -0.080 HD
ENDBRANCH  18  26
ENDBRANCH   7  18
TORSDOF 2
ENDMDL
MODEL 4
REMARK VINA RESULT:      -9.4      2.338      5.356
REMARK  Name = 5735
REMARK  2 active torsions:
REMARK  status: ('A' for Active; 'I' for Inactive)
REMARK    1  A    between atoms: C_7  and  O_18
REMARK    2  A    between atoms: O_18  and  C_26
REMARK                            x       y       z     vdW  Elec       q    Type
REMARK                         _______ _______ _______ _____ _____    ______ ____
ROOT
ATOM      1 CL   UNL     1      35.013 -20.866 -21.148  0.00  0.00    -0.081 Cl
ATOM      2  O   UNL     1      38.127 -22.960 -15.565  0.00  0.00    -0.268 OA
ATOM      3  N   UNL     1      35.753 -22.882 -15.713  0.00  0.00    -0.200 N 
ATOM      4  N   UNL     1      34.842 -23.937 -12.371  0.00  0.00    -0.239 NA
ATOM      5  N   UNL     1      37.658 -23.817 -12.827  0.00  0.00    -0.236 NA
ATOM      6  N   UNL     1      36.677 -22.121 -17.753  0.00  0.00    -0.228 NA
ATOM      7  C   UNL     1      34.652 -23.225 -14.801  0.00  0.00    +0.299 C 
ATOM      8  C   UNL     1      35.376 -23.588 -13.546  0.00  0.00    +0.141 C 
ATOM      9  C   UNL     1      36.732 -23.538 -13.747  0.00  0.00    +0.154 C 
ATOM     10  C   UNL     1      37.006 -23.103 -15.110  0.00  0.00    +0.276 C 
ATOM     11  C   UNL     1      35.580 -22.401 -17.007  0.00  0.00    +0.141 C 
ATOM     12  C   UNL     1      34.279 -22.233 -17.467  0.00  0.00    +0.036 C 
ATOM     13  C   UNL     1      35.755 -24.230 -11.414  0.00  0.00    +0.119 C 
ATOM     14  C   UNL     1      37.127 -24.172 -11.636  0.00  0.00    +0.120 C 
ATOM     15  C   UNL     1      34.095 -21.755 -18.760  0.00  0.00    +0.016 C 
ATOM     16  C   UNL     1      36.459 -21.657 -19.004  0.00  0.00    +0.112 C 
ATOM     17  C   UNL     1      35.201 -21.458 -19.549  0.00  0.00    +0.077 C 
ENDROOT
BRANCH   7  18
ATOM     18  O   UNL     1      33.930 -24.362 -15.289  0.00  0.00    -0.412 OA
BRANCH  18  26
ATOM     19  O   UNL     1      32.763 -25.627 -13.784  0.00  0.00    -0.226 OA
ATOM     20  N   UNL     1      31.708 -23.890 -14.912  0.00  0.00    -0.250 N 
ATOM     21  N   UNL     1      29.287 -22.817 -15.991  0.00  0.00    +0.388 N 
ATOM     22  C   UNL     1      31.756 -22.792 -15.879  0.00  0.00    +0.074 C 
ATOM     23  C   UNL     1      30.455 -24.009 -14.172  0.00  0.00    +0.074 C 
ATOM     24  C   UNL     1      30.525 -22.803 -16.785  0.00  0.00    -0.055 C 
ATOM     25  C   UNL     1      29.253 -23.997 -15.114  0.00  0.00    -0.055 C 
ATOM     26  C   UNL     1      32.799 -24.703 -14.595  0.00  0.00    +0.406 C 
ATOM     27  C   UNL     1      28.115 -22.792 -16.865  0.00  0.00    -0.101 C 
ATOM     28  H   UNL     1      29.270 -21.982 -15.406  0.00  0.00    -0.080 HD
ENDBRANCH  18  26
ENDBRANCH   7  18
TORSDOF 2
ENDMDL
MODEL 5
REMARK VINA RESULT:      -8.3     12.875     16.616
REMARK  Name = 5735
REMARK  2 active torsions:
REMARK  status: ('A' for Active; 'I' for Inactive)
REMARK    1  A    between atoms: C_7  and  O_18
REMARK    2  A    between atoms: O_18  and  C_26
REMARK                            x       y       z     vdW  Elec       q    Type
REMARK                         _______ _______ _______ _____ _____    ______ ____
ROOT
ATOM      1 CL   UNL     1      33.421 -15.357 -25.904  0.00  0.00    -0.081 Cl
ATOM      2  O   UNL     1      31.447 -11.494 -20.763  0.00  0.00    -0.268 OA
ATOM      3  N   UNL     1      32.692 -10.604 -22.586  0.00  0.00    -0.200 N 
ATOM      4  N   UNL     1      33.094  -7.171 -21.502  0.00  0.00    -0.239 NA
ATOM      5  N   UNL     1      31.642  -8.808 -19.669  0.00  0.00    -0.236 NA
ATOM      6  N   UNL     1      32.353 -12.917 -22.942  0.00  0.00    -0.228 NA
ATOM      7  C   UNL     1      33.193  -9.266 -22.935  0.00  0.00    +0.299 C 
ATOM      8  C   UNL     1      32.825  -8.461 -21.731  0.00  0.00    +0.141 C 
ATOM      9  C   UNL     1      32.124  -9.231 -20.839  0.00  0.00    +0.154 C 
ATOM     10  C   UNL     1      32.013 -10.590 -21.351  0.00  0.00    +0.276 C 
ATOM     11  C   UNL     1      32.864 -11.737 -23.373  0.00  0.00    +0.141 C 
ATOM     12  C   UNL     1      33.558 -11.595 -24.569  0.00  0.00    +0.036 C 
ATOM     13  C   UNL     1      32.617  -6.708 -20.322  0.00  0.00    +0.119 C 
ATOM     14  C   UNL     1      31.908  -7.505 -19.429  0.00  0.00    +0.120 C 
ATOM     15  C   UNL     1      33.735 -12.722 -25.365  0.00  0.00    +0.016 C 
ATOM     16  C   UNL     1      32.546 -13.990 -23.742  0.00  0.00    +0.112 C 
ATOM     17  C   UNL     1      33.222 -13.946 -24.949  0.00  0.00    +0.077 C 
ENDROOT
BRANCH   7  18
ATOM     18  O   UNL     1      32.507  -8.756 -24.085  0.00  0.00    -0.412 OA
BRANCH  18  26
ATOM     19  O   UNL     1      30.434  -8.115 -23.366  0.00  0.00    -0.226 OA
ATOM     20  N   UNL     1      31.920  -6.532 -24.195  0.00  0.00    -0.250 N 
ATOM     21  N   UNL     1      32.303  -4.033 -25.531  0.00  0.00    +0.388 N 
ATOM     22  C   UNL     1      33.226  -6.194 -24.764  0.00  0.00    +0.074 C 
ATOM     23  C   UNL     1      31.067  -5.389 -23.880  0.00  0.00    +0.074 C 
ATOM     24  C   UNL     1      33.082  -5.215 -25.930  0.00  0.00    -0.055 C 
ATOM     25  C   UNL     1      30.966  -4.431 -25.065  0.00  0.00    -0.055 C 
ATOM     26  C   UNL     1      31.530  -7.827 -23.843  0.00  0.00    +0.406 C 
ATOM     27  C   UNL     1      32.200  -3.087 -26.641  0.00  0.00    -0.101 C 
ATOM     28  H   UNL     1      32.788  -3.572 -24.760  0.00  0.00    -0.080 HD
ENDBRANCH  18  26
ENDBRANCH   7  18
TORSDOF 2
ENDMDL
MODEL 6
REMARK VINA RESULT:      -8.0     12.955     16.611
REMARK  Name = 5735
REMARK  2 active torsions:
REMARK  status: ('A' for Active; 'I' for Inactive)
REMARK    1  A    between atoms: C_7  and  O_18
REMARK    2  A    between atoms: O_18  and  C_26
REMARK                            x       y       z     vdW  Elec       q    Type
REMARK                         _______ _______ _______ _____ _____    ______ ____
ROOT
ATOM      1 CL   UNL     1      33.392 -15.128 -26.020  0.00  0.00    -0.081 Cl
ATOM      2  O   UNL     1      31.476 -11.509 -20.683  0.00  0.00    -0.268 OA
ATOM      3  N   UNL     1      32.676 -10.528 -22.489  0.00  0.00    -0.200 N 
ATOM      4  N   UNL     1      33.064  -7.141 -21.267  0.00  0.00    -0.239 NA
ATOM      5  N   UNL     1      31.663  -8.870 -19.479  0.00  0.00    -0.236 NA
ATOM      6  N   UNL     1      32.355 -12.828 -22.937  0.00  0.00    -0.228 NA
ATOM      7  C   UNL     1      33.157  -9.172 -22.790  0.00  0.00    +0.299 C 
ATOM      8  C   UNL     1      32.804  -8.422 -21.546  0.00  0.00    +0.141 C 
ATOM      9  C   UNL     1      32.128  -9.237 -20.675  0.00  0.00    +0.154 C 
ATOM     10  C   UNL     1      32.021 -10.575 -21.243  0.00  0.00    +0.276 C 
ATOM     11  C   UNL     1      32.846 -11.625 -23.327  0.00  0.00    +0.141 C 
ATOM     12  C   UNL     1      33.515 -11.425 -24.528  0.00  0.00    +0.036 C 
ATOM     13  C   UNL     1      32.604  -6.733 -20.061  0.00  0.00    +0.119 C 
ATOM     14  C   UNL     1      31.921  -7.575 -19.189  0.00  0.00    +0.120 C 
ATOM     15  C   UNL     1      33.688 -12.516 -25.374  0.00  0.00    +0.016 C 
ATOM     16  C   UNL     1      32.543 -13.864 -23.785  0.00  0.00    +0.112 C 
ATOM     17  C   UNL     1      33.196 -13.762 -25.002  0.00  0.00    +0.077 C 
ENDROOT
BRANCH   7  18
ATOM     18  O   UNL     1      32.445  -8.621 -23.904  0.00  0.00    -0.412 OA
BRANCH  18  26
ATOM     19  O   UNL     1      34.127  -7.514 -24.986  0.00  0.00    -0.226 OA
ATOM     20  N   UNL     1      32.153  -6.405 -24.462  0.00  0.00    -0.250 N 
ATOM     21  N   UNL     1      30.854  -3.940 -23.817  0.00  0.00    +0.388 N 
ATOM     22  C   UNL     1      30.814  -6.412 -23.869  0.00  0.00    +0.074 C 
ATOM     23  C   UNL     1      32.514  -5.176 -25.163  0.00  0.00    +0.074 C 
ATOM     24  C   UNL     1      30.576  -5.154 -23.034  0.00  0.00    -0.055 C 
ATOM     25  C   UNL     1      32.244  -3.946 -24.298  0.00  0.00    -0.055 C 
ATOM     26  C   UNL     1      33.002  -7.515 -24.491  0.00  0.00    +0.406 C 
ATOM     27  C   UNL     1      30.591  -2.742 -23.022  0.00  0.00    -0.101 C 
ATOM     28  H   UNL     1      30.234  -3.931 -24.628  0.00  0.00    -0.080 HD
ENDBRANCH  18  26
ENDBRANCH   7  18
TORSDOF 2
ENDMDL
MODEL 7
REMARK VINA RESULT:      -7.7      2.476      6.020
REMARK  Name = 5735
REMARK  2 active torsions:
REMARK  status: ('A' for Active; 'I' for Inactive)
REMARK    1  A    between atoms: C_7  and  O_18
REMARK    2  A    between atoms: O_18  and  C_26
REMARK                            x       y       z     vdW  Elec       q    Type
REMARK                         _______ _______ _______ _____ _____    ______ ____
ROOT
ATOM      1 CL   UNL     1      35.128 -19.779 -22.295  0.00  0.00    -0.081 Cl
ATOM      2  O   UNL     1      38.311 -22.401 -16.980  0.00  0.00    -0.268 OA
ATOM      3  N   UNL     1      35.937 -22.259 -17.067  0.00  0.00    -0.200 N 
ATOM      4  N   UNL     1      35.073 -23.571 -13.803  0.00  0.00    -0.239 NA
ATOM      5  N   UNL     1      37.880 -23.474 -14.313  0.00  0.00    -0.236 NA
ATOM      6  N   UNL     1      36.835 -21.350 -19.057  0.00  0.00    -0.228 NA
ATOM      7  C   UNL     1      34.847 -22.653 -16.161  0.00  0.00    +0.299 C 
ATOM      8  C   UNL     1      35.590 -23.136 -14.957  0.00  0.00    +0.141 C 
ATOM      9  C   UNL     1      36.942 -23.099 -15.185  0.00  0.00    +0.154 C 
ATOM     10  C   UNL     1      37.197 -22.557 -16.513  0.00  0.00    +0.276 C 
ATOM     11  C   UNL     1      35.748 -21.668 -18.311  0.00  0.00    +0.141 C 
ATOM     12  C   UNL     1      34.442 -21.433 -18.725  0.00  0.00    +0.036 C 
ATOM     13  C   UNL     1      35.998 -23.963 -12.895  0.00  0.00    +0.119 C 
ATOM     14  C   UNL     1      37.367 -23.916 -13.144  0.00  0.00    +0.120 C 
ATOM     15  C   UNL     1      34.241 -20.844 -19.969  0.00  0.00    +0.016 C 
ATOM     16  C   UNL     1      36.601 -20.778 -20.259  0.00  0.00    +0.112 C 
ATOM     17  C   UNL     1      35.337 -20.507 -20.756  0.00  0.00    +0.077 C 
ENDROOT
BRANCH   7  18
ATOM     18  O   UNL     1      34.089 -23.730 -16.724  0.00  0.00    -0.412 OA
BRANCH  18  26
ATOM     19  O   UNL     1      32.261 -22.829 -17.760  0.00  0.00    -0.226 OA
ATOM     20  N   UNL     1      31.992 -24.157 -15.872  0.00  0.00    -0.250 N 
ATOM     21  N   UNL     1      30.451 -24.780 -13.545  0.00  0.00    +0.388 N 
ATOM     22  C   UNL     1      32.571 -24.971 -14.802  0.00  0.00    +0.074 C 
ATOM     23  C   UNL     1      30.534 -24.161 -15.934  0.00  0.00    +0.074 C 
ATOM     24  C   UNL     1      31.915 -24.660 -13.457  0.00  0.00    -0.055 C 
ATOM     25  C   UNL     1      29.921 -23.864 -14.566  0.00  0.00    -0.055 C 
ATOM     26  C   UNL     1      32.743 -23.515 -16.860  0.00  0.00    +0.406 C 
ATOM     27  C   UNL     1      29.834 -24.514 -12.247  0.00  0.00    -0.101 C 
ATOM     28  H   UNL     1      30.222 -25.735 -13.821  0.00  0.00    -0.080 HD
ENDBRANCH  18  26
ENDBRANCH   7  18
TORSDOF 2
ENDMDL
MODEL 8
REMARK VINA RESULT:      -7.6     12.922     16.162
REMARK  Name = 5735
REMARK  2 active torsions:
REMARK  status: ('A' for Active; 'I' for Inactive)
REMARK    1  A    between atoms: C_7  and  O_18
REMARK    2  A    between atoms: O_18  and  C_26
REMARK                            x       y       z     vdW  Elec       q    Type
REMARK                         _______ _______ _______ _____ _____    ______ ____
ROOT
ATOM      1 CL   UNL     1      31.957  -3.087 -25.203  0.00  0.00    -0.081 Cl
ATOM      2  O   UNL     1      31.991  -6.955 -19.699  0.00  0.00    -0.268 OA
ATOM      3  N   UNL     1      31.921  -7.896 -21.883  0.00  0.00    -0.200 N 
ATOM      4  N   UNL     1      31.698 -11.421 -21.083  0.00  0.00    -0.239 NA
ATOM      5  N   UNL     1      31.807  -9.712 -18.798  0.00  0.00    -0.236 NA
ATOM      6  N   UNL     1      31.955  -5.538 -22.062  0.00  0.00    -0.228 NA
ATOM      7  C   UNL     1      31.893  -9.267 -22.415  0.00  0.00    +0.299 C 
ATOM      8  C   UNL     1      31.801 -10.091 -21.171  0.00  0.00    +0.141 C 
ATOM      9  C   UNL     1      31.854  -9.286 -20.062  0.00  0.00    +0.154 C 
ATOM     10  C   UNL     1      31.939  -7.892 -20.475  0.00  0.00    +0.276 C 
ATOM     11  C   UNL     1      31.929  -6.749 -22.671  0.00  0.00    +0.141 C 
ATOM     12  C   UNL     1      31.908  -6.911 -24.051  0.00  0.00    +0.036 C 
ATOM     13  C   UNL     1      31.650 -11.889 -19.813  0.00  0.00    +0.119 C 
ATOM     14  C   UNL     1      31.703 -11.056 -18.698  0.00  0.00    +0.120 C 
ATOM     15  C   UNL     1      31.917  -5.771 -24.848  0.00  0.00    +0.016 C 
ATOM     16  C   UNL     1      31.963  -4.453 -22.869  0.00  0.00    +0.112 C 
ATOM     17  C   UNL     1      31.945  -4.515 -24.252  0.00  0.00    +0.077 C 
ENDROOT
BRANCH   7  18
ATOM     18  O   UNL     1      33.114  -9.565 -23.102  0.00  0.00    -0.412 OA
BRANCH  18  26
ATOM     19  O   UNL     1      32.425  -9.641 -25.280  0.00  0.00    -0.226 OA
ATOM     20  N   UNL     1      33.566 -11.443 -24.356  0.00  0.00    -0.250 N 
ATOM     21  N   UNL     1      34.031 -14.264 -24.334  0.00  0.00    +0.388 N 
ATOM     22  C   UNL     1      34.234 -12.070 -23.214  0.00  0.00    +0.074 C 
ATOM     23  C   UNL     1      33.656 -12.185 -25.611  0.00  0.00    +0.074 C 
ATOM     24  C   UNL     1      33.823 -13.536 -23.074  0.00  0.00    -0.055 C 
ATOM     25  C   UNL     1      33.254 -13.646 -25.419  0.00  0.00    -0.055 C 
ATOM     26  C   UNL     1      32.988 -10.171 -24.324  0.00  0.00    +0.406 C 
ATOM     27  C   UNL     1      33.669 -15.672 -24.181  0.00  0.00    -0.101 C 
ATOM     28  H   UNL     1      35.021 -14.212 -24.578  0.00  0.00    -0.080 HD
ENDBRANCH  18  26
ENDBRANCH   7  18
TORSDOF 2
ENDMDL
