MODEL 1
REMARK VINA RESULT:      -8.1      0.000      0.000
REMARK  Name = 6923517
REMARK  4 active torsions:
REMARK  status: ('A' for Active; 'I' for Inactive)
REMARK    1  A    between atoms: CG_2  and  CB_11
REMARK    2  A    between atoms: CB_11  and  CA_12
REMARK    3  A    between atoms: CA_12  and  N_13
REMARK    4  A    between atoms: CA_12  and  C_19
REMARK                            x       y       z     vdW  Elec       q    Type
REMARK                         _______ _______ _______ _____ _____    ______ ____
ROOT
ATOM      1  NE1 TRP A   1      36.773 -19.889 -20.315  0.00  0.00    -0.312 N 
ATOM      2  CG  TRP A   1      35.237 -18.755 -21.445  0.00  0.00    -0.008 C 
ATOM      3  CD2 TRP A   1      34.585 -19.804 -20.739  0.00  0.00    +0.011 C 
ATOM      4  CE2 TRP A   1      35.572 -20.501 -20.038  0.00  0.00    +0.048 C 
ATOM      5  CD1 TRP A   1      36.581 -18.833 -21.165  0.00  0.00    +0.058 C 
ATOM      6  CE3 TRP A   1      33.247 -20.230 -20.629  0.00  0.00    +0.001 C 
ATOM      7  CZ2 TRP A   1      35.286 -21.606 -19.229  0.00  0.00    +0.015 C 
ATOM      8  CZ3 TRP A   1      32.945 -21.334 -19.823  0.00  0.00    +0.000 C 
ATOM      9  CH2 TRP A   1      33.951 -22.010 -19.134  0.00  0.00    +0.001 C 
ATOM     10  HE1 TRP A   1      37.646 -20.171 -19.954  0.00  0.00    +0.152 HD
ENDROOT
BRANCH   2  11
ATOM     11  CB  TRP A   1      34.596 -17.756 -22.325  0.00  0.00    +0.017 C 
BRANCH  11  12
ATOM     12  CA  TRP A   1      35.074 -17.817 -23.792  0.00  0.00    +0.045 C 
BRANCH  12  13
ATOM     13  N   TRP A   1      34.670 -19.143 -24.357  0.00  0.00    +0.389 N 
ATOM     14  H1  TRP A   1      34.943 -19.192 -25.338  0.00  0.00    -0.088 HD
ATOM     15  H2  TRP A   1      33.658 -19.251 -24.280  0.00  0.00    -0.088 HD
ATOM     16  H3  TRP A   1      35.131 -19.889 -23.837  0.00  0.00    -0.088 HD
ENDBRANCH  12  13
BRANCH  12  19
ATOM     17  O   TRP A   1      34.761 -16.708 -25.854  0.00  0.00    -0.248 OA
ATOM     18  OXT TRP A   1      33.897 -15.762 -23.960  0.00  0.00    -0.248 OA
ATOM     19  C   TRP A   1      34.519 -16.645 -24.615  0.00  0.00    +0.345 C 
ENDBRANCH  12  19
ENDBRANCH  11  12
ENDBRANCH   2  11
TORSDOF 4
ENDMDL
MODEL 2
REMARK VINA RESULT:      -8.0      1.648      1.922
REMARK  Name = 6923517
REMARK  4 active torsions:
REMARK  status: ('A' for Active; 'I' for Inactive)
REMARK    1  A    between atoms: CG_2  and  CB_11
REMARK    2  A    between atoms: CB_11  and  CA_12
REMARK    3  A    between atoms: CA_12  and  N_13
REMARK    4  A    between atoms: CA_12  and  C_19
REMARK                            x       y       z     vdW  Elec       q    Type
REMARK                         _______ _______ _______ _____ _____    ______ ____
ROOT
ATOM      1  NE1 TRP A   1      36.819 -20.075 -20.241  0.00  0.00    -0.312 N 
ATOM      2  CG  TRP A   1      35.181 -19.008 -21.291  0.00  0.00    -0.008 C 
ATOM      3  CD2 TRP A   1      34.608 -20.068 -20.535  0.00  0.00    +0.011 C 
ATOM      4  CE2 TRP A   1      35.657 -20.722 -19.887  0.00  0.00    +0.048 C 
ATOM      5  CD1 TRP A   1      36.541 -19.037 -21.090  0.00  0.00    +0.058 C 
ATOM      6  CE3 TRP A   1      33.293 -20.536 -20.341  0.00  0.00    +0.001 C 
ATOM      7  CZ2 TRP A   1      35.456 -21.825 -19.049  0.00  0.00    +0.015 C 
ATOM      8  CZ3 TRP A   1      33.077 -21.638 -19.506  0.00  0.00    +0.000 C 
ATOM      9  CH2 TRP A   1      34.144 -22.271 -18.870  0.00  0.00    +0.001 C 
ATOM     10  HE1 TRP A   1      37.720 -20.323 -19.929  0.00  0.00    +0.152 HD
ENDROOT
BRANCH   2  11
ATOM     11  CB  TRP A   1      34.456 -18.042 -22.143  0.00  0.00    +0.017 C 
BRANCH  11  12
ATOM     12  CA  TRP A   1      35.169 -16.680 -22.290  0.00  0.00    +0.045 C 
BRANCH  12  13
ATOM     13  N   TRP A   1      35.318 -16.391 -23.752  0.00  0.00    +0.389 N 
ATOM     14  H1  TRP A   1      36.076 -16.956 -24.135  0.00  0.00    -0.088 HD
ATOM     15  H2  TRP A   1      35.532 -15.403 -23.883  0.00  0.00    -0.088 HD
ATOM     16  H3  TRP A   1      34.448 -16.618 -24.233  0.00  0.00    -0.088 HD
ENDBRANCH  12  13
BRANCH  12  19
ATOM     17  O   TRP A   1      33.351 -15.182 -22.124  0.00  0.00    -0.248 OA
ATOM     18  OXT TRP A   1      34.940 -15.162 -20.480  0.00  0.00    -0.248 OA
ATOM     19  C   TRP A   1      34.412 -15.564 -21.554  0.00  0.00    +0.345 C 
ENDBRANCH  12  19
ENDBRANCH  11  12
ENDBRANCH   2  11
TORSDOF 4
ENDMDL
MODEL 3
REMARK VINA RESULT:      -7.8      3.453      5.574
REMARK  Name = 6923517
REMARK  4 active torsions:
REMARK  status: ('A' for Active; 'I' for Inactive)
REMARK    1  A    between atoms: CG_2  and  CB_11
REMARK    2  A    between atoms: CB_11  and  CA_12
REMARK    3  A    between atoms: CA_12  and  N_13
REMARK    4  A    between atoms: CA_12  and  C_19
REMARK                            x       y       z     vdW  Elec       q    Type
REMARK                         _______ _______ _______ _____ _____    ______ ____
ROOT
ATOM      1  NE1 TRP A   1      35.058 -16.538 -21.585  0.00  0.00    -0.312 N 
ATOM      2  CG  TRP A   1      34.985 -18.755 -21.525  0.00  0.00    -0.008 C 
ATOM      3  CD2 TRP A   1      34.806 -18.341 -22.874  0.00  0.00    +0.011 C 
ATOM      4  CE2 TRP A   1      34.855 -16.946 -22.884  0.00  0.00    +0.048 C 
ATOM      5  CD1 TRP A   1      35.137 -17.625 -20.756  0.00  0.00    +0.058 C 
ATOM      6  CE3 TRP A   1      34.605 -19.022 -24.091  0.00  0.00    +0.001 C 
ATOM      7  CZ2 TRP A   1      34.714 -16.194 -24.056  0.00  0.00    +0.015 C 
ATOM      8  CZ3 TRP A   1      34.462 -18.283 -25.271  0.00  0.00    +0.000 C 
ATOM      9  CH2 TRP A   1      34.517 -16.890 -25.252  0.00  0.00    +0.001 C 
ATOM     10  HE1 TRP A   1      35.135 -15.600 -21.294  0.00  0.00    +0.152 HD
ENDROOT
BRANCH   2  11
ATOM     11  CB  TRP A   1      35.005 -20.146 -21.026  0.00  0.00    +0.017 C 
BRANCH  11  12
ATOM     12  CA  TRP A   1      33.849 -20.480 -20.058  0.00  0.00    +0.045 C 
BRANCH  12  13
ATOM     13  N   TRP A   1      32.561 -20.339 -20.809  0.00  0.00    +0.389 N 
ATOM     14  H1  TRP A   1      32.581 -19.481 -21.360  0.00  0.00    -0.088 HD
ATOM     15  H2  TRP A   1      31.786 -20.301 -20.148  0.00  0.00    -0.088 HD
ATOM     16  H3  TRP A   1      32.441 -21.139 -21.429  0.00  0.00    -0.088 HD
ENDBRANCH  12  13
BRANCH  12  19
ATOM     17  O   TRP A   1      35.187 -22.343 -19.493  0.00  0.00    -0.248 OA
ATOM     18  OXT TRP A   1      32.960 -22.399 -18.981  0.00  0.00    -0.248 OA
ATOM     19  C   TRP A   1      34.012 -21.880 -19.447  0.00  0.00    +0.345 C 
ENDBRANCH  12  19
ENDBRANCH  11  12
ENDBRANCH   2  11
TORSDOF 4
ENDMDL
MODEL 4
REMARK VINA RESULT:      -7.7      1.703      2.378
REMARK  Name = 6923517
REMARK  4 active torsions:
REMARK  status: ('A' for Active; 'I' for Inactive)
REMARK    1  A    between atoms: CG_2  and  CB_11
REMARK    2  A    between atoms: CB_11  and  CA_12
REMARK    3  A    between atoms: CA_12  and  N_13
REMARK    4  A    between atoms: CA_12  and  C_19
REMARK                            x       y       z     vdW  Elec       q    Type
REMARK                         _______ _______ _______ _____ _____    ______ ____
ROOT
ATOM      1  NE1 TRP A   1      32.914 -20.200 -20.671  0.00  0.00    -0.312 N 
ATOM      2  CG  TRP A   1      34.687 -19.269 -21.627  0.00  0.00    -0.008 C 
ATOM      3  CD2 TRP A   1      35.144 -20.181 -20.635  0.00  0.00    +0.011 C 
ATOM      4  CE2 TRP A   1      34.012 -20.750 -20.050  0.00  0.00    +0.048 C 
ATOM      5  CD1 TRP A   1      33.312 -19.303 -21.626  0.00  0.00    +0.058 C 
ATOM      6  CE3 TRP A   1      36.416 -20.576 -20.176  0.00  0.00    +0.001 C 
ATOM      7  CZ2 TRP A   1      34.088 -21.701 -19.025  0.00  0.00    +0.015 C 
ATOM      8  CZ3 TRP A   1      36.508 -21.525 -19.152  0.00  0.00    +0.000 C 
ATOM      9  CH2 TRP A   1      35.361 -22.079 -18.587  0.00  0.00    +0.001 C 
ATOM     10  HE1 TRP A   1      31.977 -20.419 -20.459  0.00  0.00    +0.152 HD
ENDROOT
BRANCH   2  11
ATOM     11  CB  TRP A   1      35.528 -18.432 -22.507  0.00  0.00    +0.017 C 
BRANCH  11  12
ATOM     12  CA  TRP A   1      34.725 -17.463 -23.402  0.00  0.00    +0.045 C 
BRANCH  12  13
ATOM     13  N   TRP A   1      35.346 -16.105 -23.289  0.00  0.00    +0.389 N 
ATOM     14  H1  TRP A   1      36.219 -16.174 -22.767  0.00  0.00    -0.088 HD
ATOM     15  H2  TRP A   1      34.707 -15.479 -22.801  0.00  0.00    -0.088 HD
ATOM     16  H3  TRP A   1      35.536 -15.740 -24.222  0.00  0.00    -0.088 HD
ENDBRANCH  12  13
BRANCH  12  19
ATOM     17  O   TRP A   1      34.841 -17.052 -25.726  0.00  0.00    -0.248 OA
ATOM     18  OXT TRP A   1      34.453 -19.189 -25.009  0.00  0.00    -0.248 OA
ATOM     19  C   TRP A   1      34.669 -17.954 -24.857  0.00  0.00    +0.345 C 
ENDBRANCH  12  19
ENDBRANCH  11  12
ENDBRANCH   2  11
TORSDOF 4
ENDMDL
MODEL 5
REMARK VINA RESULT:      -7.6      1.807      2.510
REMARK  Name = 6923517
REMARK  4 active torsions:
REMARK  status: ('A' for Active; 'I' for Inactive)
REMARK    1  A    between atoms: CG_2  and  CB_11
REMARK    2  A    between atoms: CB_11  and  CA_12
REMARK    3  A    between atoms: CA_12  and  N_13
REMARK    4  A    between atoms: CA_12  and  C_19
REMARK                            x       y       z     vdW  Elec       q    Type
REMARK                         _______ _______ _______ _____ _____    ______ ____
ROOT
ATOM      1  NE1 TRP A   1      32.672 -20.772 -20.358  0.00  0.00    -0.312 N 
ATOM      2  CG  TRP A   1      34.371 -19.634 -21.221  0.00  0.00    -0.008 C 
ATOM      3  CD2 TRP A   1      34.883 -20.510 -20.224  0.00  0.00    +0.011 C 
ATOM      4  CE2 TRP A   1      33.797 -21.212 -19.698  0.00  0.00    +0.048 C 
ATOM      5  CD1 TRP A   1      33.009 -19.817 -21.280  0.00  0.00    +0.058 C 
ATOM      6  CE3 TRP A   1      36.171 -20.773 -19.716  0.00  0.00    +0.001 C 
ATOM      7  CZ2 TRP A   1      33.935 -22.169 -18.686  0.00  0.00    +0.015 C 
ATOM      8  CZ3 TRP A   1      36.324 -21.727 -18.704  0.00  0.00    +0.000 C 
ATOM      9  CH2 TRP A   1      35.221 -22.414 -18.198  0.00  0.00    +0.001 C 
ATOM     10  HE1 TRP A   1      31.757 -21.096 -20.191  0.00  0.00    +0.152 HD
ENDROOT
BRANCH   2  11
ATOM     11  CB  TRP A   1      35.151 -18.692 -22.050  0.00  0.00    +0.017 C 
BRANCH  11  12
ATOM     12  CA  TRP A   1      34.528 -17.282 -22.147  0.00  0.00    +0.045 C 
BRANCH  12  13
ATOM     13  N   TRP A   1      34.931 -16.512 -20.928  0.00  0.00    +0.389 N 
ATOM     14  H1  TRP A   1      35.930 -16.637 -20.762  0.00  0.00    -0.088 HD
ATOM     15  H2  TRP A   1      34.408 -16.854 -20.122  0.00  0.00    -0.088 HD
ATOM     16  H3  TRP A   1      34.731 -15.523 -21.069  0.00  0.00    -0.088 HD
ENDBRANCH  12  13
BRANCH  12  19
ATOM     17  O   TRP A   1      35.077 -17.331 -24.444  0.00  0.00    -0.248 OA
ATOM     18  OXT TRP A   1      35.107 -15.322 -23.354  0.00  0.00    -0.248 OA
ATOM     19  C   TRP A   1      34.944 -16.570 -23.444  0.00  0.00    +0.345 C 
ENDBRANCH  12  19
ENDBRANCH  11  12
ENDBRANCH   2  11
TORSDOF 4
ENDMDL
MODEL 6
REMARK VINA RESULT:      -7.6      3.320      5.675
REMARK  Name = 6923517
REMARK  4 active torsions:
REMARK  status: ('A' for Active; 'I' for Inactive)
REMARK    1  A    between atoms: CG_2  and  CB_11
REMARK    2  A    between atoms: CB_11  and  CA_12
REMARK    3  A    between atoms: CA_12  and  N_13
REMARK    4  A    between atoms: CA_12  and  C_19
REMARK                            x       y       z     vdW  Elec       q    Type
REMARK                         _______ _______ _______ _____ _____    ______ ____
ROOT
ATOM      1  NE1 TRP A   1      35.135 -18.329 -23.808  0.00  0.00    -0.312 N 
ATOM      2  CG  TRP A   1      34.412 -18.929 -21.798  0.00  0.00    -0.008 C 
ATOM      3  CD2 TRP A   1      34.374 -17.509 -21.879  0.00  0.00    +0.011 C 
ATOM      4  CE2 TRP A   1      34.833 -17.159 -23.150  0.00  0.00    +0.048 C 
ATOM      5  CD1 TRP A   1      34.884 -19.405 -22.999  0.00  0.00    +0.058 C 
ATOM      6  CE3 TRP A   1      33.994 -16.485 -20.989  0.00  0.00    +0.001 C 
ATOM      7  CZ2 TRP A   1      34.930 -15.830 -23.578  0.00  0.00    +0.015 C 
ATOM      8  CZ3 TRP A   1      34.085 -15.151 -21.403  0.00  0.00    +0.000 C 
ATOM      9  CH2 TRP A   1      34.546 -14.831 -22.680  0.00  0.00    +0.001 C 
ATOM     10  HE1 TRP A   1      35.481 -18.385 -24.729  0.00  0.00    +0.152 HD
ENDROOT
BRANCH   2  11
ATOM     11  CB  TRP A   1      34.018 -19.755 -20.638  0.00  0.00    +0.017 C 
BRANCH  11  12
ATOM     12  CA  TRP A   1      35.006 -20.899 -20.321  0.00  0.00    +0.045 C 
BRANCH  12  13
ATOM     13  N   TRP A   1      36.246 -20.294 -19.740  0.00  0.00    +0.389 N 
ATOM     14  H1  TRP A   1      36.712 -19.729 -20.450  0.00  0.00    -0.088 HD
ATOM     15  H2  TRP A   1      36.872 -21.036 -19.430  0.00  0.00    -0.088 HD
ATOM     16  H3  TRP A   1      35.996 -19.704 -18.947  0.00  0.00    -0.088 HD
ENDBRANCH  12  13
BRANCH  12  19
ATOM     17  O   TRP A   1      35.177 -22.445 -18.543  0.00  0.00    -0.248 OA
ATOM     18  OXT TRP A   1      33.152 -22.178 -19.571  0.00  0.00    -0.248 OA
ATOM     19  C   TRP A   1      34.378 -21.943 -19.385  0.00  0.00    +0.345 C 
ENDBRANCH  12  19
ENDBRANCH  11  12
ENDBRANCH   2  11
TORSDOF 4
ENDMDL
MODEL 7
REMARK VINA RESULT:      -7.4      2.924      4.379
REMARK  Name = 6923517
REMARK  4 active torsions:
REMARK  status: ('A' for Active; 'I' for Inactive)
REMARK    1  A    between atoms: CG_2  and  CB_11
REMARK    2  A    between atoms: CB_11  and  CA_12
REMARK    3  A    between atoms: CA_12  and  N_13
REMARK    4  A    between atoms: CA_12  and  C_19
REMARK                            x       y       z     vdW  Elec       q    Type
REMARK                         _______ _______ _______ _____ _____    ______ ____
ROOT
ATOM      1  NE1 TRP A   1      34.928 -17.150 -20.777  0.00  0.00    -0.312 N 
ATOM      2  CG  TRP A   1      34.518 -15.468 -22.166  0.00  0.00    -0.008 C 
ATOM      3  CD2 TRP A   1      34.641 -16.659 -22.934  0.00  0.00    +0.011 C 
ATOM      4  CE2 TRP A   1      34.898 -17.699 -22.039  0.00  0.00    +0.048 C 
ATOM      5  CD1 TRP A   1      34.700 -15.801 -20.844  0.00  0.00    +0.058 C 
ATOM      6  CE3 TRP A   1      34.559 -16.953 -24.309  0.00  0.00    +0.001 C 
ATOM      7  CZ2 TRP A   1      35.077 -19.024 -22.452  0.00  0.00    +0.015 C 
ATOM      8  CZ3 TRP A   1      34.736 -18.273 -24.738  0.00  0.00    +0.000 C 
ATOM      9  CH2 TRP A   1      34.990 -19.293 -23.821  0.00  0.00    +0.001 C 
ATOM     10  HE1 TRP A   1      35.089 -17.654 -19.946  0.00  0.00    +0.152 HD
ENDROOT
BRANCH   2  11
ATOM     11  CB  TRP A   1      34.246 -14.111 -22.683  0.00  0.00    +0.017 C 
BRANCH  11  12
ATOM     12  CA  TRP A   1      32.901 -13.985 -23.431  0.00  0.00    +0.045 C 
BRANCH  12  13
ATOM     13  N   TRP A   1      32.027 -13.048 -22.657  0.00  0.00    +0.389 N 
ATOM     14  H1  TRP A   1      31.810 -12.234 -23.231  0.00  0.00    -0.088 HD
ATOM     15  H2  TRP A   1      32.514 -12.748 -21.813  0.00  0.00    -0.088 HD
ATOM     16  H3  TRP A   1      31.162 -13.524 -22.401  0.00  0.00    -0.088 HD
ENDBRANCH  12  13
BRANCH  12  19
ATOM     17  O   TRP A   1      32.635 -14.304 -25.757  0.00  0.00    -0.248 OA
ATOM     18  OXT TRP A   1      33.715 -12.427 -25.026  0.00  0.00    -0.248 OA
ATOM     19  C   TRP A   1      33.104 -13.522 -24.882  0.00  0.00    +0.345 C 
ENDBRANCH  12  19
ENDBRANCH  11  12
ENDBRANCH   2  11
TORSDOF 4
ENDMDL
MODEL 8
REMARK VINA RESULT:      -7.3      8.250      9.761
REMARK  Name = 6923517
REMARK  4 active torsions:
REMARK  status: ('A' for Active; 'I' for Inactive)
REMARK    1  A    between atoms: CG_2  and  CB_11
REMARK    2  A    between atoms: CB_11  and  CA_12
REMARK    3  A    between atoms: CA_12  and  N_13
REMARK    4  A    between atoms: CA_12  and  C_19
REMARK                            x       y       z     vdW  Elec       q    Type
REMARK                         _______ _______ _______ _____ _____    ______ ____
ROOT
ATOM      1  NE1 TRP A   1      33.231 -23.663 -13.370  0.00  0.00    -0.312 N 
ATOM      2  CG  TRP A   1      34.994 -23.989 -14.678  0.00  0.00    -0.008 C 
ATOM      3  CD2 TRP A   1      33.897 -23.605 -15.498  0.00  0.00    +0.011 C 
ATOM      4  CE2 TRP A   1      32.803 -23.408 -14.653  0.00  0.00    +0.048 C 
ATOM      5  CD1 TRP A   1      34.554 -24.016 -13.375  0.00  0.00    +0.058 C 
ATOM      6  CE3 TRP A   1      33.729 -23.408 -16.883  0.00  0.00    +0.001 C 
ATOM      7  CZ2 TRP A   1      31.544 -23.020 -15.126  0.00  0.00    +0.015 C 
ATOM      8  CZ3 TRP A   1      32.476 -23.019 -17.370  0.00  0.00    +0.000 C 
ATOM      9  CH2 TRP A   1      31.401 -22.828 -16.503  0.00  0.00    +0.001 C 
ATOM     10  HE1 TRP A   1      32.667 -23.602 -12.565  0.00  0.00    +0.152 HD
ENDROOT
BRANCH   2  11
ATOM     11  CB  TRP A   1      36.364 -24.304 -15.131  0.00  0.00    +0.017 C 
BRANCH  11  12
ATOM     12  CA  TRP A   1      36.937 -25.607 -14.531  0.00  0.00    +0.045 C 
BRANCH  12  13
ATOM     13  N   TRP A   1      36.259 -26.762 -15.200  0.00  0.00    +0.389 N 
ATOM     14  H1  TRP A   1      36.912 -27.216 -15.838  0.00  0.00    -0.088 HD
ATOM     15  H2  TRP A   1      35.451 -26.425 -15.723  0.00  0.00    -0.088 HD
ATOM     16  H3  TRP A   1      35.953 -27.431 -14.494  0.00  0.00    -0.088 HD
ENDBRANCH  12  13
BRANCH  12  19
ATOM     17  O   TRP A   1      38.947 -26.839 -14.687  0.00  0.00    -0.248 OA
ATOM     18  OXT TRP A   1      39.054 -24.556 -14.761  0.00  0.00    -0.248 OA
ATOM     19  C   TRP A   1      38.465 -25.670 -14.676  0.00  0.00    +0.345 C 
ENDBRANCH  12  19
ENDBRANCH  11  12
ENDBRANCH   2  11
TORSDOF 4
ENDMDL
MODEL 9
REMARK VINA RESULT:      -7.3      5.109      7.125
REMARK  Name = 6923517
REMARK  4 active torsions:
REMARK  status: ('A' for Active; 'I' for Inactive)
REMARK    1  A    between atoms: CG_2  and  CB_11
REMARK    2  A    between atoms: CB_11  and  CA_12
REMARK    3  A    between atoms: CA_12  and  N_13
REMARK    4  A    between atoms: CA_12  and  C_19
REMARK                            x       y       z     vdW  Elec       q    Type
REMARK                         _______ _______ _______ _____ _____    ______ ____
ROOT
ATOM      1  NE1 TRP A   1      36.773 -20.738 -19.509  0.00  0.00    -0.312 N 
ATOM      2  CG  TRP A   1      35.409 -21.966 -18.260  0.00  0.00    -0.008 C 
ATOM      3  CD2 TRP A   1      34.629 -21.286 -19.236  0.00  0.00    +0.011 C 
ATOM      4  CE2 TRP A   1      35.508 -20.523 -20.006  0.00  0.00    +0.048 C 
ATOM      5  CD1 TRP A   1      36.724 -21.609 -18.453  0.00  0.00    +0.058 C 
ATOM      6  CE3 TRP A   1      33.253 -21.247 -19.539  0.00  0.00    +0.001 C 
ATOM      7  CZ2 TRP A   1      35.080 -19.719 -21.068  0.00  0.00    +0.015 C 
ATOM      8  CZ3 TRP A   1      32.810 -20.447 -20.599  0.00  0.00    +0.000 C 
ATOM      9  CH2 TRP A   1      33.711 -19.696 -21.351  0.00  0.00    +0.001 C 
ATOM     10  HE1 TRP A   1      37.595 -20.326 -19.861  0.00  0.00    +0.152 HD
ENDROOT
BRANCH   2  11
ATOM     11  CB  TRP A   1      34.910 -22.890 -17.222  0.00  0.00    +0.017 C 
BRANCH  11  12
ATOM     12  CA  TRP A   1      35.528 -22.654 -15.826  0.00  0.00    +0.045 C 
BRANCH  12  13
ATOM     13  N   TRP A   1      34.435 -22.772 -14.810  0.00  0.00    +0.389 N 
ATOM     14  H1  TRP A   1      34.485 -23.686 -14.361  0.00  0.00    -0.088 HD
ATOM     15  H2  TRP A   1      33.531 -22.669 -15.270  0.00  0.00    -0.088 HD
ATOM     16  H3  TRP A   1      34.544 -22.042 -14.107  0.00  0.00    -0.088 HD
ENDBRANCH  12  13
BRANCH  12  19
ATOM     17  O   TRP A   1      37.801 -23.078 -15.341  0.00  0.00    -0.248 OA
ATOM     18  OXT TRP A   1      36.380 -24.855 -15.567  0.00  0.00    -0.248 OA
ATOM     19  C   TRP A   1      36.683 -23.629 -15.548  0.00  0.00    +0.345 C 
ENDBRANCH  12  19
ENDBRANCH  11  12
ENDBRANCH   2  11
TORSDOF 4
ENDMDL
