MODEL 1
REMARK VINA RESULT:      -9.2      0.000      0.000
REMARK  Name = 36811
REMARK  10 active torsions:
REMARK  status: ('A' for Active; 'I' for Inactive)
REMARK    1  A    between atoms: N_1  and  C_4
REMARK    2  A    between atoms: N_1  and  C_16
REMARK    3  A    between atoms: C_4  and  C_6
REMARK    4  A    between atoms: C_6  and  C_7
REMARK    5  A    between atoms: C_7  and  C_8
REMARK    6  A    between atoms: C_13  and  O_14
REMARK    7  A    between atoms: C_16  and  C_17
REMARK    8  A    between atoms: C_17  and  C_18
REMARK    9  A    between atoms: C_21  and  O_24
REMARK   10  A    between atoms: C_23  and  O_26
REMARK                            x       y       z     vdW  Elec       q    Type
REMARK                         _______ _______ _______ _____ _____    ______ ____
ROOT
ATOM      1  N   UNL     1      33.896 -23.014 -14.552  0.00  0.00    +0.385 N 
ATOM      2  H   UNL     1      33.496 -22.078 -14.612  0.00  0.00    -0.084 HD
ATOM      3  H   UNL     1      34.698 -23.016 -13.922  0.00  0.00    -0.084 HD
ENDROOT
BRANCH   1   4
ATOM      4  C   UNL     1      34.340 -23.435 -15.881  0.00  0.00    -0.062 C 
ATOM      5  C   UNL     1      35.739 -22.881 -16.151  0.00  0.00    -0.023 C 
BRANCH   4   6
ATOM      6  C   UNL     1      33.355 -22.960 -16.964  0.00  0.00    -0.017 C 
BRANCH   6   7
ATOM      7  C   UNL     1      33.784 -23.263 -18.408  0.00  0.00    +0.024 C 
BRANCH   7   8
ATOM      8  C   UNL     1      34.044 -22.031 -19.239  0.00  0.00    -0.022 C 
ATOM      9  C   UNL     1      32.975 -21.256 -19.660  0.00  0.00    -0.001 C 
ATOM     10  C   UNL     1      35.349 -21.695 -19.566  0.00  0.00    -0.001 C 
ATOM     11  C   UNL     1      33.216 -20.118 -20.429  0.00  0.00    +0.036 C 
ATOM     12  C   UNL     1      35.590 -20.557 -20.335  0.00  0.00    +0.036 C 
ATOM     13  C   UNL     1      34.523 -19.767 -20.766  0.00  0.00    +0.134 C 
BRANCH  13  14
ATOM     14  O   UNL     1      34.757 -18.656 -21.516  0.00  0.00    -0.506 OA
ATOM     15  H   UNL     1      35.341 -18.698 -22.246  0.00  0.00    +0.292 HD
ENDBRANCH  13  14
ENDBRANCH   7   8
ENDBRANCH   6   7
ENDBRANCH   4   6
ENDBRANCH   1   4
BRANCH   1  16
ATOM     16  C   UNL     1      32.893 -23.929 -14.031  0.00  0.00    -0.077 C 
BRANCH  16  17
ATOM     17  C   UNL     1      31.591 -23.191 -13.715  0.00  0.00    +0.003 C 
BRANCH  17  18
ATOM     18  C   UNL     1      30.523 -23.494 -14.736  0.00  0.00    -0.021 C 
ATOM     19  C   UNL     1      29.746 -22.459 -15.235  0.00  0.00    +0.035 C 
ATOM     20  C   UNL     1      30.334 -24.801 -15.157  0.00  0.00    -0.001 C 
ATOM     21  C   UNL     1      28.758 -22.740 -16.180  0.00  0.00    +0.167 C 
ATOM     22  C   UNL     1      29.346 -25.081 -16.099  0.00  0.00    +0.039 C 
ATOM     23  C   UNL     1      28.557 -24.050 -16.611  0.00  0.00    +0.167 C 
BRANCH  21  24
ATOM     24  O   UNL     1      27.995 -21.724 -16.671  0.00  0.00    -0.503 OA
ATOM     25  H   UNL     1      27.535 -21.832 -17.480  0.00  0.00    +0.292 HD
ENDBRANCH  21  24
BRANCH  23  26
ATOM     26  O   UNL     1      27.595 -24.337 -17.533  0.00  0.00    -0.503 OA
ATOM     27  H   UNL     1      27.113 -25.138 -17.472  0.00  0.00    +0.292 HD
ENDBRANCH  23  26
ENDBRANCH  17  18
ENDBRANCH  16  17
ENDBRANCH   1  16
TORSDOF 10
ENDMDL
MODEL 2
REMARK VINA RESULT:      -9.1      5.505      9.693
REMARK  Name = 36811
REMARK  10 active torsions:
REMARK  status: ('A' for Active; 'I' for Inactive)
REMARK    1  A    between atoms: N_1  and  C_4
REMARK    2  A    between atoms: N_1  and  C_16
REMARK    3  A    between atoms: C_4  and  C_6
REMARK    4  A    between atoms: C_6  and  C_7
REMARK    5  A    between atoms: C_7  and  C_8
REMARK    6  A    between atoms: C_13  and  O_14
REMARK    7  A    between atoms: C_16  and  C_17
REMARK    8  A    between atoms: C_17  and  C_18
REMARK    9  A    between atoms: C_21  and  O_24
REMARK   10  A    between atoms: C_23  and  O_26
REMARK                            x       y       z     vdW  Elec       q    Type
REMARK                         _______ _______ _______ _____ _____    ______ ____
ROOT
ATOM      1  N   UNL     1      35.324 -16.798 -24.365  0.00  0.00    +0.385 N 
ATOM      2  H   UNL     1      34.593 -16.920 -25.067  0.00  0.00    -0.084 HD
ATOM      3  H   UNL     1      36.190 -16.493 -24.807  0.00  0.00    -0.084 HD
ENDROOT
BRANCH   1   4
ATOM      4  C   UNL     1      35.563 -18.076 -23.693  0.00  0.00    -0.062 C 
ATOM      5  C   UNL     1      34.601 -19.129 -24.243  0.00  0.00    -0.023 C 
BRANCH   4   6
ATOM      6  C   UNL     1      35.392 -17.934 -22.169  0.00  0.00    -0.017 C 
BRANCH   6   7
ATOM      7  C   UNL     1      36.143 -18.982 -21.334  0.00  0.00    +0.024 C 
BRANCH   7   8
ATOM      8  C   UNL     1      35.238 -19.943 -20.604  0.00  0.00    -0.022 C 
ATOM      9  C   UNL     1      35.796 -20.969 -19.857  0.00  0.00    -0.001 C 
ATOM     10  C   UNL     1      33.864 -19.783 -20.692  0.00  0.00    -0.001 C 
ATOM     11  C   UNL     1      34.959 -21.858 -19.183  0.00  0.00    +0.036 C 
ATOM     12  C   UNL     1      33.026 -20.673 -20.018  0.00  0.00    +0.036 C 
ATOM     13  C   UNL     1      33.574 -21.710 -19.263  0.00  0.00    +0.134 C 
BRANCH  13  14
ATOM     14  O   UNL     1      32.759 -22.578 -18.604  0.00  0.00    -0.506 OA
ATOM     15  H   UNL     1      32.810 -22.653 -17.671  0.00  0.00    +0.292 HD
ENDBRANCH  13  14
ENDBRANCH   7   8
ENDBRANCH   6   7
ENDBRANCH   4   6
ENDBRANCH   1   4
BRANCH   1  16
ATOM     16  C   UNL     1      34.905 -15.784 -23.410  0.00  0.00    -0.077 C 
BRANCH  16  17
ATOM     17  C   UNL     1      33.562 -15.174 -23.813  0.00  0.00    +0.003 C 
BRANCH  17  18
ATOM     18  C   UNL     1      33.016 -14.276 -22.731  0.00  0.00    -0.021 C 
ATOM     19  C   UNL     1      32.503 -13.034 -23.070  0.00  0.00    +0.035 C 
ATOM     20  C   UNL     1      33.039 -14.708 -21.413  0.00  0.00    -0.001 C 
ATOM     21  C   UNL     1      31.999 -12.204 -22.068  0.00  0.00    +0.167 C 
ATOM     22  C   UNL     1      32.537 -13.878 -20.412  0.00  0.00    +0.039 C 
ATOM     23  C   UNL     1      32.016 -12.625 -20.740  0.00  0.00    +0.167 C 
BRANCH  21  24
ATOM     24  O   UNL     1      31.493 -10.984 -22.402  0.00  0.00    -0.503 OA
ATOM     25  H   UNL     1      31.731 -10.226 -21.905  0.00  0.00    +0.292 HD
ENDBRANCH  21  24
BRANCH  23  26
ATOM     26  O   UNL     1      31.528 -11.824 -19.752  0.00  0.00    -0.503 OA
ATOM     27  H   UNL     1      32.070 -11.158 -19.377  0.00  0.00    +0.292 HD
ENDBRANCH  23  26
ENDBRANCH  17  18
ENDBRANCH  16  17
ENDBRANCH   1  16
TORSDOF 10
ENDMDL
MODEL 3
REMARK VINA RESULT:      -9.1      5.201      8.321
REMARK  Name = 36811
REMARK  10 active torsions:
REMARK  status: ('A' for Active; 'I' for Inactive)
REMARK    1  A    between atoms: N_1  and  C_4
REMARK    2  A    between atoms: N_1  and  C_16
REMARK    3  A    between atoms: C_4  and  C_6
REMARK    4  A    between atoms: C_6  and  C_7
REMARK    5  A    between atoms: C_7  and  C_8
REMARK    6  A    between atoms: C_13  and  O_14
REMARK    7  A    between atoms: C_16  and  C_17
REMARK    8  A    between atoms: C_17  and  C_18
REMARK    9  A    between atoms: C_21  and  O_24
REMARK   10  A    between atoms: C_23  and  O_26
REMARK                            x       y       z     vdW  Elec       q    Type
REMARK                         _______ _______ _______ _____ _____    ______ ____
ROOT
ATOM      1  N   UNL     1      36.045 -18.151 -23.239  0.00  0.00    +0.385 N 
ATOM      2  H   UNL     1      36.806 -17.474 -23.296  0.00  0.00    -0.084 HD
ATOM      3  H   UNL     1      36.243 -18.956 -23.834  0.00  0.00    -0.084 HD
ENDROOT
BRANCH   1   4
ATOM      4  C   UNL     1      34.806 -17.521 -23.696  0.00  0.00    -0.062 C 
ATOM      5  C   UNL     1      34.510 -17.959 -25.131  0.00  0.00    -0.023 C 
BRANCH   4   6
ATOM      6  C   UNL     1      34.906 -15.987 -23.612  0.00  0.00    -0.017 C 
BRANCH   6   7
ATOM      7  C   UNL     1      33.629 -15.232 -24.006  0.00  0.00    +0.024 C 
BRANCH   7   8
ATOM      8  C   UNL     1      33.083 -14.344 -22.915  0.00  0.00    -0.022 C 
ATOM      9  C   UNL     1      33.127 -14.776 -21.599  0.00  0.00    -0.001 C 
ATOM     10  C   UNL     1      32.548 -13.109 -23.249  0.00  0.00    -0.001 C 
ATOM     11  C   UNL     1      32.622 -13.955 -20.592  0.00  0.00    +0.036 C 
ATOM     12  C   UNL     1      32.042 -12.287 -22.241  0.00  0.00    +0.036 C 
ATOM     13  C   UNL     1      32.080 -12.710 -20.912  0.00  0.00    +0.134 C 
BRANCH  13  14
ATOM     14  O   UNL     1      31.589 -11.910 -19.927  0.00  0.00    -0.506 OA
ATOM     15  H   UNL     1      31.166 -12.289 -19.182  0.00  0.00    +0.292 HD
ENDBRANCH  13  14
ENDBRANCH   7   8
ENDBRANCH   6   7
ENDBRANCH   4   6
ENDBRANCH   1   4
BRANCH   1  16
ATOM     16  C   UNL     1      35.913 -18.609 -21.865  0.00  0.00    -0.077 C 
BRANCH  16  17
ATOM     17  C   UNL     1      34.557 -19.279 -21.638  0.00  0.00    +0.003 C 
BRANCH  17  18
ATOM     18  C   UNL     1      34.630 -20.316 -20.546  0.00  0.00    -0.021 C 
ATOM     19  C   UNL     1      33.456 -20.814 -20.000  0.00  0.00    +0.035 C 
ATOM     20  C   UNL     1      35.869 -20.752 -20.103  0.00  0.00    -0.001 C 
ATOM     21  C   UNL     1      33.524 -21.773 -18.989  0.00  0.00    +0.167 C 
ATOM     22  C   UNL     1      35.937 -21.710 -19.092  0.00  0.00    +0.039 C 
ATOM     23  C   UNL     1      34.763 -22.221 -18.534  0.00  0.00    +0.167 C 
BRANCH  21  24
ATOM     24  O   UNL     1      32.371 -22.264 -18.454  0.00  0.00    -0.503 OA
ATOM     25  H   UNL     1      31.700 -21.677 -18.168  0.00  0.00    +0.292 HD
ENDBRANCH  21  24
BRANCH  23  26
ATOM     26  O   UNL     1      34.843 -23.156 -17.548  0.00  0.00    -0.503 OA
ATOM     27  H   UNL     1      34.063 -23.562 -17.223  0.00  0.00    +0.292 HD
ENDBRANCH  23  26
ENDBRANCH  17  18
ENDBRANCH  16  17
ENDBRANCH   1  16
TORSDOF 10
ENDMDL
MODEL 4
REMARK VINA RESULT:      -9.0      6.082     10.556
REMARK  Name = 36811
REMARK  10 active torsions:
REMARK  status: ('A' for Active; 'I' for Inactive)
REMARK    1  A    between atoms: N_1  and  C_4
REMARK    2  A    between atoms: N_1  and  C_16
REMARK    3  A    between atoms: C_4  and  C_6
REMARK    4  A    between atoms: C_6  and  C_7
REMARK    5  A    between atoms: C_7  and  C_8
REMARK    6  A    between atoms: C_13  and  O_14
REMARK    7  A    between atoms: C_16  and  C_17
REMARK    8  A    between atoms: C_17  and  C_18
REMARK    9  A    between atoms: C_21  and  O_24
REMARK   10  A    between atoms: C_23  and  O_26
REMARK                            x       y       z     vdW  Elec       q    Type
REMARK                         _______ _______ _______ _____ _____    ______ ____
ROOT
ATOM      1  N   UNL     1      35.395 -16.602 -24.417  0.00  0.00    +0.385 N 
ATOM      2  H   UNL     1      35.030 -16.683 -25.366  0.00  0.00    -0.084 HD
ATOM      3  H   UNL     1      36.335 -16.205 -24.432  0.00  0.00    -0.084 HD
ENDROOT
BRANCH   1   4
ATOM      4  C   UNL     1      35.454 -17.931 -23.809  0.00  0.00    -0.062 C 
ATOM      5  C   UNL     1      34.451 -18.854 -24.501  0.00  0.00    -0.023 C 
BRANCH   4   6
ATOM      6  C   UNL     1      35.165 -17.858 -22.299  0.00  0.00    -0.017 C 
BRANCH   6   7
ATOM      7  C   UNL     1      35.977 -18.834 -21.435  0.00  0.00    +0.024 C 
BRANCH   7   8
ATOM      8  C   UNL     1      35.133 -19.840 -20.693  0.00  0.00    -0.022 C 
ATOM      9  C   UNL     1      33.752 -19.732 -20.733  0.00  0.00    -0.001 C 
ATOM     10  C   UNL     1      35.754 -20.857 -19.984  0.00  0.00    -0.001 C 
ATOM     11  C   UNL     1      32.972 -20.662 -20.047  0.00  0.00    +0.036 C 
ATOM     12  C   UNL     1      34.973 -21.788 -19.297  0.00  0.00    +0.036 C 
ATOM     13  C   UNL     1      33.582 -21.690 -19.329  0.00  0.00    +0.134 C 
BRANCH  13  14
ATOM     14  O   UNL     1      32.819 -22.597 -18.660  0.00  0.00    -0.506 OA
ATOM     15  H   UNL     1      32.059 -22.315 -18.190  0.00  0.00    +0.292 HD
ENDBRANCH  13  14
ENDBRANCH   7   8
ENDBRANCH   6   7
ENDBRANCH   4   6
ENDBRANCH   1   4
BRANCH   1  16
ATOM     16  C   UNL     1      34.530 -15.722 -23.647  0.00  0.00    -0.077 C 
BRANCH  16  17
ATOM     17  C   UNL     1      33.574 -14.955 -24.562  0.00  0.00    +0.003 C 
BRANCH  17  18
ATOM     18  C   UNL     1      33.254 -13.590 -24.007  0.00  0.00    -0.021 C 
ATOM     19  C   UNL     1      32.364 -13.476 -22.949  0.00  0.00    +0.035 C 
ATOM     20  C   UNL     1      33.852 -12.471 -24.565  0.00  0.00    -0.001 C 
ATOM     21  C   UNL     1      32.068 -12.213 -22.437  0.00  0.00    +0.167 C 
ATOM     22  C   UNL     1      33.555 -11.208 -24.054  0.00  0.00    +0.039 C 
ATOM     23  C   UNL     1      32.662 -11.079 -22.989  0.00  0.00    +0.167 C 
BRANCH  21  24
ATOM     24  O   UNL     1      31.195 -12.101 -21.397  0.00  0.00    -0.503 OA
ATOM     25  H   UNL     1      31.516 -11.981 -20.526  0.00  0.00    +0.292 HD
ENDBRANCH  21  24
BRANCH  23  26
ATOM     26  O   UNL     1      32.381  -9.840 -22.498  0.00  0.00    -0.503 OA
ATOM     27  H   UNL     1      32.903  -9.105 -22.754  0.00  0.00    +0.292 HD
ENDBRANCH  23  26
ENDBRANCH  17  18
ENDBRANCH  16  17
ENDBRANCH   1  16
TORSDOF 10
ENDMDL
MODEL 5
REMARK VINA RESULT:      -9.0      3.382      5.004
REMARK  Name = 36811
REMARK  10 active torsions:
REMARK  status: ('A' for Active; 'I' for Inactive)
REMARK    1  A    between atoms: N_1  and  C_4
REMARK    2  A    between atoms: N_1  and  C_16
REMARK    3  A    between atoms: C_4  and  C_6
REMARK    4  A    between atoms: C_6  and  C_7
REMARK    5  A    between atoms: C_7  and  C_8
REMARK    6  A    between atoms: C_13  and  O_14
REMARK    7  A    between atoms: C_16  and  C_17
REMARK    8  A    between atoms: C_17  and  C_18
REMARK    9  A    between atoms: C_21  and  O_24
REMARK   10  A    between atoms: C_23  and  O_26
REMARK                            x       y       z     vdW  Elec       q    Type
REMARK                         _______ _______ _______ _____ _____    ______ ____
ROOT
ATOM      1  N   UNL     1      33.085 -21.878 -19.444  0.00  0.00    +0.385 N 
ATOM      2  H   UNL     1      32.483 -22.365 -20.108  0.00  0.00    -0.084 HD
ATOM      3  H   UNL     1      32.602 -21.067 -19.058  0.00  0.00    -0.084 HD
ENDROOT
BRANCH   1   4
ATOM      4  C   UNL     1      34.293 -21.423 -20.133  0.00  0.00    -0.062 C 
ATOM      5  C   UNL     1      35.489 -21.522 -19.186  0.00  0.00    -0.023 C 
BRANCH   4   6
ATOM      6  C   UNL     1      34.125 -19.978 -20.638  0.00  0.00    -0.017 C 
BRANCH   6   7
ATOM      7  C   UNL     1      35.380 -19.364 -21.276  0.00  0.00    +0.024 C 
BRANCH   7   8
ATOM      8  C   UNL     1      35.101 -18.560 -22.522  0.00  0.00    -0.022 C 
ATOM      9  C   UNL     1      34.790 -19.218 -23.701  0.00  0.00    -0.001 C 
ATOM     10  C   UNL     1      35.161 -17.176 -22.465  0.00  0.00    -0.001 C 
ATOM     11  C   UNL     1      34.533 -18.474 -24.852  0.00  0.00    +0.036 C 
ATOM     12  C   UNL     1      34.904 -16.432 -23.616  0.00  0.00    +0.036 C 
ATOM     13  C   UNL     1      34.589 -17.081 -24.810  0.00  0.00    +0.134 C 
BRANCH  13  14
ATOM     14  O   UNL     1      34.337 -16.357 -25.934  0.00  0.00    -0.506 OA
ATOM     15  H   UNL     1      35.045 -15.965 -26.408  0.00  0.00    +0.292 HD
ENDBRANCH  13  14
ENDBRANCH   7   8
ENDBRANCH   6   7
ENDBRANCH   4   6
ENDBRANCH   1   4
BRANCH   1  16
ATOM     16  C   UNL     1      33.424 -22.782 -18.355  0.00  0.00    -0.077 C 
BRANCH  16  17
ATOM     17  C   UNL     1      32.332 -22.781 -17.284  0.00  0.00    +0.003 C 
BRANCH  17  18
ATOM     18  C   UNL     1      32.846 -23.319 -15.972  0.00  0.00    -0.021 C 
ATOM     19  C   UNL     1      31.963 -23.925 -15.091  0.00  0.00    +0.035 C 
ATOM     20  C   UNL     1      34.193 -23.195 -15.666  0.00  0.00    -0.001 C 
ATOM     21  C   UNL     1      32.439 -24.422 -13.877  0.00  0.00    +0.167 C 
ATOM     22  C   UNL     1      34.669 -23.690 -14.453  0.00  0.00    +0.039 C 
ATOM     23  C   UNL     1      33.791 -24.304 -13.558  0.00  0.00    +0.167 C 
BRANCH  21  24
ATOM     24  O   UNL     1      31.572 -25.019 -13.013  0.00  0.00    -0.503 OA
ATOM     25  H   UNL     1      31.758 -25.874 -12.678  0.00  0.00    +0.292 HD
ENDBRANCH  21  24
BRANCH  23  26
ATOM     26  O   UNL     1      34.268 -24.784 -12.376  0.00  0.00    -0.503 OA
ATOM     27  H   UNL     1      33.687 -24.904 -11.650  0.00  0.00    +0.292 HD
ENDBRANCH  23  26
ENDBRANCH  17  18
ENDBRANCH  16  17
ENDBRANCH   1  16
TORSDOF 10
ENDMDL
MODEL 6
REMARK VINA RESULT:      -9.0      5.874      9.053
REMARK  Name = 36811
REMARK  10 active torsions:
REMARK  status: ('A' for Active; 'I' for Inactive)
REMARK    1  A    between atoms: N_1  and  C_4
REMARK    2  A    between atoms: N_1  and  C_16
REMARK    3  A    between atoms: C_4  and  C_6
REMARK    4  A    between atoms: C_6  and  C_7
REMARK    5  A    between atoms: C_7  and  C_8
REMARK    6  A    between atoms: C_13  and  O_14
REMARK    7  A    between atoms: C_16  and  C_17
REMARK    8  A    between atoms: C_17  and  C_18
REMARK    9  A    between atoms: C_21  and  O_24
REMARK   10  A    between atoms: C_23  and  O_26
REMARK                            x       y       z     vdW  Elec       q    Type
REMARK                         _______ _______ _______ _____ _____    ______ ____
ROOT
ATOM      1  N   UNL     1      35.727 -17.247 -23.413  0.00  0.00    +0.385 N 
ATOM      2  H   UNL     1      36.029 -16.280 -23.532  0.00  0.00    -0.084 HD
ATOM      3  H   UNL     1      36.466 -17.886 -23.703  0.00  0.00    -0.084 HD
ENDROOT
BRANCH   1   4
ATOM      4  C   UNL     1      34.545 -17.487 -24.242  0.00  0.00    -0.062 C 
ATOM      5  C   UNL     1      34.499 -18.959 -24.651  0.00  0.00    -0.023 C 
BRANCH   4   6
ATOM      6  C   UNL     1      34.557 -16.583 -25.489  0.00  0.00    -0.017 C 
BRANCH   6   7
ATOM      7  C   UNL     1      33.289 -15.739 -25.689  0.00  0.00    +0.024 C 
BRANCH   7   8
ATOM      8  C   UNL     1      33.446 -14.295 -25.284  0.00  0.00    -0.022 C 
ATOM      9  C   UNL     1      33.488 -13.314 -26.262  0.00  0.00    -0.001 C 
ATOM     10  C   UNL     1      33.545 -13.972 -23.939  0.00  0.00    -0.001 C 
ATOM     11  C   UNL     1      33.635 -11.979 -25.888  0.00  0.00    +0.036 C 
ATOM     12  C   UNL     1      33.691 -12.637 -23.564  0.00  0.00    +0.036 C 
ATOM     13  C   UNL     1      33.735 -11.639 -24.539  0.00  0.00    +0.134 C 
BRANCH  13  14
ATOM     14  O   UNL     1      33.877 -10.336 -24.175  0.00  0.00    -0.506 OA
ATOM     15  H   UNL     1      33.429 -10.009 -23.420  0.00  0.00    +0.292 HD
ENDBRANCH  13  14
ENDBRANCH   7   8
ENDBRANCH   6   7
ENDBRANCH   4   6
ENDBRANCH   1   4
BRANCH   1  16
ATOM     16  C   UNL     1      35.427 -17.485 -22.010  0.00  0.00    -0.077 C 
BRANCH  16  17
ATOM     17  C   UNL     1      36.152 -18.731 -21.499  0.00  0.00    +0.003 C 
BRANCH  17  18
ATOM     18  C   UNL     1      35.205 -19.670 -20.794  0.00  0.00    -0.021 C 
ATOM     19  C   UNL     1      35.718 -20.695 -20.013  0.00  0.00    +0.035 C 
ATOM     20  C   UNL     1      33.838 -19.495 -20.942  0.00  0.00    -0.001 C 
ATOM     21  C   UNL     1      34.841 -21.564 -19.363  0.00  0.00    +0.167 C 
ATOM     22  C   UNL     1      32.962 -20.364 -20.293  0.00  0.00    +0.039 C 
ATOM     23  C   UNL     1      33.464 -21.400 -19.503  0.00  0.00    +0.167 C 
BRANCH  21  24
ATOM     24  O   UNL     1      35.344 -22.570 -18.595  0.00  0.00    -0.503 OA
ATOM     25  H   UNL     1      35.168 -23.463 -18.816  0.00  0.00    +0.292 HD
ENDBRANCH  21  24
BRANCH  23  26
ATOM     26  O   UNL     1      32.598 -22.242 -18.873  0.00  0.00    -0.503 OA
ATOM     27  H   UNL     1      32.362 -22.087 -17.979  0.00  0.00    +0.292 HD
ENDBRANCH  23  26
ENDBRANCH  17  18
ENDBRANCH  16  17
ENDBRANCH   1  16
TORSDOF 10
ENDMDL
MODEL 7
REMARK VINA RESULT:      -9.0      5.796      9.006
REMARK  Name = 36811
REMARK  10 active torsions:
REMARK  status: ('A' for Active; 'I' for Inactive)
REMARK    1  A    between atoms: N_1  and  C_4
REMARK    2  A    between atoms: N_1  and  C_16
REMARK    3  A    between atoms: C_4  and  C_6
REMARK    4  A    between atoms: C_6  and  C_7
REMARK    5  A    between atoms: C_7  and  C_8
REMARK    6  A    between atoms: C_13  and  O_14
REMARK    7  A    between atoms: C_16  and  C_17
REMARK    8  A    between atoms: C_17  and  C_18
REMARK    9  A    between atoms: C_21  and  O_24
REMARK   10  A    between atoms: C_23  and  O_26
REMARK                            x       y       z     vdW  Elec       q    Type
REMARK                         _______ _______ _______ _____ _____    ______ ____
ROOT
ATOM      1  N   UNL     1      35.676 -17.099 -23.699  0.00  0.00    +0.385 N 
ATOM      2  H   UNL     1      36.318 -16.574 -23.105  0.00  0.00    -0.084 HD
ATOM      3  H   UNL     1      36.006 -17.099 -24.664  0.00  0.00    -0.084 HD
ENDROOT
BRANCH   1   4
ATOM      4  C   UNL     1      34.356 -16.470 -23.653  0.00  0.00    -0.062 C 
ATOM      5  C   UNL     1      33.982 -15.966 -25.047  0.00  0.00    -0.023 C 
BRANCH   4   6
ATOM      6  C   UNL     1      34.334 -15.312 -22.638  0.00  0.00    -0.017 C 
BRANCH   6   7
ATOM      7  C   UNL     1      33.042 -15.195 -21.816  0.00  0.00    +0.024 C 
BRANCH   7   8
ATOM      8  C   UNL     1      32.565 -13.777 -21.628  0.00  0.00    -0.022 C 
ATOM      9  C   UNL     1      32.457 -12.943 -22.730  0.00  0.00    -0.001 C 
ATOM     10  C   UNL     1      32.241 -13.332 -20.355  0.00  0.00    -0.001 C 
ATOM     11  C   UNL     1      32.016 -11.632 -22.555  0.00  0.00    +0.036 C 
ATOM     12  C   UNL     1      31.800 -12.020 -20.180  0.00  0.00    +0.036 C 
ATOM     13  C   UNL     1      31.687 -11.170 -21.281  0.00  0.00    +0.134 C 
BRANCH  13  14
ATOM     14  O   UNL     1      31.256  -9.890 -21.112  0.00  0.00    -0.506 OA
ATOM     15  H   UNL     1      30.529  -9.710 -20.549  0.00  0.00    +0.292 HD
ENDBRANCH  13  14
ENDBRANCH   7   8
ENDBRANCH   6   7
ENDBRANCH   4   6
ENDBRANCH   1   4
BRANCH   1  16
ATOM     16  C   UNL     1      35.608 -18.474 -23.230  0.00  0.00    -0.077 C 
BRANCH  16  17
ATOM     17  C   UNL     1      36.020 -18.573 -21.761  0.00  0.00    +0.003 C 
BRANCH  17  18
ATOM     18  C   UNL     1      35.126 -19.520 -20.999  0.00  0.00    -0.021 C 
ATOM     19  C   UNL     1      35.696 -20.537 -20.248  0.00  0.00    +0.035 C 
ATOM     20  C   UNL     1      33.751 -19.360 -21.065  0.00  0.00    -0.001 C 
ATOM     21  C   UNL     1      34.869 -21.414 -19.544  0.00  0.00    +0.167 C 
ATOM     22  C   UNL     1      32.925 -20.236 -20.363  0.00  0.00    +0.039 C 
ATOM     23  C   UNL     1      33.484 -21.264 -19.602  0.00  0.00    +0.167 C 
BRANCH  21  24
ATOM     24  O   UNL     1      35.428 -22.412 -18.805  0.00  0.00    -0.503 OA
ATOM     25  H   UNL     1      35.294 -23.307 -19.049  0.00  0.00    +0.292 HD
ENDBRANCH  21  24
BRANCH  23  26
ATOM     26  O   UNL     1      32.666 -22.113 -18.920  0.00  0.00    -0.503 OA
ATOM     27  H   UNL     1      32.028 -21.771 -18.325  0.00  0.00    +0.292 HD
ENDBRANCH  23  26
ENDBRANCH  17  18
ENDBRANCH  16  17
ENDBRANCH   1  16
TORSDOF 10
ENDMDL
MODEL 8
REMARK VINA RESULT:      -9.0      6.271      9.246
REMARK  Name = 36811
REMARK  10 active torsions:
REMARK  status: ('A' for Active; 'I' for Inactive)
REMARK    1  A    between atoms: N_1  and  C_4
REMARK    2  A    between atoms: N_1  and  C_16
REMARK    3  A    between atoms: C_4  and  C_6
REMARK    4  A    between atoms: C_6  and  C_7
REMARK    5  A    between atoms: C_7  and  C_8
REMARK    6  A    between atoms: C_13  and  O_14
REMARK    7  A    between atoms: C_16  and  C_17
REMARK    8  A    between atoms: C_17  and  C_18
REMARK    9  A    between atoms: C_21  and  O_24
REMARK   10  A    between atoms: C_23  and  O_26
REMARK                            x       y       z     vdW  Elec       q    Type
REMARK                         _______ _______ _______ _____ _____    ______ ____
ROOT
ATOM      1  N   UNL     1      35.017 -16.358 -20.855  0.00  0.00    +0.385 N 
ATOM      2  H   UNL     1      34.677 -16.835 -20.020  0.00  0.00    -0.084 HD
ATOM      3  H   UNL     1      35.998 -16.104 -20.743  0.00  0.00    -0.084 HD
ENDROOT
BRANCH   1   4
ATOM      4  C   UNL     1      34.236 -15.138 -21.064  0.00  0.00    -0.062 C 
ATOM      5  C   UNL     1      32.772 -15.402 -20.711  0.00  0.00    -0.023 C 
BRANCH   4   6
ATOM      6  C   UNL     1      34.359 -14.650 -22.519  0.00  0.00    -0.017 C 
BRANCH   6   7
ATOM      7  C   UNL     1      33.047 -14.163 -23.152  0.00  0.00    +0.024 C 
BRANCH   7   8
ATOM      8  C   UNL     1      32.896 -12.663 -23.168  0.00  0.00    -0.022 C 
ATOM      9  C   UNL     1      31.979 -12.062 -22.320  0.00  0.00    -0.001 C 
ATOM     10  C   UNL     1      33.678 -11.910 -24.030  0.00  0.00    -0.001 C 
ATOM     11  C   UNL     1      31.839 -10.674 -22.335  0.00  0.00    +0.036 C 
ATOM     12  C   UNL     1      33.539 -10.521 -24.046  0.00  0.00    +0.036 C 
ATOM     13  C   UNL     1      32.619  -9.904 -23.197  0.00  0.00    +0.134 C 
BRANCH  13  14
ATOM     14  O   UNL     1      32.482  -8.550 -23.211  0.00  0.00    -0.506 OA
ATOM     15  H   UNL     1      32.391  -8.096 -24.025  0.00  0.00    +0.292 HD
ENDBRANCH  13  14
ENDBRANCH   7   8
ENDBRANCH   6   7
ENDBRANCH   4   6
ENDBRANCH   1   4
BRANCH   1  16
ATOM     16  C   UNL     1      34.893 -17.249 -21.998  0.00  0.00    -0.077 C 
BRANCH  16  17
ATOM     17  C   UNL     1      35.703 -18.529 -21.784  0.00  0.00    +0.003 C 
BRANCH  17  18
ATOM     18  C   UNL     1      34.930 -19.543 -20.978  0.00  0.00    -0.021 C 
ATOM     19  C   UNL     1      35.618 -20.488 -20.231  0.00  0.00    +0.035 C 
ATOM     20  C   UNL     1      33.544 -19.516 -21.000  0.00  0.00    -0.001 C 
ATOM     21  C   UNL     1      34.902 -21.426 -19.487  0.00  0.00    +0.167 C 
ATOM     22  C   UNL     1      32.829 -20.455 -20.257  0.00  0.00    +0.039 C 
ATOM     23  C   UNL     1      33.508 -21.410 -19.500  0.00  0.00    +0.167 C 
BRANCH  21  24
ATOM     24  O   UNL     1      35.577 -22.353 -18.752  0.00  0.00    -0.503 OA
ATOM     25  H   UNL     1      35.340 -23.257 -18.805  0.00  0.00    +0.292 HD
ENDBRANCH  21  24
BRANCH  23  26
ATOM     26  O   UNL     1      32.798 -22.321 -18.778  0.00  0.00    -0.503 OA
ATOM     27  H   UNL     1      32.165 -22.866 -19.204  0.00  0.00    +0.292 HD
ENDBRANCH  23  26
ENDBRANCH  17  18
ENDBRANCH  16  17
ENDBRANCH   1  16
TORSDOF 10
ENDMDL
MODEL 9
REMARK VINA RESULT:      -9.0      3.269      4.920
REMARK  Name = 36811
REMARK  10 active torsions:
REMARK  status: ('A' for Active; 'I' for Inactive)
REMARK    1  A    between atoms: N_1  and  C_4
REMARK    2  A    between atoms: N_1  and  C_16
REMARK    3  A    between atoms: C_4  and  C_6
REMARK    4  A    between atoms: C_6  and  C_7
REMARK    5  A    between atoms: C_7  and  C_8
REMARK    6  A    between atoms: C_13  and  O_14
REMARK    7  A    between atoms: C_16  and  C_17
REMARK    8  A    between atoms: C_17  and  C_18
REMARK    9  A    between atoms: C_21  and  O_24
REMARK   10  A    between atoms: C_23  and  O_26
REMARK                            x       y       z     vdW  Elec       q    Type
REMARK                         _______ _______ _______ _____ _____    ______ ____
ROOT
ATOM      1  N   UNL     1      34.643 -22.330 -19.575  0.00  0.00    +0.385 N 
ATOM      2  H   UNL     1      35.607 -22.546 -19.323  0.00  0.00    -0.084 HD
ATOM      3  H   UNL     1      34.391 -22.798 -20.446  0.00  0.00    -0.084 HD
ENDROOT
BRANCH   1   4
ATOM      4  C   UNL     1      34.506 -20.885 -19.761  0.00  0.00    -0.062 C 
ATOM      5  C   UNL     1      33.056 -20.550 -20.111  0.00  0.00    -0.023 C 
BRANCH   4   6
ATOM      6  C   UNL     1      35.456 -20.381 -20.864  0.00  0.00    -0.017 C 
BRANCH   6   7
ATOM      7  C   UNL     1      35.608 -18.855 -20.941  0.00  0.00    +0.024 C 
BRANCH   7   8
ATOM      8  C   UNL     1      35.252 -18.273 -22.287  0.00  0.00    -0.022 C 
ATOM      9  C   UNL     1      34.905 -19.123 -23.326  0.00  0.00    -0.001 C 
ATOM     10  C   UNL     1      35.278 -16.898 -22.461  0.00  0.00    -0.001 C 
ATOM     11  C   UNL     1      34.578 -18.585 -24.570  0.00  0.00    +0.036 C 
ATOM     12  C   UNL     1      34.951 -16.359 -23.706  0.00  0.00    +0.036 C 
ATOM     13  C   UNL     1      34.599 -17.203 -24.760  0.00  0.00    +0.134 C 
BRANCH  13  14
ATOM     14  O   UNL     1      34.279 -16.680 -25.974  0.00  0.00    -0.506 OA
ATOM     15  H   UNL     1      34.956 -16.449 -26.579  0.00  0.00    +0.292 HD
ENDBRANCH  13  14
ENDBRANCH   7   8
ENDBRANCH   6   7
ENDBRANCH   4   6
ENDBRANCH   1   4
BRANCH   1  16
ATOM     16  C   UNL     1      33.757 -22.799 -18.521  0.00  0.00    -0.077 C 
BRANCH  16  17
ATOM     17  C   UNL     1      34.484 -22.848 -17.176  0.00  0.00    +0.003 C 
BRANCH  17  18
ATOM     18  C   UNL     1      33.579 -23.345 -16.077  0.00  0.00    -0.021 C 
ATOM     19  C   UNL     1      34.136 -23.819 -14.899  0.00  0.00    +0.035 C 
ATOM     20  C   UNL     1      32.206 -23.322 -16.264  0.00  0.00    -0.001 C 
ATOM     21  C   UNL     1      33.298 -24.279 -13.882  0.00  0.00    +0.167 C 
ATOM     22  C   UNL     1      31.369 -23.783 -15.249  0.00  0.00    +0.039 C 
ATOM     23  C   UNL     1      31.915 -24.263 -14.057  0.00  0.00    +0.167 C 
BRANCH  21  24
ATOM     24  O   UNL     1      33.845 -24.744 -12.724  0.00  0.00    -0.503 OA
ATOM     25  H   UNL     1      34.296 -25.565 -12.715  0.00  0.00    +0.292 HD
ENDBRANCH  21  24
BRANCH  23  26
ATOM     26  O   UNL     1      31.087 -24.709 -13.072  0.00  0.00    -0.503 OA
ATOM     27  H   UNL     1      30.210 -24.385 -13.016  0.00  0.00    +0.292 HD
ENDBRANCH  23  26
ENDBRANCH  17  18
ENDBRANCH  16  17
ENDBRANCH   1  16
TORSDOF 10
ENDMDL
