MODEL 1
REMARK VINA RESULT:      -8.5      0.000      0.000
REMARK  Name = 21307
REMARK  2 active torsions:
REMARK  status: ('A' for Active; 'I' for Inactive)
REMARK    1  A    between atoms: N_2  and  C_12
REMARK    2  A    between atoms: C_3  and  C_9
REMARK                            x       y       z     vdW  Elec       q    Type
REMARK                         _______ _______ _______ _____ _____    ______ ____
ROOT
ATOM      1  O   UNL     1      35.300 -16.640 -20.270  0.00  0.00    -0.269 OA
ATOM      2  N   UNL     1      33.973 -18.167 -21.475  0.00  0.00    -0.280 N 
ATOM      3  C   UNL     1      34.497 -16.923 -21.155  0.00  0.00    +0.258 C 
ATOM      4  H   UNL     1      33.337 -18.192 -22.226  0.00  0.00    +0.155 HD
ENDROOT
BRANCH   3   9
ATOM      5  S   UNL     1      34.707 -15.828 -23.601  0.00  0.00    -0.103 S 
ATOM      6  O   UNL     1      32.447 -14.021 -22.395  0.00  0.00    -0.478 OA
ATOM      7  C   UNL     1      34.077 -14.239 -24.190  0.00  0.00    +0.110 C 
ATOM      8  C   UNL     1      32.615 -14.142 -23.807  0.00  0.00    +0.217 C 
ATOM      9  C   UNL     1      33.978 -15.863 -22.032  0.00  0.00    +0.109 C 
ATOM     10  C   UNL     1      33.016 -15.014 -21.616  0.00  0.00    +0.126 C 
ATOM     11  C   UNL     1      32.447 -15.008 -20.223  0.00  0.00    +0.073 C 
ENDBRANCH   3   9
BRANCH   2  12
ATOM     12  C   UNL     1      34.247 -19.405 -20.846  0.00  0.00    +0.051 C 
ATOM     13  C   UNL     1      35.554 -19.857 -20.782  0.00  0.00    +0.015 C 
ATOM     14  C   UNL     1      33.202 -20.137 -20.307  0.00  0.00    +0.015 C 
ATOM     15  C   UNL     1      35.823 -21.077 -20.160  0.00  0.00    +0.001 C 
ATOM     16  C   UNL     1      33.471 -21.356 -19.686  0.00  0.00    +0.001 C 
ATOM     17  C   UNL     1      34.783 -21.826 -19.612  0.00  0.00    +0.000 C 
ENDBRANCH   2  12
TORSDOF 2
ENDMDL
MODEL 2
REMARK VINA RESULT:      -8.5      1.302      2.208
REMARK  Name = 21307
REMARK  2 active torsions:
REMARK  status: ('A' for Active; 'I' for Inactive)
REMARK    1  A    between atoms: N_2  and  C_12
REMARK    2  A    between atoms: C_3  and  C_9
REMARK                            x       y       z     vdW  Elec       q    Type
REMARK                         _______ _______ _______ _____ _____    ______ ____
ROOT
ATOM      1  O   UNL     1      35.288 -16.693 -20.321  0.00  0.00    -0.269 OA
ATOM      2  N   UNL     1      34.011 -18.254 -21.536  0.00  0.00    -0.280 N 
ATOM      3  C   UNL     1      34.528 -17.002 -21.234  0.00  0.00    +0.258 C 
ATOM      4  H   UNL     1      33.413 -18.302 -22.317  0.00  0.00    +0.155 HD
ENDROOT
BRANCH   3   9
ATOM      5  S   UNL     1      33.173 -14.689 -21.425  0.00  0.00    -0.103 S 
ATOM      6  O   UNL     1      33.956 -15.102 -24.432  0.00  0.00    -0.478 OA
ATOM      7  C   UNL     1      32.512 -13.880 -22.900  0.00  0.00    +0.110 C 
ATOM      8  C   UNL     1      33.617 -13.808 -23.933  0.00  0.00    +0.217 C 
ATOM      9  C   UNL     1      34.060 -15.972 -22.173  0.00  0.00    +0.109 C 
ATOM     10  C   UNL     1      34.323 -16.052 -23.494  0.00  0.00    +0.126 C 
ATOM     11  C   UNL     1      35.030 -17.213 -24.140  0.00  0.00    +0.073 C 
ENDBRANCH   3   9
BRANCH   2  12
ATOM     12  C   UNL     1      34.245 -19.471 -20.851  0.00  0.00    +0.051 C 
ATOM     13  C   UNL     1      33.173 -20.155 -20.303  0.00  0.00    +0.015 C 
ATOM     14  C   UNL     1      35.539 -19.951 -20.745  0.00  0.00    +0.015 C 
ATOM     15  C   UNL     1      33.404 -21.356 -19.629  0.00  0.00    +0.001 C 
ATOM     16  C   UNL     1      35.770 -21.150 -20.072  0.00  0.00    +0.001 C 
ATOM     17  C   UNL     1      34.702 -21.852 -19.513  0.00  0.00    +0.000 C 
ENDBRANCH   2  12
TORSDOF 2
ENDMDL
MODEL 3
REMARK VINA RESULT:      -8.5      1.302      1.848
REMARK  Name = 21307
REMARK  2 active torsions:
REMARK  status: ('A' for Active; 'I' for Inactive)
REMARK    1  A    between atoms: N_2  and  C_12
REMARK    2  A    between atoms: C_3  and  C_9
REMARK                            x       y       z     vdW  Elec       q    Type
REMARK                         _______ _______ _______ _____ _____    ______ ____
ROOT
ATOM      1  O   UNL     1      35.294 -16.694 -20.316  0.00  0.00    -0.269 OA
ATOM      2  N   UNL     1      34.017 -18.256 -21.531  0.00  0.00    -0.280 N 
ATOM      3  C   UNL     1      34.533 -17.003 -21.228  0.00  0.00    +0.258 C 
ATOM      4  H   UNL     1      33.418 -18.303 -22.310  0.00  0.00    +0.155 HD
ENDROOT
BRANCH   3   9
ATOM      5  S   UNL     1      33.167 -14.696 -21.414  0.00  0.00    -0.103 S 
ATOM      6  O   UNL     1      33.958 -15.095 -24.420  0.00  0.00    -0.478 OA
ATOM      7  C   UNL     1      32.505 -13.885 -22.887  0.00  0.00    +0.110 C 
ATOM      8  C   UNL     1      33.612 -13.805 -23.917  0.00  0.00    +0.217 C 
ATOM      9  C   UNL     1      34.062 -15.972 -22.164  0.00  0.00    +0.109 C 
ATOM     10  C   UNL     1      34.328 -16.046 -23.485  0.00  0.00    +0.126 C 
ATOM     11  C   UNL     1      35.042 -17.201 -24.133  0.00  0.00    +0.073 C 
ENDBRANCH   3   9
BRANCH   2  12
ATOM     12  C   UNL     1      34.254 -19.473 -20.848  0.00  0.00    +0.051 C 
ATOM     13  C   UNL     1      35.551 -19.945 -20.736  0.00  0.00    +0.015 C 
ATOM     14  C   UNL     1      33.184 -20.164 -20.306  0.00  0.00    +0.015 C 
ATOM     15  C   UNL     1      35.783 -21.145 -20.061  0.00  0.00    +0.001 C 
ATOM     16  C   UNL     1      33.416 -21.363 -19.632  0.00  0.00    +0.001 C 
ATOM     17  C   UNL     1      34.717 -21.853 -19.510  0.00  0.00    +0.000 C 
ENDBRANCH   2  12
TORSDOF 2
ENDMDL
MODEL 4
REMARK VINA RESULT:      -7.8      4.468      8.203
REMARK  Name = 21307
REMARK  2 active torsions:
REMARK  status: ('A' for Active; 'I' for Inactive)
REMARK    1  A    between atoms: N_2  and  C_12
REMARK    2  A    between atoms: C_3  and  C_9
REMARK                            x       y       z     vdW  Elec       q    Type
REMARK                         _______ _______ _______ _____ _____    ______ ____
ROOT
ATOM      1  O   UNL     1      32.180 -13.080 -23.166  0.00  0.00    -0.269 OA
ATOM      2  N   UNL     1      34.051 -12.115 -24.222  0.00  0.00    -0.280 N 
ATOM      3  C   UNL     1      33.211 -13.147 -23.830  0.00  0.00    +0.258 C 
ATOM      4  H   UNL     1      34.837 -12.371 -24.758  0.00  0.00    +0.155 HD
ENDROOT
BRANCH   3   9
ATOM      5  S   UNL     1      34.505 -15.392 -23.113  0.00  0.00    -0.103 S 
ATOM      6  O   UNL     1      33.841 -16.084 -26.097  0.00  0.00    -0.478 OA
ATOM      7  C   UNL     1      35.194 -16.689 -24.166  0.00  0.00    +0.110 C 
ATOM      8  C   UNL     1      34.125 -17.114 -25.150  0.00  0.00    +0.217 C 
ATOM      9  C   UNL     1      33.682 -14.454 -24.312  0.00  0.00    +0.109 C 
ATOM     10  C   UNL     1      33.469 -14.855 -25.582  0.00  0.00    +0.126 C 
ATOM     11  C   UNL     1      32.819 -13.997 -26.635  0.00  0.00    +0.073 C 
ENDBRANCH   3   9
BRANCH   2  12
ATOM     12  C   UNL     1      33.910 -10.735 -23.940  0.00  0.00    +0.051 C 
ATOM     13  C   UNL     1      32.794 -10.297 -23.248  0.00  0.00    +0.015 C 
ATOM     14  C   UNL     1      34.891  -9.854 -24.361  0.00  0.00    +0.015 C 
ATOM     15  C   UNL     1      32.656  -8.936 -22.969  0.00  0.00    +0.001 C 
ATOM     16  C   UNL     1      34.753  -8.494 -24.083  0.00  0.00    +0.001 C 
ATOM     17  C   UNL     1      33.634  -8.035 -23.386  0.00  0.00    +0.000 C 
ENDBRANCH   2  12
TORSDOF 2
ENDMDL
MODEL 5
REMARK VINA RESULT:      -7.6      3.801      6.686
REMARK  Name = 21307
REMARK  2 active torsions:
REMARK  status: ('A' for Active; 'I' for Inactive)
REMARK    1  A    between atoms: N_2  and  C_12
REMARK    2  A    between atoms: C_3  and  C_9
REMARK                            x       y       z     vdW  Elec       q    Type
REMARK                         _______ _______ _______ _____ _____    ______ ____
ROOT
ATOM      1  O   UNL     1      34.134 -13.056 -24.142  0.00  0.00    -0.269 OA
ATOM      2  N   UNL     1      32.729 -14.079 -22.553  0.00  0.00    -0.280 N 
ATOM      3  C   UNL     1      33.626 -14.040 -23.611  0.00  0.00    +0.258 C 
ATOM      4  H   UNL     1      32.434 -14.973 -22.265  0.00  0.00    +0.155 HD
ENDROOT
BRANCH   3   9
ATOM      5  S   UNL     1      34.774 -16.375 -22.935  0.00  0.00    -0.103 S 
ATOM      6  O   UNL     1      33.890 -17.040 -25.868  0.00  0.00    -0.478 OA
ATOM      7  C   UNL     1      35.297 -17.734 -24.006  0.00  0.00    +0.110 C 
ATOM      8  C   UNL     1      34.143 -18.080 -24.924  0.00  0.00    +0.217 C 
ATOM      9  C   UNL     1      33.963 -15.385 -24.099  0.00  0.00    +0.109 C 
ATOM     10  C   UNL     1      33.647 -15.779 -25.351  0.00  0.00    +0.126 C 
ATOM     11  C   UNL     1      33.010 -14.882 -26.377  0.00  0.00    +0.073 C 
ENDBRANCH   3   9
BRANCH   2  12
ATOM     12  C   UNL     1      32.189 -12.982 -21.840  0.00  0.00    +0.051 C 
ATOM     13  C   UNL     1      31.634 -11.926 -22.543  0.00  0.00    +0.015 C 
ATOM     14  C   UNL     1      32.226 -12.989 -20.456  0.00  0.00    +0.015 C 
ATOM     15  C   UNL     1      31.100 -10.845 -21.840  0.00  0.00    +0.001 C 
ATOM     16  C   UNL     1      31.693 -11.909 -19.753  0.00  0.00    +0.001 C 
ATOM     17  C   UNL     1      31.130 -10.836 -20.446  0.00  0.00    +0.000 C 
ENDBRANCH   2  12
TORSDOF 2
ENDMDL
MODEL 6
REMARK VINA RESULT:      -7.6      2.207      6.223
REMARK  Name = 21307
REMARK  2 active torsions:
REMARK  status: ('A' for Active; 'I' for Inactive)
REMARK    1  A    between atoms: N_2  and  C_12
REMARK    2  A    between atoms: C_3  and  C_9
REMARK                            x       y       z     vdW  Elec       q    Type
REMARK                         _______ _______ _______ _____ _____    ______ ____
ROOT
ATOM      1  O   UNL     1      34.564 -18.553 -23.044  0.00  0.00    -0.269 OA
ATOM      2  N   UNL     1      34.349 -17.252 -21.093  0.00  0.00    -0.280 N 
ATOM      3  C   UNL     1      34.628 -18.396 -21.827  0.00  0.00    +0.258 C 
ATOM      4  H   UNL     1      34.461 -17.323 -20.117  0.00  0.00    +0.155 HD
ENDROOT
BRANCH   3   9
ATOM      5  S   UNL     1      36.758 -19.626 -20.744  0.00  0.00    -0.103 S 
ATOM      6  O   UNL     1      34.458 -21.402 -19.571  0.00  0.00    -0.478 OA
ATOM      7  C   UNL     1      36.855 -21.258 -19.972  0.00  0.00    +0.110 C 
ATOM      8  C   UNL     1      35.743 -21.360 -18.950  0.00  0.00    +0.217 C 
ATOM      9  C   UNL     1      35.047 -19.514 -20.970  0.00  0.00    +0.109 C 
ATOM     10  C   UNL     1      34.146 -20.356 -20.422  0.00  0.00    +0.126 C 
ATOM     11  C   UNL     1      32.667 -20.292 -20.689  0.00  0.00    +0.073 C 
ENDBRANCH   3   9
BRANCH   2  12
ATOM     12  C   UNL     1      33.922 -15.995 -21.584  0.00  0.00    +0.051 C 
ATOM     13  C   UNL     1      32.808 -15.393 -21.025  0.00  0.00    +0.015 C 
ATOM     14  C   UNL     1      34.628 -15.395 -22.613  0.00  0.00    +0.015 C 
ATOM     15  C   UNL     1      32.388 -14.153 -21.509  0.00  0.00    +0.001 C 
ATOM     16  C   UNL     1      34.209 -14.156 -23.097  0.00  0.00    +0.001 C 
ATOM     17  C   UNL     1      33.088 -13.535 -22.545  0.00  0.00    +0.000 C 
ENDBRANCH   2  12
TORSDOF 2
ENDMDL
MODEL 7
REMARK VINA RESULT:      -7.6      9.566     11.165
REMARK  Name = 21307
REMARK  2 active torsions:
REMARK  status: ('A' for Active; 'I' for Inactive)
REMARK    1  A    between atoms: N_2  and  C_12
REMARK    2  A    between atoms: C_3  and  C_9
REMARK                            x       y       z     vdW  Elec       q    Type
REMARK                         _______ _______ _______ _____ _____    ______ ____
ROOT
ATOM      1  O   UNL     1      34.791 -23.766 -12.209  0.00  0.00    -0.269 OA
ATOM      2  N   UNL     1      34.224 -24.386 -14.409  0.00  0.00    -0.280 N 
ATOM      3  C   UNL     1      35.074 -24.169 -13.334  0.00  0.00    +0.258 C 
ATOM      4  H   UNL     1      34.643 -24.715 -15.237  0.00  0.00    +0.155 HD
ENDROOT
BRANCH   3   9
ATOM      5  S   UNL     1      37.127 -25.804 -12.753  0.00  0.00    -0.103 S 
ATOM      6  O   UNL     1      38.448 -24.058 -14.995  0.00  0.00    -0.478 OA
ATOM      7  C   UNL     1      38.873 -25.630 -13.186  0.00  0.00    +0.110 C 
ATOM      8  C   UNL     1      38.964 -25.349 -14.671  0.00  0.00    +0.217 C 
ATOM      9  C   UNL     1      36.471 -24.487 -13.663  0.00  0.00    +0.109 C 
ATOM     10  C   UNL     1      37.149 -23.792 -14.600  0.00  0.00    +0.126 C 
ATOM     11  C   UNL     1      36.590 -22.600 -15.328  0.00  0.00    +0.073 C 
ENDBRANCH   3   9
BRANCH   2  12
ATOM     12  C   UNL     1      32.822 -24.187 -14.453  0.00  0.00    +0.051 C 
ATOM     13  C   UNL     1      32.314 -23.105 -15.150  0.00  0.00    +0.015 C 
ATOM     14  C   UNL     1      31.991 -25.081 -13.799  0.00  0.00    +0.015 C 
ATOM     15  C   UNL     1      30.932 -22.911 -15.194  0.00  0.00    +0.001 C 
ATOM     16  C   UNL     1      30.611 -24.887 -13.844  0.00  0.00    +0.001 C 
ATOM     17  C   UNL     1      30.081 -23.801 -14.541  0.00  0.00    +0.000 C 
ENDBRANCH   2  12
TORSDOF 2
ENDMDL
MODEL 8
REMARK VINA RESULT:      -7.5      9.496     11.600
REMARK  Name = 21307
REMARK  2 active torsions:
REMARK  status: ('A' for Active; 'I' for Inactive)
REMARK    1  A    between atoms: N_2  and  C_12
REMARK    2  A    between atoms: C_3  and  C_9
REMARK                            x       y       z     vdW  Elec       q    Type
REMARK                         _______ _______ _______ _____ _____    ______ ____
ROOT
ATOM      1  O   UNL     1      35.061 -24.263 -15.922  0.00  0.00    -0.269 OA
ATOM      2  N   UNL     1      33.869 -24.533 -13.909  0.00  0.00    -0.280 N 
ATOM      3  C   UNL     1      34.994 -24.511 -14.721  0.00  0.00    +0.258 C 
ATOM      4  H   UNL     1      34.019 -24.754 -12.961  0.00  0.00    +0.155 HD
ENDROOT
BRANCH   3   9
ATOM      5  S   UNL     1      36.598 -23.703 -12.721  0.00  0.00    -0.103 S 
ATOM      6  O   UNL     1      38.093 -26.318 -13.586  0.00  0.00    -0.478 OA
ATOM      7  C   UNL     1      38.276 -24.245 -12.323  0.00  0.00    +0.110 C 
ATOM      8  C   UNL     1      38.284 -25.759 -12.287  0.00  0.00    +0.217 C 
ATOM      9  C   UNL     1      36.219 -24.833 -13.975  0.00  0.00    +0.109 C 
ATOM     10  C   UNL     1      36.955 -25.925 -14.269  0.00  0.00    +0.126 C 
ATOM     11  C   UNL     1      36.655 -26.856 -15.412  0.00  0.00    +0.073 C 
ENDBRANCH   3   9
BRANCH   2  12
ATOM     12  C   UNL     1      32.529 -24.273 -14.286  0.00  0.00    +0.051 C 
ATOM     13  C   UNL     1      31.536 -25.163 -13.913  0.00  0.00    +0.015 C 
ATOM     14  C   UNL     1      32.240 -23.135 -15.019  0.00  0.00    +0.015 C 
ATOM     15  C   UNL     1      30.216 -24.906 -14.283  0.00  0.00    +0.001 C 
ATOM     16  C   UNL     1      30.920 -22.878 -15.389  0.00  0.00    +0.001 C 
ATOM     17  C   UNL     1      29.908 -23.764 -15.022  0.00  0.00    +0.000 C 
ENDBRANCH   2  12
TORSDOF 2
ENDMDL
MODEL 9
REMARK VINA RESULT:      -7.5      7.276     10.301
REMARK  Name = 21307
REMARK  2 active torsions:
REMARK  status: ('A' for Active; 'I' for Inactive)
REMARK    1  A    between atoms: N_2  and  C_12
REMARK    2  A    between atoms: C_3  and  C_9
REMARK                            x       y       z     vdW  Elec       q    Type
REMARK                         _______ _______ _______ _____ _____    ______ ____
ROOT
ATOM      1  O   UNL     1      35.545 -25.165 -15.932  0.00  0.00    -0.269 OA
ATOM      2  N   UNL     1      35.726 -22.821 -15.803  0.00  0.00    -0.280 N 
ATOM      3  C   UNL     1      35.708 -24.118 -15.311  0.00  0.00    +0.258 C 
ATOM      4  H   UNL     1      35.873 -22.106 -15.142  0.00  0.00    +0.155 HD
ENDROOT
BRANCH   3   9
ATOM      5  S   UNL     1      37.583 -24.207 -13.388  0.00  0.00    -0.103 S 
ATOM      6  O   UNL     1      34.999 -24.150 -11.616  0.00  0.00    -0.478 OA
ATOM      7  C   UNL     1      37.391 -24.598 -11.634  0.00  0.00    +0.110 C 
ATOM      8  C   UNL     1      36.262 -23.753 -11.084  0.00  0.00    +0.217 C 
ATOM      9  C   UNL     1      35.919 -24.160 -13.857  0.00  0.00    +0.109 C 
ATOM     10  C   UNL     1      34.881 -24.157 -12.995  0.00  0.00    +0.126 C 
ATOM     11  C   UNL     1      33.437 -24.193 -13.419  0.00  0.00    +0.073 C 
ENDBRANCH   3   9
BRANCH   2  12
ATOM     12  C   UNL     1      35.558 -22.406 -17.146  0.00  0.00    +0.051 C 
ATOM     13  C   UNL     1      34.346 -22.631 -17.777  0.00  0.00    +0.015 C 
ATOM     14  C   UNL     1      36.608 -21.784 -17.800  0.00  0.00    +0.015 C 
ATOM     15  C   UNL     1      34.180 -22.220 -19.101  0.00  0.00    +0.001 C 
ATOM     16  C   UNL     1      36.442 -21.374 -19.123  0.00  0.00    +0.001 C 
ATOM     17  C   UNL     1      35.227 -21.593 -19.773  0.00  0.00    +0.000 C 
ENDBRANCH   2  12
TORSDOF 2
ENDMDL
