MODEL 1
REMARK VINA RESULT:      -9.4      0.000      0.000
REMARK  Name = 4976
REMARK  4 active torsions:
REMARK  status: ('A' for Active; 'I' for Inactive)
REMARK    1  A    between atoms: C_1  and  C_16
REMARK    2  A    between atoms: C_16  and  C_17
REMARK    3  A    between atoms: C_17  and  C_18
REMARK    4  A    between atoms: C_18  and  N_19
REMARK                            x       y       z     vdW  Elec       q    Type
REMARK                         _______ _______ _______ _____ _____    ______ ____
ROOT
ATOM      1  C   UNL     1      35.239 -18.630 -21.657  0.00  0.00    +0.044 C 
ATOM      2  C   UNL     1      34.394 -17.446 -21.211  0.00  0.00    -0.018 C 
ATOM      3  C   UNL     1      35.218 -19.794 -20.678  0.00  0.00    -0.018 C 
ATOM      4  C   UNL     1      33.021 -17.548 -20.913  0.00  0.00    -0.004 C 
ATOM      5  C   UNL     1      34.031 -20.427 -20.258  0.00  0.00    -0.004 C 
ATOM      6  C   UNL     1      35.016 -16.185 -21.118  0.00  0.00    -0.004 C 
ATOM      7  C   UNL     1      36.450 -20.272 -20.189  0.00  0.00    -0.004 C 
ATOM      8  C   UNL     1      32.257 -18.801 -20.997  0.00  0.00    -0.000 C 
ATOM      9  C   UNL     1      32.690 -20.038 -20.716  0.00  0.00    -0.000 C 
ATOM     10  C   UNL     1      32.308 -16.390 -20.553  0.00  0.00    -0.000 C 
ATOM     11  C   UNL     1      34.110 -21.527 -19.385  0.00  0.00    -0.000 C 
ATOM     12  C   UNL     1      34.297 -15.049 -20.745  0.00  0.00    -0.000 C 
ATOM     13  C   UNL     1      36.510 -21.353 -19.311  0.00  0.00    -0.000 C 
ATOM     14  C   UNL     1      32.942 -15.152 -20.465  0.00  0.00    -0.000 C 
ATOM     15  C   UNL     1      35.340 -21.983 -18.910  0.00  0.00    -0.000 C 
ENDROOT
BRANCH   1  16
ATOM     16  C   UNL     1      34.924 -19.067 -23.094  0.00  0.00    +0.007 C 
BRANCH  16  17
ATOM     17  C   UNL     1      35.305 -17.980 -24.091  0.00  0.00    -0.023 C 
BRANCH  17  18
ATOM     18  C   UNL     1      34.188 -17.770 -25.113  0.00  0.00    -0.082 C 
BRANCH  18  19
ATOM     19  N   UNL     1      34.148 -16.377 -25.540  0.00  0.00    +0.382 N 
ATOM     20  C   UNL     1      33.762 -15.507 -24.438  0.00  0.00    -0.106 C 
ATOM     21  H   UNL     1      33.471 -16.278 -26.297  0.00  0.00    -0.085 HD
ATOM     22  H   UNL     1      35.079 -16.107 -25.858  0.00  0.00    -0.085 HD
ENDBRANCH  18  19
ENDBRANCH  17  18
ENDBRANCH  16  17
ENDBRANCH   1  16
TORSDOF 4
ENDMDL
MODEL 2
REMARK VINA RESULT:      -8.9      7.930     11.370
REMARK  Name = 4976
REMARK  4 active torsions:
REMARK  status: ('A' for Active; 'I' for Inactive)
REMARK    1  A    between atoms: C_1  and  C_16
REMARK    2  A    between atoms: C_16  and  C_17
REMARK    3  A    between atoms: C_17  and  C_18
REMARK    4  A    between atoms: C_18  and  N_19
REMARK                            x       y       z     vdW  Elec       q    Type
REMARK                         _______ _______ _______ _____ _____    ______ ____
ROOT
ATOM      1  C   UNL     1      32.571  -8.505 -23.052  0.00  0.00    +0.044 C 
ATOM      2  C   UNL     1      32.014  -9.321 -21.895  0.00  0.00    -0.018 C 
ATOM      3  C   UNL     1      31.973  -7.111 -23.155  0.00  0.00    -0.018 C 
ATOM      4  C   UNL     1      32.057  -8.888 -20.556  0.00  0.00    -0.004 C 
ATOM      5  C   UNL     1      32.006  -6.177 -22.100  0.00  0.00    -0.004 C 
ATOM      6  C   UNL     1      31.450 -10.581 -22.183  0.00  0.00    -0.004 C 
ATOM      7  C   UNL     1      31.379  -6.732 -24.376  0.00  0.00    -0.004 C 
ATOM      8  C   UNL     1      32.641  -7.608 -20.128  0.00  0.00    -0.000 C 
ATOM      9  C   UNL     1      32.619  -6.444 -20.792  0.00  0.00    -0.000 C 
ATOM     10  C   UNL     1      31.559  -9.730 -19.545  0.00  0.00    -0.000 C 
ATOM     11  C   UNL     1      31.468  -4.893 -22.301  0.00  0.00    -0.000 C 
ATOM     12  C   UNL     1      30.947 -11.396 -21.170  0.00  0.00    -0.000 C 
ATOM     13  C   UNL     1      30.836  -5.460 -24.553  0.00  0.00    -0.000 C 
ATOM     14  C   UNL     1      31.004 -10.972 -19.850  0.00  0.00    -0.000 C 
ATOM     15  C   UNL     1      30.882  -4.539 -23.516  0.00  0.00    -0.000 C 
ENDROOT
BRANCH   1  16
ATOM     16  C   UNL     1      34.106  -8.487 -23.071  0.00  0.00    +0.007 C 
BRANCH  16  17
ATOM     17  C   UNL     1      34.634  -8.544 -24.499  0.00  0.00    -0.023 C 
BRANCH  17  18
ATOM     18  C   UNL     1      35.354  -9.867 -24.755  0.00  0.00    -0.082 C 
BRANCH  18  19
ATOM     19  N   UNL     1      34.589 -10.976 -24.198  0.00  0.00    +0.382 N 
ATOM     20  C   UNL     1      33.848 -11.671 -25.241  0.00  0.00    -0.106 C 
ATOM     21  H   UNL     1      33.933 -10.616 -23.506  0.00  0.00    -0.085 HD
ATOM     22  H   UNL     1      35.237 -11.634 -23.766  0.00  0.00    -0.085 HD
ENDBRANCH  18  19
ENDBRANCH  17  18
ENDBRANCH  16  17
ENDBRANCH   1  16
TORSDOF 4
ENDMDL
MODEL 3
REMARK VINA RESULT:      -8.8      7.784     11.218
REMARK  Name = 4976
REMARK  4 active torsions:
REMARK  status: ('A' for Active; 'I' for Inactive)
REMARK    1  A    between atoms: C_1  and  C_16
REMARK    2  A    between atoms: C_16  and  C_17
REMARK    3  A    between atoms: C_17  and  C_18
REMARK    4  A    between atoms: C_18  and  N_19
REMARK                            x       y       z     vdW  Elec       q    Type
REMARK                         _______ _______ _______ _____ _____    ______ ____
ROOT
ATOM      1  C   UNL     1      32.483  -8.004 -22.431  0.00  0.00    +0.044 C 
ATOM      2  C   UNL     1      32.285  -6.918 -23.478  0.00  0.00    -0.018 C 
ATOM      3  C   UNL     1      32.912  -9.340 -23.015  0.00  0.00    -0.018 C 
ATOM      4  C   UNL     1      33.292  -6.528 -24.383  0.00  0.00    -0.004 C 
ATOM      5  C   UNL     1      34.060  -9.499 -23.817  0.00  0.00    -0.004 C 
ATOM      6  C   UNL     1      31.040  -6.259 -23.524  0.00  0.00    -0.004 C 
ATOM      7  C   UNL     1      32.132 -10.476 -22.719  0.00  0.00    -0.004 C 
ATOM      8  C   UNL     1      34.636  -7.122 -24.417  0.00  0.00    -0.000 C 
ATOM      9  C   UNL     1      34.967  -8.398 -24.173  0.00  0.00    -0.000 C 
ATOM     10  C   UNL     1      33.035  -5.481 -25.288  0.00  0.00    -0.000 C 
ATOM     11  C   UNL     1      34.407 -10.782 -24.276  0.00  0.00    -0.000 C 
ATOM     12  C   UNL     1      30.797  -5.233 -24.437  0.00  0.00    -0.000 C 
ATOM     13  C   UNL     1      32.481 -11.739 -23.196  0.00  0.00    -0.000 C 
ATOM     14  C   UNL     1      31.796  -4.843 -25.318  0.00  0.00    -0.000 C 
ATOM     15  C   UNL     1      33.620 -11.893 -23.973  0.00  0.00    -0.000 C 
ENDROOT
BRANCH   1  16
ATOM     16  C   UNL     1      33.390  -7.549 -21.279  0.00  0.00    +0.007 C 
BRANCH  16  17
ATOM     17  C   UNL     1      32.568  -7.187 -20.048  0.00  0.00    -0.023 C 
BRANCH  17  18
ATOM     18  C   UNL     1      31.662  -8.349 -19.643  0.00  0.00    -0.082 C 
BRANCH  18  19
ATOM     19  N   UNL     1      32.456  -9.446 -19.102  0.00  0.00    +0.382 N 
ATOM     20  C   UNL     1      31.667 -10.667 -19.022  0.00  0.00    -0.106 C 
ATOM     21  H   UNL     1      32.779  -9.196 -18.167  0.00  0.00    -0.085 HD
ATOM     22  H   UNL     1      33.249  -9.610 -19.721  0.00  0.00    -0.085 HD
ENDBRANCH  18  19
ENDBRANCH  17  18
ENDBRANCH  16  17
ENDBRANCH   1  16
TORSDOF 4
ENDMDL
MODEL 4
REMARK VINA RESULT:      -8.4      3.727      6.353
REMARK  Name = 4976
REMARK  4 active torsions:
REMARK  status: ('A' for Active; 'I' for Inactive)
REMARK    1  A    between atoms: C_1  and  C_16
REMARK    2  A    between atoms: C_16  and  C_17
REMARK    3  A    between atoms: C_17  and  C_18
REMARK    4  A    between atoms: C_18  and  N_19
REMARK                            x       y       z     vdW  Elec       q    Type
REMARK                         _______ _______ _______ _____ _____    ______ ____
ROOT
ATOM      1  C   UNL     1      33.709 -13.013 -24.115  0.00  0.00    +0.044 C 
ATOM      2  C   UNL     1      33.801 -11.504 -23.953  0.00  0.00    -0.018 C 
ATOM      3  C   UNL     1      33.681 -13.765 -22.793  0.00  0.00    -0.018 C 
ATOM      4  C   UNL     1      32.870 -10.750 -23.211  0.00  0.00    -0.004 C 
ATOM      5  C   UNL     1      32.724 -13.523 -21.788  0.00  0.00    -0.004 C 
ATOM      6  C   UNL     1      34.858 -10.830 -24.599  0.00  0.00    -0.004 C 
ATOM      7  C   UNL     1      34.649 -14.767 -22.579  0.00  0.00    -0.004 C 
ATOM      8  C   UNL     1      31.715 -11.334 -22.515  0.00  0.00    -0.000 C 
ATOM      9  C   UNL     1      31.652 -12.525 -21.904  0.00  0.00    -0.000 C 
ATOM     10  C   UNL     1      33.008  -9.351 -23.154  0.00  0.00    -0.000 C 
ATOM     11  C   UNL     1      32.746 -14.300 -20.615  0.00  0.00    -0.000 C 
ATOM     12  C   UNL     1      34.988  -9.444 -24.520  0.00  0.00    -0.000 C 
ATOM     13  C   UNL     1      34.667 -15.517 -21.404  0.00  0.00    -0.000 C 
ATOM     14  C   UNL     1      34.061  -8.704 -23.799  0.00  0.00    -0.000 C 
ATOM     15  C   UNL     1      33.714 -15.285 -20.422  0.00  0.00    -0.000 C 
ENDROOT
BRANCH   1  16
ATOM     16  C   UNL     1      32.569 -13.434 -25.053  0.00  0.00    +0.007 C 
BRANCH  16  17
ATOM     17  C   UNL     1      33.104 -14.219 -26.244  0.00  0.00    -0.023 C 
BRANCH  17  18
ATOM     18  C   UNL     1      33.070 -15.720 -25.960  0.00  0.00    -0.082 C 
BRANCH  18  19
ATOM     19  N   UNL     1      34.398 -16.197 -25.591  0.00  0.00    +0.382 N 
ATOM     20  C   UNL     1      34.345 -17.578 -25.133  0.00  0.00    -0.106 C 
ATOM     21  H   UNL     1      34.767 -15.611 -24.842  0.00  0.00    -0.085 HD
ATOM     22  H   UNL     1      35.001 -16.148 -26.412  0.00  0.00    -0.085 HD
ENDBRANCH  18  19
ENDBRANCH  17  18
ENDBRANCH  16  17
ENDBRANCH   1  16
TORSDOF 4
ENDMDL
MODEL 5
REMARK VINA RESULT:      -8.0      5.764      8.973
REMARK  Name = 4976
REMARK  4 active torsions:
REMARK  status: ('A' for Active; 'I' for Inactive)
REMARK    1  A    between atoms: C_1  and  C_16
REMARK    2  A    between atoms: C_16  and  C_17
REMARK    3  A    between atoms: C_17  and  C_18
REMARK    4  A    between atoms: C_18  and  N_19
REMARK                            x       y       z     vdW  Elec       q    Type
REMARK                         _______ _______ _______ _____ _____    ______ ____
ROOT
ATOM      1  C   UNL     1      34.694 -23.897 -15.757  0.00  0.00    +0.044 C 
ATOM      2  C   UNL     1      34.820 -23.145 -17.073  0.00  0.00    -0.018 C 
ATOM      3  C   UNL     1      35.954 -24.654 -15.367  0.00  0.00    -0.018 C 
ATOM      4  C   UNL     1      35.821 -22.185 -17.320  0.00  0.00    -0.004 C 
ATOM      5  C   UNL     1      37.213 -24.036 -15.229  0.00  0.00    -0.004 C 
ATOM      6  C   UNL     1      33.871 -23.408 -18.082  0.00  0.00    -0.004 C 
ATOM      7  C   UNL     1      35.847 -26.035 -15.112  0.00  0.00    -0.004 C 
ATOM      8  C   UNL     1      36.849 -21.806 -16.340  0.00  0.00    -0.000 C 
ATOM      9  C   UNL     1      37.447 -22.601 -15.441  0.00  0.00    -0.000 C 
ATOM     10  C   UNL     1      35.832 -21.504 -18.551  0.00  0.00    -0.000 C 
ATOM     11  C   UNL     1      38.316 -24.806 -14.819  0.00  0.00    -0.000 C 
ATOM     12  C   UNL     1      33.906 -22.735 -19.302  0.00  0.00    -0.000 C 
ATOM     13  C   UNL     1      36.954 -26.788 -14.722  0.00  0.00    -0.000 C 
ATOM     14  C   UNL     1      34.886 -21.780 -19.536  0.00  0.00    -0.000 C 
ATOM     15  C   UNL     1      38.189 -26.173 -14.573  0.00  0.00    -0.000 C 
ENDROOT
BRANCH   1  16
ATOM     16  C   UNL     1      34.170 -23.008 -14.621  0.00  0.00    +0.007 C 
BRANCH  16  17
ATOM     17  C   UNL     1      32.703 -23.302 -14.331  0.00  0.00    -0.023 C 
BRANCH  17  18
ATOM     18  C   UNL     1      32.523 -24.747 -13.870  0.00  0.00    -0.082 C 
BRANCH  18  19
ATOM     19  N   UNL     1      31.133 -24.993 -13.504  0.00  0.00    +0.382 N 
ATOM     20  C   UNL     1      30.328 -25.279 -14.684  0.00  0.00    -0.106 C 
ATOM     21  H   UNL     1      30.758 -24.167 -13.037  0.00  0.00    -0.085 HD
ATOM     22  H   UNL     1      31.098 -25.800 -12.882  0.00  0.00    -0.085 HD
ENDBRANCH  18  19
ENDBRANCH  17  18
ENDBRANCH  16  17
ENDBRANCH   1  16
TORSDOF 4
ENDMDL
MODEL 6
REMARK VINA RESULT:      -7.7      5.814      9.295
REMARK  Name = 4976
REMARK  4 active torsions:
REMARK  status: ('A' for Active; 'I' for Inactive)
REMARK    1  A    between atoms: C_1  and  C_16
REMARK    2  A    between atoms: C_16  and  C_17
REMARK    3  A    between atoms: C_17  and  C_18
REMARK    4  A    between atoms: C_18  and  N_19
REMARK                            x       y       z     vdW  Elec       q    Type
REMARK                         _______ _______ _______ _____ _____    ______ ____
ROOT
ATOM      1  C   UNL     1      34.909 -23.945 -15.600  0.00  0.00    +0.044 C 
ATOM      2  C   UNL     1      34.946 -23.185 -16.917  0.00  0.00    -0.018 C 
ATOM      3  C   UNL     1      36.179 -24.735 -15.319  0.00  0.00    -0.018 C 
ATOM      4  C   UNL     1      35.947 -22.247 -17.238  0.00  0.00    -0.004 C 
ATOM      5  C   UNL     1      37.459 -24.147 -15.279  0.00  0.00    -0.004 C 
ATOM      6  C   UNL     1      33.913 -23.418 -17.847  0.00  0.00    -0.004 C 
ATOM      7  C   UNL     1      36.059 -26.115 -15.064  0.00  0.00    -0.004 C 
ATOM      8  C   UNL     1      37.060 -21.900 -16.342  0.00  0.00    -0.000 C 
ATOM      9  C   UNL     1      37.709 -22.716 -15.500  0.00  0.00    -0.000 C 
ATOM     10  C   UNL     1      35.875 -21.556 -18.462  0.00  0.00    -0.000 C 
ATOM     11  C   UNL     1      38.573 -24.947 -14.964  0.00  0.00    -0.000 C 
ATOM     12  C   UNL     1      33.865 -22.736 -19.062  0.00  0.00    -0.000 C 
ATOM     13  C   UNL     1      37.176 -26.897 -14.771  0.00  0.00    -0.000 C 
ATOM     14  C   UNL     1      34.845 -21.802 -19.368  0.00  0.00    -0.000 C 
ATOM     15  C   UNL     1      38.433 -26.312 -14.718  0.00  0.00    -0.000 C 
ENDROOT
BRANCH   1  16
ATOM     16  C   UNL     1      34.500 -23.054 -14.420  0.00  0.00    +0.007 C 
BRANCH  16  17
ATOM     17  C   UNL     1      33.880 -23.881 -13.300  0.00  0.00    -0.023 C 
BRANCH  17  18
ATOM     18  C   UNL     1      34.904 -24.152 -12.199  0.00  0.00    -0.082 C 
BRANCH  18  19
ATOM     19  N   UNL     1      35.942 -23.128 -12.209  0.00  0.00    +0.382 N 
ATOM     20  C   UNL     1      37.193 -23.651 -11.678  0.00  0.00    -0.106 C 
ATOM     21  H   UNL     1      35.640 -22.339 -11.637  0.00  0.00    -0.085 HD
ATOM     22  H   UNL     1      36.096 -22.830 -13.173  0.00  0.00    -0.085 HD
ENDBRANCH  18  19
ENDBRANCH  17  18
ENDBRANCH  16  17
ENDBRANCH   1  16
TORSDOF 4
ENDMDL
MODEL 7
REMARK VINA RESULT:      -7.7      8.014     10.108
REMARK  Name = 4976
REMARK  4 active torsions:
REMARK  status: ('A' for Active; 'I' for Inactive)
REMARK    1  A    between atoms: C_1  and  C_16
REMARK    2  A    between atoms: C_16  and  C_17
REMARK    3  A    between atoms: C_17  and  C_18
REMARK    4  A    between atoms: C_18  and  N_19
REMARK                            x       y       z     vdW  Elec       q    Type
REMARK                         _______ _______ _______ _____ _____    ______ ____
ROOT
ATOM      1  C   UNL     1      32.180  -8.866 -22.591  0.00  0.00    +0.044 C 
ATOM      2  C   UNL     1      31.993  -9.595 -21.269  0.00  0.00    -0.018 C 
ATOM      3  C   UNL     1      33.255  -9.478 -23.476  0.00  0.00    -0.018 C 
ATOM      4  C   UNL     1      31.693 -10.968 -21.181  0.00  0.00    -0.004 C 
ATOM      5  C   UNL     1      33.241 -10.826 -23.886  0.00  0.00    -0.004 C 
ATOM      6  C   UNL     1      32.105  -8.848 -20.078  0.00  0.00    -0.004 C 
ATOM      7  C   UNL     1      34.302  -8.646 -23.920  0.00  0.00    -0.004 C 
ATOM      8  C   UNL     1      31.527 -11.845 -22.349  0.00  0.00    -0.000 C 
ATOM      9  C   UNL     1      32.191 -11.784 -23.511  0.00  0.00    -0.000 C 
ATOM     10  C   UNL     1      31.491 -11.548 -19.915  0.00  0.00    -0.000 C 
ATOM     11  C   UNL     1      34.253 -11.295 -24.744  0.00  0.00    -0.000 C 
ATOM     12  C   UNL     1      31.917  -9.442 -18.831  0.00  0.00    -0.000 C 
ATOM     13  C   UNL     1      35.307  -9.131 -24.756  0.00  0.00    -0.000 C 
ATOM     14  C   UNL     1      31.608 -10.792 -18.750  0.00  0.00    -0.000 C 
ATOM     15  C   UNL     1      35.281 -10.456 -25.170  0.00  0.00    -0.000 C 
ENDROOT
BRANCH   1  16
ATOM     16  C   UNL     1      30.855  -8.659 -23.338  0.00  0.00    +0.007 C 
BRANCH  16  17
ATOM     17  C   UNL     1      30.769  -7.251 -23.916  0.00  0.00    -0.023 C 
BRANCH  17  18
ATOM     18  C   UNL     1      31.080  -6.208 -22.844  0.00  0.00    -0.082 C 
BRANCH  18  19
ATOM     19  N   UNL     1      30.699  -4.878 -23.306  0.00  0.00    +0.382 N 
ATOM     20  C   UNL     1      31.003  -4.714 -24.720  0.00  0.00    -0.106 C 
ATOM     21  H   UNL     1      31.212  -4.178 -22.770  0.00  0.00    -0.085 HD
ATOM     22  H   UNL     1      29.695  -4.763 -23.172  0.00  0.00    -0.085 HD
ENDBRANCH  18  19
ENDBRANCH  17  18
ENDBRANCH  16  17
ENDBRANCH   1  16
TORSDOF 4
ENDMDL
MODEL 8
REMARK VINA RESULT:      -7.7      8.394     11.855
REMARK  Name = 4976
REMARK  4 active torsions:
REMARK  status: ('A' for Active; 'I' for Inactive)
REMARK    1  A    between atoms: C_1  and  C_16
REMARK    2  A    between atoms: C_16  and  C_17
REMARK    3  A    between atoms: C_17  and  C_18
REMARK    4  A    between atoms: C_18  and  N_19
REMARK                            x       y       z     vdW  Elec       q    Type
REMARK                         _______ _______ _______ _____ _____    ______ ____
ROOT
ATOM      1  C   UNL     1      32.545  -8.523 -23.019  0.00  0.00    +0.044 C 
ATOM      2  C   UNL     1      32.023  -9.355 -21.858  0.00  0.00    -0.018 C 
ATOM      3  C   UNL     1      31.902  -7.148 -23.119  0.00  0.00    -0.018 C 
ATOM      4  C   UNL     1      32.062  -8.920 -20.519  0.00  0.00    -0.004 C 
ATOM      5  C   UNL     1      31.913  -6.213 -22.064  0.00  0.00    -0.004 C 
ATOM      6  C   UNL     1      31.497 -10.632 -22.141  0.00  0.00    -0.004 C 
ATOM      7  C   UNL     1      31.287  -6.789 -24.335  0.00  0.00    -0.004 C 
ATOM      8  C   UNL     1      32.608  -7.622 -20.097  0.00  0.00    -0.000 C 
ATOM      9  C   UNL     1      32.545  -6.459 -20.760  0.00  0.00    -0.000 C 
ATOM     10  C   UNL     1      31.598  -9.777 -19.504  0.00  0.00    -0.000 C 
ATOM     11  C   UNL     1      31.334  -4.947 -22.261  0.00  0.00    -0.000 C 
ATOM     12  C   UNL     1      31.027 -11.463 -21.124  0.00  0.00    -0.000 C 
ATOM     13  C   UNL     1      30.703  -5.535 -24.508  0.00  0.00    -0.000 C 
ATOM     14  C   UNL     1      31.081 -11.036 -19.804  0.00  0.00    -0.000 C 
ATOM     15  C   UNL     1      30.728  -4.612 -23.472  0.00  0.00    -0.000 C 
ENDROOT
BRANCH   1  16
ATOM     16  C   UNL     1      34.078  -8.456 -23.050  0.00  0.00    +0.007 C 
BRANCH  16  17
ATOM     17  C   UNL     1      34.581  -8.114 -24.447  0.00  0.00    -0.023 C 
BRANCH  17  18
ATOM     18  C   UNL     1      34.738  -6.603 -24.609  0.00  0.00    -0.082 C 
BRANCH  18  19
ATOM     19  N   UNL     1      34.817  -6.250 -26.022  0.00  0.00    +0.382 N 
ATOM     20  C   UNL     1      33.875  -5.188 -26.345  0.00  0.00    -0.106 C 
ATOM     21  H   UNL     1      34.600  -7.072 -26.585  0.00  0.00    -0.085 HD
ATOM     22  H   UNL     1      35.761  -5.921 -26.223  0.00  0.00    -0.085 HD
ENDBRANCH  18  19
ENDBRANCH  17  18
ENDBRANCH  16  17
ENDBRANCH   1  16
TORSDOF 4
ENDMDL
MODEL 9
REMARK VINA RESULT:      -7.5      3.926      7.998
REMARK  Name = 4976
REMARK  4 active torsions:
REMARK  status: ('A' for Active; 'I' for Inactive)
REMARK    1  A    between atoms: C_1  and  C_16
REMARK    2  A    between atoms: C_16  and  C_17
REMARK    3  A    between atoms: C_17  and  C_18
REMARK    4  A    between atoms: C_18  and  N_19
REMARK                            x       y       z     vdW  Elec       q    Type
REMARK                         _______ _______ _______ _____ _____    ______ ____
ROOT
ATOM      1  C   UNL     1      33.378 -12.720 -22.983  0.00  0.00    +0.044 C 
ATOM      2  C   UNL     1      33.861 -14.156 -22.856  0.00  0.00    -0.018 C 
ATOM      3  C   UNL     1      33.993 -11.974 -24.157  0.00  0.00    -0.018 C 
ATOM      4  C   UNL     1      33.745 -15.103 -23.893  0.00  0.00    -0.004 C 
ATOM      5  C   UNL     1      33.909 -12.427 -25.488  0.00  0.00    -0.004 C 
ATOM      6  C   UNL     1      34.429 -14.560 -21.630  0.00  0.00    -0.004 C 
ATOM      7  C   UNL     1      34.660 -10.760 -23.896  0.00  0.00    -0.004 C 
ATOM      8  C   UNL     1      33.149 -14.810 -25.204  0.00  0.00    -0.000 C 
ATOM      9  C   UNL     1      33.219 -13.661 -25.889  0.00  0.00    -0.000 C 
ATOM     10  C   UNL     1      34.177 -16.424 -23.670  0.00  0.00    -0.000 C 
ATOM     11  C   UNL     1      34.468 -11.647 -26.517  0.00  0.00    -0.000 C 
ATOM     12  C   UNL     1      34.866 -15.869 -21.431  0.00  0.00    -0.000 C 
ATOM     13  C   UNL     1      35.223 -10.007 -24.925  0.00  0.00    -0.000 C 
ATOM     14  C   UNL     1      34.738 -16.802 -22.451  0.00  0.00    -0.000 C 
ATOM     15  C   UNL     1      35.126 -10.450 -26.237  0.00  0.00    -0.000 C 
ENDROOT
BRANCH   1  16
ATOM     16  C   UNL     1      31.847 -12.611 -22.957  0.00  0.00    +0.007 C 
BRANCH  16  17
ATOM     17  C   UNL     1      31.369 -11.946 -21.673  0.00  0.00    -0.023 C 
BRANCH  17  18
ATOM     18  C   UNL     1      31.503 -10.427 -21.769  0.00  0.00    -0.082 C 
BRANCH  18  19
ATOM     19  N   UNL     1      31.769  -9.857 -20.454  0.00  0.00    +0.382 N 
ATOM     20  C   UNL     1      31.319 -10.755 -19.399  0.00  0.00    -0.106 C 
ATOM     21  H   UNL     1      31.276  -8.968 -20.368  0.00  0.00    -0.085 HD
ATOM     22  H   UNL     1      32.774  -9.717 -20.356  0.00  0.00    -0.085 HD
ENDBRANCH  18  19
ENDBRANCH  17  18
ENDBRANCH  16  17
ENDBRANCH   1  16
TORSDOF 4
ENDMDL
