MODEL 1
REMARK VINA RESULT:      -5.8      0.000      0.000
REMARK  Name = 5289072
REMARK  6 active torsions:
REMARK  status: ('A' for Active; 'I' for Inactive)
REMARK    1  A    between atoms: CA_1  and  N_2
REMARK    2  A    between atoms: CA_1  and  C_7
REMARK    3  A    between atoms: CA_1  and  C_10
REMARK    4  A    between atoms: C_7  and  O_8
REMARK    5  A    between atoms: C_10  and  C_11
REMARK    6  A    between atoms: C_11  and  C_13
REMARK                            x       y       z     vdW  Elec       q    Type
REMARK                         _______ _______ _______ _____ _____    ______ ____
ROOT
ATOM      1  CA  UNL     1      38.997 -25.158 -14.257  0.00  0.00    +0.036 C 
ENDROOT
BRANCH   1   2
ATOM      2  N   UNL     1      37.971 -25.388 -15.278  0.00  0.00    +0.389 N 
ATOM      3  H1  UNL     1      37.866 -26.391 -15.433  0.00  0.00    -0.088 HD
ATOM      4  H2  UNL     1      38.249 -24.936 -16.148  0.00  0.00    -0.088 HD
ATOM      5  H3  UNL     1      37.083 -24.998 -14.962  0.00  0.00    -0.088 HD
ENDBRANCH   1   2
BRANCH   1   7
ATOM      6  OXT UNL     1      41.009 -26.488 -13.911  0.00  0.00    -0.253 OA
ATOM      7  C   UNL     1      40.231 -25.936 -14.679  0.00  0.00    +0.293 C 
BRANCH   7   8
ATOM      8  O   UNL     1      40.404 -25.939 -16.027  0.00  0.00    -0.482 OA
ATOM      9  H   UNL     1      41.228 -25.687 -16.394  0.00  0.00    +0.295 HD
ENDBRANCH   7   8
ENDBRANCH   1   7
BRANCH   1  10
ATOM     10  C   UNL     1      38.470 -25.632 -12.896  0.00  0.00    -0.003 C 
BRANCH  10  11
ATOM     11  C   UNL     1      36.945 -25.741 -12.816  0.00  0.00    +0.063 C 
BRANCH  11  13
ATOM     12  O   UNL     1      35.498 -25.164 -10.965  0.00  0.00    -0.296 OA
ATOM     13  C   UNL     1      36.316 -24.795 -11.806  0.00  0.00    +0.151 C 
ATOM     14  C   UNL     1      36.788 -23.365 -11.853  0.00  0.00    +0.072 C 
ENDBRANCH  11  13
ENDBRANCH  10  11
ENDBRANCH   1  10
TORSDOF 6
ENDMDL
MODEL 2
REMARK VINA RESULT:      -5.5      1.311      1.527
REMARK  Name = 5289072
REMARK  6 active torsions:
REMARK  status: ('A' for Active; 'I' for Inactive)
REMARK    1  A    between atoms: CA_1  and  N_2
REMARK    2  A    between atoms: CA_1  and  C_7
REMARK    3  A    between atoms: CA_1  and  C_10
REMARK    4  A    between atoms: C_7  and  O_8
REMARK    5  A    between atoms: C_10  and  C_11
REMARK    6  A    between atoms: C_11  and  C_13
REMARK                            x       y       z     vdW  Elec       q    Type
REMARK                         _______ _______ _______ _____ _____    ______ ____
ROOT
ATOM      1  CA  UNL     1      38.605 -25.078 -14.528  0.00  0.00    +0.036 C 
ENDROOT
BRANCH   1   2
ATOM      2  N   UNL     1      37.846 -25.991 -15.388  0.00  0.00    +0.389 N 
ATOM      3  H1  UNL     1      37.013 -26.309 -14.894  0.00  0.00    -0.088 HD
ATOM      4  H2  UNL     1      38.427 -26.795 -15.627  0.00  0.00    -0.088 HD
ATOM      5  H3  UNL     1      37.571 -25.505 -16.242  0.00  0.00    -0.088 HD
ENDBRANCH   1   2
BRANCH   1   7
ATOM      6  OXT UNL     1      41.008 -24.806 -14.230  0.00  0.00    -0.253 OA
ATOM      7  C   UNL     1      40.072 -25.238 -14.890  0.00  0.00    +0.293 C 
BRANCH   7   8
ATOM      8  O   UNL     1      40.244 -25.905 -16.062  0.00  0.00    -0.482 OA
ATOM      9  H   UNL     1      39.695 -26.634 -16.271  0.00  0.00    +0.295 HD
ENDBRANCH   7   8
ENDBRANCH   1   7
BRANCH   1  10
ATOM     10  C   UNL     1      38.345 -25.437 -13.059  0.00  0.00    -0.003 C 
BRANCH  10  11
ATOM     11  C   UNL     1      38.529 -24.271 -12.084  0.00  0.00    +0.063 C 
BRANCH  11  13
ATOM     12  O   UNL     1      37.168 -22.507 -11.142  0.00  0.00    -0.296 OA
ATOM     13  C   UNL     1      37.224 -23.628 -11.645  0.00  0.00    +0.151 C 
ATOM     14  C   UNL     1      35.972 -24.426 -11.903  0.00  0.00    +0.072 C 
ENDBRANCH  11  13
ENDBRANCH  10  11
ENDBRANCH   1  10
TORSDOF 6
ENDMDL
MODEL 3
REMARK VINA RESULT:      -5.4      2.721      4.644
REMARK  Name = 5289072
REMARK  6 active torsions:
REMARK  status: ('A' for Active; 'I' for Inactive)
REMARK    1  A    between atoms: CA_1  and  N_2
REMARK    2  A    between atoms: CA_1  and  C_7
REMARK    3  A    between atoms: CA_1  and  C_10
REMARK    4  A    between atoms: C_7  and  O_8
REMARK    5  A    between atoms: C_10  and  C_11
REMARK    6  A    between atoms: C_11  and  C_13
REMARK                            x       y       z     vdW  Elec       q    Type
REMARK                         _______ _______ _______ _____ _____    ______ ____
ROOT
ATOM      1  CA  UNL     1      36.723 -23.421 -11.845  0.00  0.00    +0.036 C 
ENDROOT
BRANCH   1   2
ATOM      2  N   UNL     1      38.108 -23.803 -11.554  0.00  0.00    +0.389 N 
ATOM      3  H1  UNL     1      38.143 -24.299 -10.664  0.00  0.00    -0.088 HD
ATOM      4  H2  UNL     1      38.688 -22.965 -11.500  0.00  0.00    -0.088 HD
ATOM      5  H3  UNL     1      38.457 -24.410 -12.296  0.00  0.00    -0.088 HD
ENDBRANCH   1   2
BRANCH   1   7
ATOM      6  OXT UNL     1      35.933 -24.264  -9.700  0.00  0.00    -0.253 OA
ATOM      7  C   UNL     1      35.831 -24.229 -10.919  0.00  0.00    +0.293 C 
BRANCH   7   8
ATOM      8  O   UNL     1      34.899 -24.948 -11.599  0.00  0.00    -0.482 OA
ATOM      9  H   UNL     1      34.181 -25.336 -11.140  0.00  0.00    +0.295 HD
ENDBRANCH   7   8
ENDBRANCH   1   7
BRANCH   1  10
ATOM     10  C   UNL     1      36.419 -23.716 -13.320  0.00  0.00    -0.003 C 
BRANCH  10  11
ATOM     11  C   UNL     1      37.455 -24.607 -14.010  0.00  0.00    +0.063 C 
BRANCH  11  13
ATOM     12  O   UNL     1      37.070 -26.705 -12.870  0.00  0.00    -0.296 OA
ATOM     13  C   UNL     1      37.135 -26.091 -13.934  0.00  0.00    +0.151 C 
ATOM     14  C   UNL     1      36.848 -26.776 -15.245  0.00  0.00    +0.072 C 
ENDBRANCH  11  13
ENDBRANCH  10  11
ENDBRANCH   1  10
TORSDOF 6
ENDMDL
MODEL 4
REMARK VINA RESULT:      -5.4      8.067      9.537
REMARK  Name = 5289072
REMARK  6 active torsions:
REMARK  status: ('A' for Active; 'I' for Inactive)
REMARK    1  A    between atoms: CA_1  and  N_2
REMARK    2  A    between atoms: CA_1  and  C_7
REMARK    3  A    between atoms: CA_1  and  C_10
REMARK    4  A    between atoms: C_7  and  O_8
REMARK    5  A    between atoms: C_10  and  C_11
REMARK    6  A    between atoms: C_11  and  C_13
REMARK                            x       y       z     vdW  Elec       q    Type
REMARK                         _______ _______ _______ _____ _____    ______ ____
ROOT
ATOM      1  CA  UNL     1      30.250 -25.149 -14.912  0.00  0.00    +0.036 C 
ENDROOT
BRANCH   1   2
ATOM      2  N   UNL     1      28.888 -25.452 -14.466  0.00  0.00    +0.389 N 
ATOM      3  H1  UNL     1      28.428 -24.591 -14.170  0.00  0.00    -0.088 HD
ATOM      4  H2  UNL     1      28.924 -26.105 -13.683  0.00  0.00    -0.088 HD
ATOM      5  H3  UNL     1      28.363 -25.872 -15.233  0.00  0.00    -0.088 HD
ENDBRANCH   1   2
BRANCH   1   7
ATOM      6  OXT UNL     1      30.737 -24.240 -12.704  0.00  0.00    -0.253 OA
ATOM      7  C   UNL     1      31.087 -24.909 -13.668  0.00  0.00    +0.293 C 
BRANCH   7   8
ATOM      8  O   UNL     1      32.305 -25.509 -13.742  0.00  0.00    -0.482 OA
ATOM      9  H   UNL     1      32.365 -26.426 -13.919  0.00  0.00    +0.295 HD
ENDBRANCH   7   8
ENDBRANCH   1   7
BRANCH   1  10
ATOM     10  C   UNL     1      30.220 -23.910 -15.817  0.00  0.00    -0.003 C 
BRANCH  10  11
ATOM     11  C   UNL     1      28.953 -23.062 -15.681  0.00  0.00    +0.063 C 
BRANCH  11  13
ATOM     12  O   UNL     1      27.825 -24.317 -17.413  0.00  0.00    -0.296 OA
ATOM     13  C   UNL     1      27.965 -23.248 -16.820  0.00  0.00    +0.151 C 
ATOM     14  C   UNL     1      27.115 -22.053 -17.164  0.00  0.00    +0.072 C 
ENDBRANCH  11  13
ENDBRANCH  10  11
ENDBRANCH   1  10
TORSDOF 6
ENDMDL
MODEL 5
REMARK VINA RESULT:      -5.4      2.151      2.544
REMARK  Name = 5289072
REMARK  6 active torsions:
REMARK  status: ('A' for Active; 'I' for Inactive)
REMARK    1  A    between atoms: CA_1  and  N_2
REMARK    2  A    between atoms: CA_1  and  C_7
REMARK    3  A    between atoms: CA_1  and  C_10
REMARK    4  A    between atoms: C_7  and  O_8
REMARK    5  A    between atoms: C_10  and  C_11
REMARK    6  A    between atoms: C_11  and  C_13
REMARK                            x       y       z     vdW  Elec       q    Type
REMARK                         _______ _______ _______ _____ _____    ______ ____
ROOT
ATOM      1  CA  UNL     1      36.723 -25.466 -14.518  0.00  0.00    +0.036 C 
ENDROOT
BRANCH   1   2
ATOM      2  N   UNL     1      35.264 -25.412 -14.643  0.00  0.00    +0.389 N 
ATOM      3  H1  UNL     1      35.014 -25.178 -15.604  0.00  0.00    -0.088 HD
ATOM      4  H2  UNL     1      34.895 -24.700 -14.012  0.00  0.00    -0.088 HD
ATOM      5  H3  UNL     1      34.867 -26.319 -14.400  0.00  0.00    -0.088 HD
ENDBRANCH   1   2
BRANCH   1   7
ATOM      6  OXT UNL     1      36.610 -27.247 -16.177  0.00  0.00    -0.253 OA
ATOM      7  C   UNL     1      37.187 -26.723 -15.233  0.00  0.00    +0.293 C 
BRANCH   7   8
ATOM      8  O   UNL     1      38.324 -27.235 -14.691  0.00  0.00    -0.482 OA
ATOM      9  H   UNL     1      38.829 -27.863 -15.169  0.00  0.00    +0.295 HD
ENDBRANCH   7   8
ENDBRANCH   1   7
BRANCH   1  10
ATOM     10  C   UNL     1      37.100 -25.493 -13.031  0.00  0.00    -0.003 C 
BRANCH  10  11
ATOM     11  C   UNL     1      35.991 -25.014 -12.091  0.00  0.00    +0.063 C 
BRANCH  11  13
ATOM     12  O   UNL     1      36.201 -24.020  -9.896  0.00  0.00    -0.296 OA
ATOM     13  C   UNL     1      36.442 -23.954 -11.100  0.00  0.00    +0.151 C 
ATOM     14  C   UNL     1      37.258 -22.821 -11.667  0.00  0.00    +0.072 C 
ENDBRANCH  11  13
ENDBRANCH  10  11
ENDBRANCH   1  10
TORSDOF 6
ENDMDL
MODEL 6
REMARK VINA RESULT:      -5.4      2.490      2.835
REMARK  Name = 5289072
REMARK  6 active torsions:
REMARK  status: ('A' for Active; 'I' for Inactive)
REMARK    1  A    between atoms: CA_1  and  N_2
REMARK    2  A    between atoms: CA_1  and  C_7
REMARK    3  A    between atoms: CA_1  and  C_10
REMARK    4  A    between atoms: C_7  and  O_8
REMARK    5  A    between atoms: C_10  and  C_11
REMARK    6  A    between atoms: C_11  and  C_13
REMARK                            x       y       z     vdW  Elec       q    Type
REMARK                         _______ _______ _______ _____ _____    ______ ____
ROOT
ATOM      1  CA  UNL     1      37.844 -26.455 -14.453  0.00  0.00    +0.036 C 
ENDROOT
BRANCH   1   2
ATOM      2  N   UNL     1      38.794 -25.449 -14.936  0.00  0.00    +0.389 N 
ATOM      3  H1  UNL     1      38.837 -25.483 -15.954  0.00  0.00    -0.088 HD
ATOM      4  H2  UNL     1      39.719 -25.642 -14.551  0.00  0.00    -0.088 HD
ATOM      5  H3  UNL     1      38.490 -24.522 -14.639  0.00  0.00    -0.088 HD
ENDBRANCH   1   2
BRANCH   1   7
ATOM      6  OXT UNL     1      35.691 -25.685 -15.296  0.00  0.00    -0.253 OA
ATOM      7  C   UNL     1      36.653 -26.434 -15.396  0.00  0.00    +0.293 C 
BRANCH   7   8
ATOM      8  O   UNL     1      36.754 -27.373 -16.375  0.00  0.00    -0.482 OA
ATOM      9  H   UNL     1      37.512 -27.921 -16.421  0.00  0.00    +0.295 HD
ENDBRANCH   7   8
ENDBRANCH   1   7
BRANCH   1  10
ATOM     10  C   UNL     1      37.430 -26.108 -13.017  0.00  0.00    -0.003 C 
BRANCH  10  11
ATOM     11  C   UNL     1      38.091 -24.845 -12.459  0.00  0.00    +0.063 C 
BRANCH  11  13
ATOM     12  O   UNL     1      37.484 -22.869 -11.204  0.00  0.00    -0.296 OA
ATOM     13  C   UNL     1      37.143 -23.952 -11.677  0.00  0.00    +0.151 C 
ATOM     14  C   UNL     1      35.724 -24.443 -11.547  0.00  0.00    +0.072 C 
ENDBRANCH  11  13
ENDBRANCH  10  11
ENDBRANCH   1  10
TORSDOF 6
ENDMDL
MODEL 7
REMARK VINA RESULT:      -5.3     10.806     11.367
REMARK  Name = 5289072
REMARK  6 active torsions:
REMARK  status: ('A' for Active; 'I' for Inactive)
REMARK    1  A    between atoms: CA_1  and  N_2
REMARK    2  A    between atoms: CA_1  and  C_7
REMARK    3  A    between atoms: CA_1  and  C_10
REMARK    4  A    between atoms: C_7  and  O_8
REMARK    5  A    between atoms: C_10  and  C_11
REMARK    6  A    between atoms: C_11  and  C_13
REMARK                            x       y       z     vdW  Elec       q    Type
REMARK                         _______ _______ _______ _____ _____    ______ ____
ROOT
ATOM      1  CA  UNL     1      35.566 -18.249 -22.056  0.00  0.00    +0.036 C 
ENDROOT
BRANCH   1   2
ATOM      2  N   UNL     1      35.224 -17.413 -20.903  0.00  0.00    +0.389 N 
ATOM      3  H1  UNL     1      35.833 -16.595 -20.883  0.00  0.00    -0.088 HD
ATOM      4  H2  UNL     1      35.347 -17.949 -20.045  0.00  0.00    -0.088 HD
ATOM      5  H3  UNL     1      34.252 -17.111 -20.977  0.00  0.00    -0.088 HD
ENDBRANCH   1   2
BRANCH   1   7
ATOM      6  OXT UNL     1      34.511 -17.924 -24.229  0.00  0.00    -0.253 OA
ATOM      7  C   UNL     1      35.175 -17.475 -23.303  0.00  0.00    +0.293 C 
BRANCH   7   8
ATOM      8  O   UNL     1      35.669 -16.209 -23.300  0.00  0.00    -0.482 OA
ATOM      9  H   UNL     1      35.756 -15.742 -22.492  0.00  0.00    +0.295 HD
ENDBRANCH   7   8
ENDBRANCH   1   7
BRANCH   1  10
ATOM     10  C   UNL     1      34.807 -19.579 -21.958  0.00  0.00    -0.003 C 
BRANCH  10  11
ATOM     11  C   UNL     1      33.607 -19.549 -21.008  0.00  0.00    +0.063 C 
BRANCH  11  13
ATOM     12  O   UNL     1      32.605 -21.047 -19.395  0.00  0.00    -0.296 OA
ATOM     13  C   UNL     1      33.621 -20.658 -19.968  0.00  0.00    +0.151 C 
ATOM     14  C   UNL     1      34.956 -21.303 -19.704  0.00  0.00    +0.072 C 
ENDBRANCH  11  13
ENDBRANCH  10  11
ENDBRANCH   1  10
TORSDOF 6
ENDMDL
MODEL 8
REMARK VINA RESULT:      -5.3      1.998      4.800
REMARK  Name = 5289072
REMARK  6 active torsions:
REMARK  status: ('A' for Active; 'I' for Inactive)
REMARK    1  A    between atoms: CA_1  and  N_2
REMARK    2  A    between atoms: CA_1  and  C_7
REMARK    3  A    between atoms: CA_1  and  C_10
REMARK    4  A    between atoms: C_7  and  O_8
REMARK    5  A    between atoms: C_10  and  C_11
REMARK    6  A    between atoms: C_11  and  C_13
REMARK                            x       y       z     vdW  Elec       q    Type
REMARK                         _______ _______ _______ _____ _____    ______ ____
ROOT
ATOM      1  CA  UNL     1      36.862 -24.533 -12.259  0.00  0.00    +0.036 C 
ENDROOT
BRANCH   1   2
ATOM      2  N   UNL     1      37.692 -23.731 -11.357  0.00  0.00    +0.389 N 
ATOM      3  H1  UNL     1      38.647 -23.697 -11.714  0.00  0.00    -0.088 HD
ATOM      4  H2  UNL     1      37.691 -24.152 -10.428  0.00  0.00    -0.088 HD
ATOM      5  H3  UNL     1      37.317 -22.784 -11.300  0.00  0.00    -0.088 HD
ENDBRANCH   1   2
BRANCH   1   7
ATOM      6  OXT UNL     1      35.403 -24.997 -10.363  0.00  0.00    -0.253 OA
ATOM      7  C   UNL     1      35.534 -24.766 -11.558  0.00  0.00    +0.293 C 
BRANCH   7   8
ATOM      8  O   UNL     1      34.482 -24.714 -12.416  0.00  0.00    -0.482 OA
ATOM      9  H   UNL     1      34.486 -25.235 -13.195  0.00  0.00    +0.295 HD
ENDBRANCH   7   8
ENDBRANCH   1   7
BRANCH   1  10
ATOM     10  C   UNL     1      37.578 -25.856 -12.561  0.00  0.00    -0.003 C 
BRANCH  10  11
ATOM     11  C   UNL     1      37.876 -26.086 -14.045  0.00  0.00    +0.063 C 
BRANCH  11  13
ATOM     12  O   UNL     1      38.908 -24.153 -15.068  0.00  0.00    -0.296 OA
ATOM     13  C   UNL     1      39.045 -25.269 -14.569  0.00  0.00    +0.151 C 
ATOM     14  C   UNL     1      40.411 -25.881 -14.401  0.00  0.00    +0.072 C 
ENDBRANCH  11  13
ENDBRANCH  10  11
ENDBRANCH   1  10
TORSDOF 6
ENDMDL
MODEL 9
REMARK VINA RESULT:      -5.3      7.686      9.389
REMARK  Name = 5289072
REMARK  6 active torsions:
REMARK  status: ('A' for Active; 'I' for Inactive)
REMARK    1  A    between atoms: CA_1  and  N_2
REMARK    2  A    between atoms: CA_1  and  C_7
REMARK    3  A    between atoms: CA_1  and  C_10
REMARK    4  A    between atoms: C_7  and  O_8
REMARK    5  A    between atoms: C_10  and  C_11
REMARK    6  A    between atoms: C_11  and  C_13
REMARK                            x       y       z     vdW  Elec       q    Type
REMARK                         _______ _______ _______ _____ _____    ______ ____
ROOT
ATOM      1  CA  UNL     1      29.097 -23.427 -15.492  0.00  0.00    +0.036 C 
ENDROOT
BRANCH   1   2
ATOM      2  N   UNL     1      28.884 -24.825 -15.107  0.00  0.00    +0.389 N 
ATOM      3  H1  UNL     1      28.304 -24.862 -14.269  0.00  0.00    -0.088 HD
ATOM      4  H2  UNL     1      29.783 -25.267 -14.919  0.00  0.00    -0.088 HD
ATOM      5  H3  UNL     1      28.415 -25.320 -15.867  0.00  0.00    -0.088 HD
ENDBRANCH   1   2
BRANCH   1   7
ATOM      6  OXT UNL     1      27.797 -24.039 -17.460  0.00  0.00    -0.253 OA
ATOM      7  C   UNL     1      28.256 -23.170 -16.731  0.00  0.00    +0.293 C 
BRANCH   7   8
ATOM      8  O   UNL     1      28.080 -21.843 -16.968  0.00  0.00    -0.482 OA
ATOM      9  H   UNL     1      28.816 -21.303 -17.177  0.00  0.00    +0.295 HD
ENDBRANCH   7   8
ENDBRANCH   1   7
BRANCH   1  10
ATOM     10  C   UNL     1      30.589 -23.202 -15.767  0.00  0.00    -0.003 C 
BRANCH  10  11
ATOM     11  C   UNL     1      31.410 -22.839 -14.527  0.00  0.00    +0.063 C 
BRANCH  11  13
ATOM     12  O   UNL     1      31.481 -24.893 -13.252  0.00  0.00    -0.296 OA
ATOM     13  C   UNL     1      32.095 -24.030 -13.877  0.00  0.00    +0.151 C 
ATOM     14  C   UNL     1      33.585 -24.131 -14.078  0.00  0.00    +0.072 C 
ENDBRANCH  11  13
ENDBRANCH  10  11
ENDBRANCH   1  10
TORSDOF 6
ENDMDL
