MODEL 1
REMARK VINA RESULT:      -9.0      0.000      0.000
REMARK  Name = 2893
REMARK  5 active torsions:
REMARK  status: ('A' for Active; 'I' for Inactive)
REMARK    1  A    between atoms: C_2  and  O_3
REMARK    2  A    between atoms: C_2  and  C_13
REMARK    3  A    between atoms: O_3  and  C_8
REMARK    4  A    between atoms: C_13  and  C_14
REMARK    5  A    between atoms: C_13  and  O_20
REMARK                            x       y       z     vdW  Elec       q    Type
REMARK                         _______ _______ _______ _____ _____    ______ ____
ROOT
ATOM      1  O   UNL     1      34.950 -16.670 -20.567  0.00  0.00    -0.247 OA
ATOM      2  C   UNL     1      35.323 -17.057 -21.668  0.00  0.00    +0.348 C 
ENDROOT
BRANCH   2   3
ATOM      3  O   UNL     1      35.490 -16.268 -22.773  0.00  0.00    -0.450 OA
BRANCH   3   8
ATOM      4  C   UNL     1      33.404 -13.184 -23.539  0.00  0.00    +0.003 C 
ATOM      5  C   UNL     1      33.152 -13.546 -25.021  0.00  0.00    +0.000 C 
ATOM      6  C   UNL     1      32.940 -15.050 -25.261  0.00  0.00    +0.004 C 
ATOM      7  C   UNL     1      34.543 -14.058 -22.972  0.00  0.00    +0.044 C 
ATOM      8  C   UNL     1      34.333 -15.555 -23.205  0.00  0.00    +0.169 C 
ATOM      9  C   UNL     1      34.103 -15.862 -24.683  0.00  0.00    +0.044 C 
ATOM     10  C   UNL     1      33.819 -11.703 -23.449  0.00  0.00    +0.000 C 
ATOM     11  C   UNL     1      32.119 -13.365 -22.709  0.00  0.00    +0.000 C 
ATOM     12  C   UNL     1      32.779 -15.336 -26.755  0.00  0.00    +0.000 C 
ENDBRANCH   3   8
ENDBRANCH   2   3
BRANCH   2  13
ATOM     13  C   UNL     1      35.700 -18.490 -21.990  0.00  0.00    +0.232 C 
BRANCH  13  14
ATOM     14  C   UNL     1      34.958 -19.492 -21.141  0.00  0.00    +0.015 C 
ATOM     15  C   UNL     1      33.573 -19.487 -21.138  0.00  0.00    -0.001 C 
ATOM     16  C   UNL     1      35.676 -20.402 -20.380  0.00  0.00    -0.001 C 
ATOM     17  C   UNL     1      32.887 -20.414 -20.353  0.00  0.00    -0.000 C 
ATOM     18  C   UNL     1      34.990 -21.329 -19.595  0.00  0.00    -0.000 C 
ATOM     19  C   UNL     1      33.595 -21.335 -19.582  0.00  0.00    -0.000 C 
ENDBRANCH  13  14
BRANCH  13  20
ATOM     20  O   UNL     1      35.413 -18.749 -23.357  0.00  0.00    -0.371 OA
ATOM     21  H   UNL     1      35.204 -19.689 -23.471  0.00  0.00    +0.211 HD
ENDBRANCH  13  20
ENDBRANCH   2  13
TORSDOF 5
ENDMDL
MODEL 2
REMARK VINA RESULT:      -8.8      4.560      9.965
REMARK  Name = 2893
REMARK  5 active torsions:
REMARK  status: ('A' for Active; 'I' for Inactive)
REMARK    1  A    between atoms: C_2  and  O_3
REMARK    2  A    between atoms: C_2  and  C_13
REMARK    3  A    between atoms: O_3  and  C_8
REMARK    4  A    between atoms: C_13  and  C_14
REMARK    5  A    between atoms: C_13  and  O_20
REMARK                            x       y       z     vdW  Elec       q    Type
REMARK                         _______ _______ _______ _____ _____    ______ ____
ROOT
ATOM      1  O   UNL     1      33.825 -23.820 -19.420  0.00  0.00    -0.247 OA
ATOM      2  C   UNL     1      34.346 -22.854 -18.875  0.00  0.00    +0.348 C 
ENDROOT
BRANCH   2   3
ATOM      3  O   UNL     1      34.060 -22.403 -17.616  0.00  0.00    -0.450 OA
BRANCH   3   8
ATOM      4  C   UNL     1      35.352 -23.972 -14.404  0.00  0.00    +0.003 C 
ATOM      5  C   UNL     1      33.979 -23.993 -13.692  0.00  0.00    +0.000 C 
ATOM      6  C   UNL     1      32.804 -24.320 -14.629  0.00  0.00    +0.004 C 
ATOM      7  C   UNL     1      35.287 -23.053 -15.643  0.00  0.00    +0.044 C 
ATOM      8  C   UNL     1      34.122 -23.379 -16.579  0.00  0.00    +0.169 C 
ATOM      9  C   UNL     1      32.789 -23.373 -15.834  0.00  0.00    +0.044 C 
ATOM     10  C   UNL     1      36.412 -23.422 -13.430  0.00  0.00    +0.000 C 
ATOM     11  C   UNL     1      35.777 -25.397 -14.808  0.00  0.00    +0.000 C 
ATOM     12  C   UNL     1      31.478 -24.242 -13.871  0.00  0.00    +0.000 C 
ENDBRANCH   3   8
ENDBRANCH   2   3
BRANCH   2  13
ATOM     13  C   UNL     1      35.433 -22.002 -19.499  0.00  0.00    +0.232 C 
BRANCH  13  14
ATOM     14  C   UNL     1      34.895 -20.751 -20.147  0.00  0.00    +0.015 C 
ATOM     15  C   UNL     1      35.779 -19.812 -20.652  0.00  0.00    -0.001 C 
ATOM     16  C   UNL     1      33.523 -20.562 -20.225  0.00  0.00    -0.001 C 
ATOM     17  C   UNL     1      35.281 -18.655 -21.251  0.00  0.00    -0.000 C 
ATOM     18  C   UNL     1      33.025 -19.405 -20.824  0.00  0.00    -0.000 C 
ATOM     19  C   UNL     1      33.904 -18.451 -21.336  0.00  0.00    -0.000 C 
ENDBRANCH  13  14
BRANCH  13  20
ATOM     20  O   UNL     1      36.366 -21.630 -18.494  0.00  0.00    -0.371 OA
ATOM     21  H   UNL     1      37.174 -22.156 -18.592  0.00  0.00    +0.211 HD
ENDBRANCH  13  20
ENDBRANCH   2  13
TORSDOF 5
ENDMDL
MODEL 3
REMARK VINA RESULT:      -8.8      2.211      6.637
REMARK  Name = 2893
REMARK  5 active torsions:
REMARK  status: ('A' for Active; 'I' for Inactive)
REMARK    1  A    between atoms: C_2  and  O_3
REMARK    2  A    between atoms: C_2  and  C_13
REMARK    3  A    between atoms: O_3  and  C_8
REMARK    4  A    between atoms: C_13  and  C_14
REMARK    5  A    between atoms: C_13  and  O_20
REMARK                            x       y       z     vdW  Elec       q    Type
REMARK                         _______ _______ _______ _____ _____    ______ ____
ROOT
ATOM      1  O   UNL     1      32.135 -15.650 -21.377  0.00  0.00    -0.247 OA
ATOM      2  C   UNL     1      33.032 -14.898 -21.736  0.00  0.00    +0.348 C 
ENDROOT
BRANCH   2   3
ATOM      3  O   UNL     1      34.362 -15.059 -21.461  0.00  0.00    -0.450 OA
BRANCH   3   8
ATOM      4  C   UNL     1      34.876 -18.825 -21.417  0.00  0.00    +0.003 C 
ATOM      5  C   UNL     1      34.525 -19.035 -22.909  0.00  0.00    +0.000 C 
ATOM      6  C   UNL     1      35.034 -17.911 -23.826  0.00  0.00    +0.004 C 
ATOM      7  C   UNL     1      34.426 -17.419 -20.966  0.00  0.00    +0.044 C 
ATOM      8  C   UNL     1      34.934 -16.298 -21.873  0.00  0.00    +0.169 C 
ATOM      9  C   UNL     1      34.551 -16.544 -23.331  0.00  0.00    +0.044 C 
ATOM     10  C   UNL     1      34.135 -19.882 -20.576  0.00  0.00    +0.000 C 
ATOM     11  C   UNL     1      36.387 -19.011 -21.183  0.00  0.00    +0.000 C 
ATOM     12  C   UNL     1      34.580 -18.149 -25.267  0.00  0.00    +0.000 C 
ENDBRANCH   3   8
ENDBRANCH   2   3
BRANCH   2  13
ATOM     13  C   UNL     1      32.822 -13.660 -22.586  0.00  0.00    +0.232 C 
BRANCH  13  14
ATOM     14  C   UNL     1      32.283 -12.495 -21.795  0.00  0.00    +0.015 C 
ATOM     15  C   UNL     1      32.016 -11.299 -22.442  0.00  0.00    -0.001 C 
ATOM     16  C   UNL     1      32.063 -12.640 -20.433  0.00  0.00    -0.001 C 
ATOM     17  C   UNL     1      31.517 -10.221 -21.710  0.00  0.00    -0.000 C 
ATOM     18  C   UNL     1      31.564 -11.562 -19.702  0.00  0.00    -0.000 C 
ATOM     19  C   UNL     1      31.291 -10.353 -20.341  0.00  0.00    -0.000 C 
ENDBRANCH  13  14
BRANCH  13  20
ATOM     20  O   UNL     1      34.062 -13.281 -23.168  0.00  0.00    -0.371 OA
ATOM     21  H   UNL     1      34.321 -13.938 -23.833  0.00  0.00    +0.211 HD
ENDBRANCH  13  20
ENDBRANCH   2  13
TORSDOF 5
ENDMDL
MODEL 4
REMARK VINA RESULT:      -8.7      4.858      9.640
REMARK  Name = 2893
REMARK  5 active torsions:
REMARK  status: ('A' for Active; 'I' for Inactive)
REMARK    1  A    between atoms: C_2  and  O_3
REMARK    2  A    between atoms: C_2  and  C_13
REMARK    3  A    between atoms: O_3  and  C_8
REMARK    4  A    between atoms: C_13  and  C_14
REMARK    5  A    between atoms: C_13  and  O_20
REMARK                            x       y       z     vdW  Elec       q    Type
REMARK                         _______ _______ _______ _____ _____    ______ ____
ROOT
ATOM      1  O   UNL     1      33.502 -24.199 -18.801  0.00  0.00    -0.247 OA
ATOM      2  C   UNL     1      34.007 -23.213 -18.279  0.00  0.00    +0.348 C 
ENDROOT
BRANCH   2   3
ATOM      3  O   UNL     1      33.671 -22.701 -17.056  0.00  0.00    -0.450 OA
BRANCH   3   8
ATOM      4  C   UNL     1      31.478 -23.653 -14.101  0.00  0.00    +0.003 C 
ATOM      5  C   UNL     1      30.178 -23.057 -14.690  0.00  0.00    +0.000 C 
ATOM      6  C   UNL     1      30.044 -23.250 -16.210  0.00  0.00    +0.004 C 
ATOM      7  C   UNL     1      32.698 -23.133 -14.892  0.00  0.00    +0.044 C 
ATOM      8  C   UNL     1      32.570 -23.327 -16.403  0.00  0.00    +0.169 C 
ATOM      9  C   UNL     1      31.280 -22.710 -16.937  0.00  0.00    +0.044 C 
ATOM     10  C   UNL     1      31.610 -23.212 -12.632  0.00  0.00    +0.000 C 
ATOM     11  C   UNL     1      31.432 -25.193 -14.129  0.00  0.00    +0.000 C 
ATOM     12  C   UNL     1      28.778 -22.565 -16.726  0.00  0.00    +0.000 C 
ENDBRANCH   3   8
ENDBRANCH   2   3
BRANCH   2  13
ATOM     13  C   UNL     1      35.130 -22.400 -18.893  0.00  0.00    +0.232 C 
BRANCH  13  14
ATOM     14  C   UNL     1      34.627 -21.240 -19.715  0.00  0.00    +0.015 C 
ATOM     15  C   UNL     1      33.265 -20.995 -19.784  0.00  0.00    -0.001 C 
ATOM     16  C   UNL     1      35.537 -20.438 -20.388  0.00  0.00    -0.001 C 
ATOM     17  C   UNL     1      32.801 -19.922 -20.544  0.00  0.00    -0.000 C 
ATOM     18  C   UNL     1      35.072 -19.365 -21.148  0.00  0.00    -0.000 C 
ATOM     19  C   UNL     1      33.704 -19.107 -21.226  0.00  0.00    -0.000 C 
ENDBRANCH  13  14
BRANCH  13  20
ATOM     20  O   UNL     1      35.960 -21.898 -17.856  0.00  0.00    -0.371 OA
ATOM     21  H   UNL     1      36.318 -21.035 -18.118  0.00  0.00    +0.211 HD
ENDBRANCH  13  20
ENDBRANCH   2  13
TORSDOF 5
ENDMDL
MODEL 5
REMARK VINA RESULT:      -8.7      1.941      6.528
REMARK  Name = 2893
REMARK  5 active torsions:
REMARK  status: ('A' for Active; 'I' for Inactive)
REMARK    1  A    between atoms: C_2  and  O_3
REMARK    2  A    between atoms: C_2  and  C_13
REMARK    3  A    between atoms: O_3  and  C_8
REMARK    4  A    between atoms: C_13  and  C_14
REMARK    5  A    between atoms: C_13  and  O_20
REMARK                            x       y       z     vdW  Elec       q    Type
REMARK                         _______ _______ _______ _____ _____    ______ ____
ROOT
ATOM      1  O   UNL     1      32.246 -15.430 -21.751  0.00  0.00    -0.247 OA
ATOM      2  C   UNL     1      33.148 -14.615 -21.903  0.00  0.00    +0.348 C 
ENDROOT
BRANCH   2   3
ATOM      3  O   UNL     1      34.471 -14.836 -21.640  0.00  0.00    -0.450 OA
BRANCH   3   8
ATOM      4  C   UNL     1      34.690 -18.628 -21.500  0.00  0.00    +0.003 C 
ATOM      5  C   UNL     1      34.405 -18.844 -23.006  0.00  0.00    +0.000 C 
ATOM      6  C   UNL     1      35.048 -17.782 -23.913  0.00  0.00    +0.004 C 
ATOM      7  C   UNL     1      34.326 -17.183 -21.100  0.00  0.00    +0.044 C 
ATOM      8  C   UNL     1      34.968 -16.124 -21.998  0.00  0.00    +0.169 C 
ATOM      9  C   UNL     1      34.646 -16.372 -23.469  0.00  0.00    +0.044 C 
ATOM     10  C   UNL     1      33.826 -19.606 -20.683  0.00  0.00    +0.000 C 
ATOM     11  C   UNL     1      36.168 -18.923 -21.180  0.00  0.00    +0.000 C 
ATOM     12  C   UNL     1      34.655 -18.016 -25.372  0.00  0.00    +0.000 C 
ENDBRANCH   3   8
ENDBRANCH   2   3
BRANCH   2  13
ATOM     13  C   UNL     1      32.952 -13.214 -22.447  0.00  0.00    +0.232 C 
BRANCH  13  14
ATOM     14  C   UNL     1      33.141 -13.137 -23.942  0.00  0.00    +0.015 C 
ATOM     15  C   UNL     1      33.720 -12.007 -24.497  0.00  0.00    -0.001 C 
ATOM     16  C   UNL     1      32.733 -14.199 -24.734  0.00  0.00    -0.001 C 
ATOM     17  C   UNL     1      33.895 -11.937 -25.879  0.00  0.00    -0.000 C 
ATOM     18  C   UNL     1      32.908 -14.129 -26.117  0.00  0.00    -0.000 C 
ATOM     19  C   UNL     1      33.489 -12.997 -26.689  0.00  0.00    -0.000 C 
ENDBRANCH  13  14
BRANCH  13  20
ATOM     20  O   UNL     1      31.640 -12.772 -22.131  0.00  0.00    -0.371 OA
ATOM     21  H   UNL     1      31.116 -13.521 -21.806  0.00  0.00    +0.211 HD
ENDBRANCH  13  20
ENDBRANCH   2  13
TORSDOF 5
ENDMDL
MODEL 6
REMARK VINA RESULT:      -8.6      3.782      6.576
REMARK  Name = 2893
REMARK  5 active torsions:
REMARK  status: ('A' for Active; 'I' for Inactive)
REMARK    1  A    between atoms: C_2  and  O_3
REMARK    2  A    between atoms: C_2  and  C_13
REMARK    3  A    between atoms: O_3  and  C_8
REMARK    4  A    between atoms: C_13  and  C_14
REMARK    5  A    between atoms: C_13  and  O_20
REMARK                            x       y       z     vdW  Elec       q    Type
REMARK                         _______ _______ _______ _____ _____    ______ ____
ROOT
ATOM      1  O   UNL     1      34.037 -12.093 -23.878  0.00  0.00    -0.247 OA
ATOM      2  C   UNL     1      32.938 -12.022 -23.342  0.00  0.00    +0.348 C 
ENDROOT
BRANCH   2   3
ATOM      3  O   UNL     1      32.180 -10.890 -23.227  0.00  0.00    -0.450 OA
BRANCH   3   8
ATOM      4  C   UNL     1      33.397  -7.306 -23.573  0.00  0.00    +0.003 C 
ATOM      5  C   UNL     1      32.798  -6.821 -22.231  0.00  0.00    +0.000 C 
ATOM      6  C   UNL     1      32.888  -7.863 -21.104  0.00  0.00    +0.004 C 
ATOM      7  C   UNL     1      32.790  -8.672 -23.955  0.00  0.00    +0.044 C 
ATOM      8  C   UNL     1      32.882  -9.712 -22.837  0.00  0.00    +0.169 C 
ATOM      9  C   UNL     1      32.265  -9.192 -21.541  0.00  0.00    +0.044 C 
ATOM     10  C   UNL     1      33.056  -6.282 -24.672  0.00  0.00    +0.000 C 
ATOM     11  C   UNL     1      34.932  -7.403 -23.479  0.00  0.00    +0.000 C 
ATOM     12  C   UNL     1      32.205  -7.342 -19.839  0.00  0.00    +0.000 C 
ENDBRANCH   3   8
ENDBRANCH   2   3
BRANCH   2  13
ATOM     13  C   UNL     1      32.206 -13.202 -22.732  0.00  0.00    +0.232 C 
BRANCH  13  14
ATOM     14  C   UNL     1      33.141 -14.293 -22.272  0.00  0.00    +0.015 C 
ATOM     15  C   UNL     1      33.507 -14.356 -20.937  0.00  0.00    -0.001 C 
ATOM     16  C   UNL     1      33.617 -15.215 -23.192  0.00  0.00    -0.001 C 
ATOM     17  C   UNL     1      34.371 -15.365 -20.511  0.00  0.00    -0.000 C 
ATOM     18  C   UNL     1      34.480 -16.224 -22.766  0.00  0.00    -0.000 C 
ATOM     19  C   UNL     1      34.858 -16.299 -21.425  0.00  0.00    -0.000 C 
ENDBRANCH  13  14
BRANCH  13  20
ATOM     20  O   UNL     1      31.447 -12.753 -21.619  0.00  0.00    -0.371 OA
ATOM     21  H   UNL     1      30.755 -12.145 -21.924  0.00  0.00    +0.211 HD
ENDBRANCH  13  20
ENDBRANCH   2  13
TORSDOF 5
ENDMDL
MODEL 7
REMARK VINA RESULT:      -8.5      5.799     11.298
REMARK  Name = 2893
REMARK  5 active torsions:
REMARK  status: ('A' for Active; 'I' for Inactive)
REMARK    1  A    between atoms: C_2  and  O_3
REMARK    2  A    between atoms: C_2  and  C_13
REMARK    3  A    between atoms: O_3  and  C_8
REMARK    4  A    between atoms: C_13  and  C_14
REMARK    5  A    between atoms: C_13  and  O_20
REMARK                            x       y       z     vdW  Elec       q    Type
REMARK                         _______ _______ _______ _____ _____    ______ ____
ROOT
ATOM      1  O   UNL     1      34.690 -23.320 -17.193  0.00  0.00    -0.247 OA
ATOM      2  C   UNL     1      35.679 -22.644 -16.935  0.00  0.00    +0.348 C 
ENDROOT
BRANCH   2   3
ATOM      3  O   UNL     1      36.240 -22.498 -15.696  0.00  0.00    -0.450 OA
BRANCH   3   8
ATOM      4  C   UNL     1      38.209 -25.315 -14.075  0.00  0.00    +0.003 C 
ATOM      5  C   UNL     1      37.664 -25.069 -12.648  0.00  0.00    +0.000 C 
ATOM      6  C   UNL     1      36.182 -24.663 -12.617  0.00  0.00    +0.004 C 
ATOM      7  C   UNL     1      37.890 -24.102 -14.975  0.00  0.00    +0.044 C 
ATOM      8  C   UNL     1      36.415 -23.699 -14.949  0.00  0.00    +0.169 C 
ATOM      9  C   UNL     1      35.929 -23.453 -13.523  0.00  0.00    +0.044 C 
ATOM     10  C   UNL     1      39.738 -25.495 -14.002  0.00  0.00    +0.000 C 
ATOM     11  C   UNL     1      37.611 -26.604 -14.671  0.00  0.00    +0.000 C 
ATOM     12  C   UNL     1      35.741 -24.359 -11.184  0.00  0.00    +0.000 C 
ENDBRANCH   3   8
ENDBRANCH   2   3
BRANCH   2  13
ATOM     13  C   UNL     1      36.480 -21.871 -17.964  0.00  0.00    +0.232 C 
BRANCH  13  14
ATOM     14  C   UNL     1      35.614 -21.264 -19.040  0.00  0.00    +0.015 C 
ATOM     15  C   UNL     1      36.197 -20.469 -20.013  0.00  0.00    -0.001 C 
ATOM     16  C   UNL     1      34.250 -21.513 -19.037  0.00  0.00    -0.001 C 
ATOM     17  C   UNL     1      35.397 -19.908 -21.009  0.00  0.00    -0.000 C 
ATOM     18  C   UNL     1      33.450 -20.952 -20.032  0.00  0.00    -0.000 C 
ATOM     19  C   UNL     1      34.024 -20.149 -21.018  0.00  0.00    -0.000 C 
ENDBRANCH  13  14
BRANCH  13  20
ATOM     20  O   UNL     1      37.192 -20.829 -17.311  0.00  0.00    -0.371 OA
ATOM     21  H   UNL     1      37.906 -20.516 -17.886  0.00  0.00    +0.211 HD
ENDBRANCH  13  20
ENDBRANCH   2  13
TORSDOF 5
ENDMDL
MODEL 8
REMARK VINA RESULT:      -8.5      3.775      7.379
REMARK  Name = 2893
REMARK  5 active torsions:
REMARK  status: ('A' for Active; 'I' for Inactive)
REMARK    1  A    between atoms: C_2  and  O_3
REMARK    2  A    between atoms: C_2  and  C_13
REMARK    3  A    between atoms: O_3  and  C_8
REMARK    4  A    between atoms: C_13  and  C_14
REMARK    5  A    between atoms: C_13  and  O_20
REMARK                            x       y       z     vdW  Elec       q    Type
REMARK                         _______ _______ _______ _____ _____    ______ ____
ROOT
ATOM      1  O   UNL     1      34.451 -10.619 -23.757  0.00  0.00    -0.247 OA
ATOM      2  C   UNL     1      33.299 -11.038 -23.750  0.00  0.00    +0.348 C 
ENDROOT
BRANCH   2   3
ATOM      3  O   UNL     1      32.915 -12.311 -24.068  0.00  0.00    -0.450 OA
BRANCH   3   8
ATOM      4  C   UNL     1      33.364 -15.124 -21.551  0.00  0.00    +0.003 C 
ATOM      5  C   UNL     1      33.729 -16.199 -22.601  0.00  0.00    +0.000 C 
ATOM      6  C   UNL     1      34.596 -15.666 -23.754  0.00  0.00    +0.004 C 
ATOM      7  C   UNL     1      32.753 -13.892 -22.252  0.00  0.00    +0.044 C 
ATOM      8  C   UNL     1      33.615 -13.356 -23.396  0.00  0.00    +0.169 C 
ATOM      9  C   UNL     1      33.936 -14.450 -24.412  0.00  0.00    +0.044 C 
ATOM     10  C   UNL     1      32.324 -15.710 -20.576  0.00  0.00    +0.000 C 
ATOM     11  C   UNL     1      34.605 -14.721 -20.731  0.00  0.00    +0.000 C 
ATOM     12  C   UNL     1      34.846 -16.764 -24.788  0.00  0.00    +0.000 C 
ENDBRANCH   3   8
ENDBRANCH   2   3
BRANCH   2  13
ATOM     13  C   UNL     1      32.091 -10.214 -23.351  0.00  0.00    +0.232 C 
BRANCH  13  14
ATOM     14  C   UNL     1      31.903 -10.142 -21.856  0.00  0.00    +0.015 C 
ATOM     15  C   UNL     1      32.294  -9.000 -21.175  0.00  0.00    -0.001 C 
ATOM     16  C   UNL     1      31.341 -11.220 -21.188  0.00  0.00    -0.001 C 
ATOM     17  C   UNL     1      32.119  -8.933 -19.793  0.00  0.00    -0.000 C 
ATOM     18  C   UNL     1      31.166 -11.153 -19.806  0.00  0.00    -0.000 C 
ATOM     19  C   UNL     1      31.556 -10.009 -19.108  0.00  0.00    -0.000 C 
ENDBRANCH  13  14
BRANCH  13  20
ATOM     20  O   UNL     1      32.243  -8.894 -23.854  0.00  0.00    -0.371 OA
ATOM     21  H   UNL     1      33.173  -8.739 -24.082  0.00  0.00    +0.211 HD
ENDBRANCH  13  20
ENDBRANCH   2  13
TORSDOF 5
ENDMDL
MODEL 9
REMARK VINA RESULT:      -8.4      3.848      8.510
REMARK  Name = 2893
REMARK  5 active torsions:
REMARK  status: ('A' for Active; 'I' for Inactive)
REMARK    1  A    between atoms: C_2  and  O_3
REMARK    2  A    between atoms: C_2  and  C_13
REMARK    3  A    between atoms: O_3  and  C_8
REMARK    4  A    between atoms: C_13  and  C_14
REMARK    5  A    between atoms: C_13  and  O_20
REMARK                            x       y       z     vdW  Elec       q    Type
REMARK                         _______ _______ _______ _____ _____    ______ ____
ROOT
ATOM      1  O   UNL     1      33.886 -10.408 -23.736  0.00  0.00    -0.247 OA
ATOM      2  C   UNL     1      32.926 -11.007 -23.265  0.00  0.00    +0.348 C 
ENDROOT
BRANCH   2   3
ATOM      3  O   UNL     1      32.542 -12.277 -23.596  0.00  0.00    -0.450 OA
BRANCH   3   8
ATOM      4  C   UNL     1      33.271 -15.290 -21.397  0.00  0.00    +0.003 C 
ATOM      5  C   UNL     1      33.689 -16.219 -22.561  0.00  0.00    +0.000 C 
ATOM      6  C   UNL     1      34.481 -15.503 -23.667  0.00  0.00    +0.004 C 
ATOM      7  C   UNL     1      32.550 -14.044 -21.954  0.00  0.00    +0.044 C 
ATOM      8  C   UNL     1      33.338 -13.327 -23.051  0.00  0.00    +0.169 C 
ATOM      9  C   UNL     1      33.713 -14.281 -24.182  0.00  0.00    +0.044 C 
ATOM     10  C   UNL     1      32.306 -16.053 -20.470  0.00  0.00    +0.000 C 
ATOM     11  C   UNL     1      34.499 -14.878 -20.563  0.00  0.00    +0.000 C 
ATOM     12  C   UNL     1      34.786 -16.466 -24.816  0.00  0.00    +0.000 C 
ENDBRANCH   3   8
ENDBRANCH   2   3
BRANCH   2  13
ATOM     13  C   UNL     1      32.008 -10.447 -22.197  0.00  0.00    +0.232 C 
BRANCH  13  14
ATOM     14  C   UNL     1      31.867  -8.947 -22.277  0.00  0.00    +0.015 C 
ATOM     15  C   UNL     1      31.184  -8.385 -23.344  0.00  0.00    -0.001 C 
ATOM     16  C   UNL     1      32.421  -8.157 -21.282  0.00  0.00    -0.001 C 
ATOM     17  C   UNL     1      31.053  -6.998 -23.419  0.00  0.00    -0.000 C 
ATOM     18  C   UNL     1      32.290  -6.770 -21.356  0.00  0.00    -0.000 C 
ATOM     19  C   UNL     1      31.606  -6.191 -22.425  0.00  0.00    -0.000 C 
ENDBRANCH  13  14
BRANCH  13  20
ATOM     20  O   UNL     1      30.722 -11.033 -22.335  0.00  0.00    -0.371 OA
ATOM     21  H   UNL     1      30.817 -11.981 -22.521  0.00  0.00    +0.211 HD
ENDBRANCH  13  20
ENDBRANCH   2  13
TORSDOF 5
ENDMDL
