MODEL 1
REMARK VINA RESULT:      -7.8      0.000      0.000
REMARK  Name = 242831
REMARK  0 active torsions:
REMARK  status: ('A' for Active; 'I' for Inactive)
REMARK                            x       y       z     vdW  Elec       q    Type
REMARK                         _______ _______ _______ _____ _____    ______ ____
ROOT
ATOM      1  O   UNL     1      36.746 -22.073 -18.398  0.00  0.00    -0.209 OA
ATOM      2  N   UNL     1      32.767 -21.943 -18.849  0.00  0.00    -0.275 N 
ATOM      3  N   UNL     1      34.682 -22.807 -17.728  0.00  0.00    -0.302 NA
ATOM      4  N   UNL     1      32.506 -23.465 -17.153  0.00  0.00    -0.320 N 
ATOM      5  C   UNL     1      33.538 -21.142 -19.694  0.00  0.00    +0.063 C 
ATOM      6  C   UNL     1      34.932 -21.165 -19.561  0.00  0.00    +0.108 C 
ATOM      7  C   UNL     1      32.956 -20.321 -20.664  0.00  0.00    +0.015 C 
ATOM      8  C   UNL     1      35.740 -20.378 -20.387  0.00  0.00    +0.014 C 
ATOM      9  C   UNL     1      35.524 -22.048 -18.519  0.00  0.00    +0.208 C 
ATOM     10  C   UNL     1      33.388 -22.733 -17.910  0.00  0.00    +0.248 C 
ATOM     11  C   UNL     1      33.761 -19.535 -21.490  0.00  0.00    +0.001 C 
ATOM     12  C   UNL     1      35.149 -19.563 -21.352  0.00  0.00    +0.001 C 
ATOM     13  H   UNL     1      31.786 -21.941 -18.925  0.00  0.00    +0.156 HD
ATOM     14  H   UNL     1      31.538 -23.388 -17.315  0.00  0.00    +0.146 HD
ATOM     15  H   UNL     1      32.841 -24.066 -16.450  0.00  0.00    +0.146 HD
ENDROOT
TORSDOF 0
ENDMDL
MODEL 2
REMARK VINA RESULT:      -7.5      5.859      7.089
REMARK  Name = 242831
REMARK  0 active torsions:
REMARK  status: ('A' for Active; 'I' for Inactive)
REMARK                            x       y       z     vdW  Elec       q    Type
REMARK                         _______ _______ _______ _____ _____    ______ ____
ROOT
ATOM      1  O   UNL     1      34.944 -16.266 -20.246  0.00  0.00    -0.209 OA
ATOM      2  N   UNL     1      34.283 -15.287 -24.074  0.00  0.00    -0.275 N 
ATOM      3  N   UNL     1      34.520 -14.633 -21.797  0.00  0.00    -0.302 NA
ATOM      4  N   UNL     1      34.083 -13.077 -23.494  0.00  0.00    -0.320 N 
ATOM      5  C   UNL     1      34.495 -16.635 -23.782  0.00  0.00    +0.063 C 
ATOM      6  C   UNL     1      34.729 -17.010 -22.453  0.00  0.00    +0.108 C 
ATOM      7  C   UNL     1      34.480 -17.616 -24.777  0.00  0.00    +0.015 C 
ATOM      8  C   UNL     1      34.946 -18.349 -22.117  0.00  0.00    +0.014 C 
ATOM      9  C   UNL     1      34.740 -15.944 -21.413  0.00  0.00    +0.208 C 
ATOM     10  C   UNL     1      34.308 -14.359 -23.059  0.00  0.00    +0.248 C 
ATOM     11  C   UNL     1      34.697 -18.954 -24.444  0.00  0.00    +0.001 C 
ATOM     12  C   UNL     1      34.929 -19.320 -23.118  0.00  0.00    +0.001 C 
ATOM     13  H   UNL     1      34.118 -15.002 -25.002  0.00  0.00    +0.156 HD
ATOM     14  H   UNL     1      33.927 -12.902 -24.451  0.00  0.00    +0.146 HD
ATOM     15  H   UNL     1      34.079 -12.332 -22.851  0.00  0.00    +0.146 HD
ENDROOT
TORSDOF 0
ENDMDL
MODEL 3
REMARK VINA RESULT:      -7.5      1.955      2.843
REMARK  Name = 242831
REMARK  0 active torsions:
REMARK  status: ('A' for Active; 'I' for Inactive)
REMARK                            x       y       z     vdW  Elec       q    Type
REMARK                         _______ _______ _______ _____ _____    ______ ____
ROOT
ATOM      1  O   UNL     1      32.179 -20.000 -20.853  0.00  0.00    -0.209 OA
ATOM      2  N   UNL     1      35.091 -22.065 -19.034  0.00  0.00    -0.275 N 
ATOM      3  N   UNL     1      32.778 -21.755 -19.506  0.00  0.00    -0.302 NA
ATOM      4  N   UNL     1      33.542 -23.504 -18.146  0.00  0.00    -0.320 N 
ATOM      5  C   UNL     1      35.467 -20.961 -19.801  0.00  0.00    +0.063 C 
ATOM      6  C   UNL     1      34.472 -20.218 -20.450  0.00  0.00    +0.108 C 
ATOM      7  C   UNL     1      36.804 -20.580 -19.937  0.00  0.00    +0.015 C 
ATOM      8  C   UNL     1      34.806 -19.106 -21.227  0.00  0.00    +0.014 C 
ATOM      9  C   UNL     1      33.056 -20.647 -20.287  0.00  0.00    +0.208 C 
ATOM     10  C   UNL     1      33.761 -22.399 -18.931  0.00  0.00    +0.248 C 
ATOM     11  C   UNL     1      37.140 -19.469 -20.713  0.00  0.00    +0.001 C 
ATOM     12  C   UNL     1      36.144 -18.734 -21.357  0.00  0.00    +0.001 C 
ATOM     13  H   UNL     1      35.774 -22.601 -18.570  0.00  0.00    +0.156 HD
ATOM     14  H   UNL     1      34.302 -23.968 -17.726  0.00  0.00    +0.146 HD
ATOM     15  H   UNL     1      32.626 -23.833 -18.003  0.00  0.00    +0.146 HD
ENDROOT
TORSDOF 0
ENDMDL
MODEL 4
REMARK VINA RESULT:      -7.4      6.846      8.395
REMARK  Name = 242831
REMARK  0 active torsions:
REMARK  status: ('A' for Active; 'I' for Inactive)
REMARK                            x       y       z     vdW  Elec       q    Type
REMARK                         _______ _______ _______ _____ _____    ______ ____
ROOT
ATOM      1  O   UNL     1      33.096 -15.904 -26.652  0.00  0.00    -0.209 OA
ATOM      2  N   UNL     1      34.580 -14.803 -23.098  0.00  0.00    -0.275 N 
ATOM      3  N   UNL     1      33.454 -14.239 -25.119  0.00  0.00    -0.302 NA
ATOM      4  N   UNL     1      33.893 -12.644 -23.459  0.00  0.00    -0.320 N 
ATOM      5  C   UNL     1      34.717 -16.142 -23.466  0.00  0.00    +0.063 C 
ATOM      6  C   UNL     1      34.208 -16.559 -24.703  0.00  0.00    +0.108 C 
ATOM      7  C   UNL     1      35.346 -17.073 -22.636  0.00  0.00    +0.015 C 
ATOM      8  C   UNL     1      34.324 -17.891 -25.110  0.00  0.00    +0.014 C 
ATOM      9  C   UNL     1      33.543 -15.545 -25.567  0.00  0.00    +0.208 C 
ATOM     10  C   UNL     1      33.953 -13.924 -23.952  0.00  0.00    +0.248 C 
ATOM     11  C   UNL     1      35.463 -18.405 -23.040  0.00  0.00    +0.001 C 
ATOM     12  C   UNL     1      34.954 -18.813 -24.273  0.00  0.00    +0.001 C 
ATOM     13  H   UNL     1      34.930 -14.489 -22.233  0.00  0.00    +0.156 HD
ATOM     14  H   UNL     1      34.278 -12.438 -22.576  0.00  0.00    +0.146 HD
ATOM     15  H   UNL     1      33.465 -11.933 -23.987  0.00  0.00    +0.146 HD
ENDROOT
TORSDOF 0
ENDMDL
MODEL 5
REMARK VINA RESULT:      -7.4      1.836      2.896
REMARK  Name = 242831
REMARK  0 active torsions:
REMARK  status: ('A' for Active; 'I' for Inactive)
REMARK                            x       y       z     vdW  Elec       q    Type
REMARK                         _______ _______ _______ _____ _____    ______ ____
ROOT
ATOM      1  O   UNL     1      32.980 -22.071 -19.611  0.00  0.00    -0.209 OA
ATOM      2  N   UNL     1      36.736 -20.769 -19.118  0.00  0.00    -0.275 N 
ATOM      3  N   UNL     1      34.970 -22.235 -18.486  0.00  0.00    -0.302 NA
ATOM      4  N   UNL     1      37.060 -22.285 -17.427  0.00  0.00    -0.320 N 
ATOM      5  C   UNL     1      35.967 -20.156 -20.108  0.00  0.00    +0.063 C 
ATOM      6  C   UNL     1      34.650 -20.588 -20.305  0.00  0.00    +0.108 C 
ATOM      7  C   UNL     1      36.476 -19.126 -20.904  0.00  0.00    +0.015 C 
ATOM      8  C   UNL     1      33.846 -20.001 -21.286  0.00  0.00    +0.014 C 
ATOM      9  C   UNL     1      34.134 -21.687 -19.443  0.00  0.00    +0.208 C 
ATOM     10  C   UNL     1      36.190 -21.779 -18.360  0.00  0.00    +0.248 C 
ATOM     11  C   UNL     1      35.675 -18.538 -21.884  0.00  0.00    +0.001 C 
ATOM     12  C   UNL     1      34.363 -18.974 -22.075  0.00  0.00    +0.001 C 
ATOM     13  H   UNL     1      37.665 -20.481 -18.963  0.00  0.00    +0.156 HD
ATOM     14  H   UNL     1      37.972 -21.921 -17.357  0.00  0.00    +0.146 HD
ATOM     15  H   UNL     1      36.774 -23.012 -16.830  0.00  0.00    +0.146 HD
ENDROOT
TORSDOF 0
ENDMDL
MODEL 6
REMARK VINA RESULT:      -7.4      7.163      8.395
REMARK  Name = 242831
REMARK  0 active torsions:
REMARK  status: ('A' for Active; 'I' for Inactive)
REMARK                            x       y       z     vdW  Elec       q    Type
REMARK                         _______ _______ _______ _____ _____    ______ ____
ROOT
ATOM      1  O   UNL     1      34.659 -17.859 -25.514  0.00  0.00    -0.209 OA
ATOM      2  N   UNL     1      33.348 -14.209 -24.511  0.00  0.00    -0.275 N 
ATOM      3  N   UNL     1      33.709 -15.880 -26.169  0.00  0.00    -0.302 NA
ATOM      4  N   UNL     1      32.749 -13.805 -26.688  0.00  0.00    -0.320 N 
ATOM      5  C   UNL     1      33.880 -15.004 -23.494  0.00  0.00    +0.063 C 
ATOM      6  C   UNL     1      34.346 -16.286 -23.813  0.00  0.00    +0.108 C 
ATOM      7  C   UNL     1      33.957 -14.556 -22.173  0.00  0.00    +0.015 C 
ATOM      8  C   UNL     1      34.886 -17.114 -22.825  0.00  0.00    +0.014 C 
ATOM      9  C   UNL     1      34.251 -16.737 -25.229  0.00  0.00    +0.208 C 
ATOM     10  C   UNL     1      33.294 -14.696 -25.797  0.00  0.00    +0.248 C 
ATOM     11  C   UNL     1      34.495 -15.382 -21.185  0.00  0.00    +0.001 C 
ATOM     12  C   UNL     1      34.958 -16.657 -21.509  0.00  0.00    +0.001 C 
ATOM     13  H   UNL     1      33.014 -13.305 -24.309  0.00  0.00    +0.156 HD
ATOM     14  H   UNL     1      32.445 -12.921 -26.377  0.00  0.00    +0.146 HD
ATOM     15  H   UNL     1      32.661 -14.049 -27.637  0.00  0.00    +0.146 HD
ENDROOT
TORSDOF 0
ENDMDL
MODEL 7
REMARK VINA RESULT:      -7.2      4.907      6.204
REMARK  Name = 242831
REMARK  0 active torsions:
REMARK  status: ('A' for Active; 'I' for Inactive)
REMARK                            x       y       z     vdW  Elec       q    Type
REMARK                         _______ _______ _______ _____ _____    ______ ____
ROOT
ATOM      1  O   UNL     1      34.338 -14.920 -20.614  0.00  0.00    -0.209 OA
ATOM      2  N   UNL     1      35.454 -18.228 -22.580  0.00  0.00    -0.275 N 
ATOM      3  N   UNL     1      35.294 -17.001 -20.545  0.00  0.00    -0.302 NA
ATOM      4  N   UNL     1      36.248 -19.140 -20.631  0.00  0.00    -0.320 N 
ATOM      5  C   UNL     1      34.849 -17.211 -23.321  0.00  0.00    +0.063 C 
ATOM      6  C   UNL     1      34.447 -16.042 -22.662  0.00  0.00    +0.108 C 
ATOM      7  C   UNL     1      34.635 -17.331 -24.696  0.00  0.00    +0.015 C 
ATOM      8  C   UNL     1      33.838 -15.000 -23.367  0.00  0.00    +0.014 C 
ATOM      9  C   UNL     1      34.688 -15.943 -21.196  0.00  0.00    +0.208 C 
ATOM     10  C   UNL     1      35.642 -18.062 -21.227  0.00  0.00    +0.248 C 
ATOM     11  C   UNL     1      34.026 -16.292 -25.403  0.00  0.00    +0.001 C 
ATOM     12  C   UNL     1      33.629 -15.130 -24.740  0.00  0.00    +0.001 C 
ATOM     13  H   UNL     1      35.743 -19.058 -23.022  0.00  0.00    +0.156 HD
ATOM     14  H   UNL     1      36.498 -19.925 -21.171  0.00  0.00    +0.146 HD
ATOM     15  H   UNL     1      36.432 -19.130 -19.664  0.00  0.00    +0.146 HD
ENDROOT
TORSDOF 0
ENDMDL
MODEL 8
REMARK VINA RESULT:      -7.2      3.206      4.483
REMARK  Name = 242831
REMARK  0 active torsions:
REMARK  status: ('A' for Active; 'I' for Inactive)
REMARK                            x       y       z     vdW  Elec       q    Type
REMARK                         _______ _______ _______ _____ _____    ______ ____
ROOT
ATOM      1  O   UNL     1      37.691 -19.303 -20.984  0.00  0.00    -0.209 OA
ATOM      2  N   UNL     1      33.779 -18.532 -21.369  0.00  0.00    -0.275 N 
ATOM      3  N   UNL     1      36.044 -17.920 -21.776  0.00  0.00    -0.302 NA
ATOM      4  N   UNL     1      34.253 -16.606 -22.522  0.00  0.00    -0.320 N 
ATOM      5  C   UNL     1      34.142 -19.693 -20.685  0.00  0.00    +0.063 C 
ATOM      6  C   UNL     1      35.502 -19.991 -20.533  0.00  0.00    +0.108 C 
ATOM      7  C   UNL     1      33.187 -20.561 -20.150  0.00  0.00    +0.015 C 
ATOM      8  C   UNL     1      35.909 -21.143 -19.855  0.00  0.00    +0.014 C 
ATOM      9  C   UNL     1      36.497 -19.047 -21.114  0.00  0.00    +0.208 C 
ATOM     10  C   UNL     1      34.757 -17.708 -21.877  0.00  0.00    +0.248 C 
ATOM     11  C   UNL     1      33.591 -21.713 -19.472  0.00  0.00    +0.001 C 
ATOM     12  C   UNL     1      34.947 -22.003 -19.325  0.00  0.00    +0.001 C 
ATOM     13  H   UNL     1      32.828 -18.304 -21.487  0.00  0.00    +0.156 HD
ATOM     14  H   UNL     1      33.278 -16.474 -22.582  0.00  0.00    +0.146 HD
ATOM     15  H   UNL     1      34.864 -15.949 -22.925  0.00  0.00    +0.146 HD
ENDROOT
TORSDOF 0
ENDMDL
MODEL 9
REMARK VINA RESULT:      -7.1      6.943      8.257
REMARK  Name = 242831
REMARK  0 active torsions:
REMARK  status: ('A' for Active; 'I' for Inactive)
REMARK                            x       y       z     vdW  Elec       q    Type
REMARK                         _______ _______ _______ _____ _____    ______ ____
ROOT
ATOM      1  O   UNL     1      34.520 -14.104 -22.424  0.00  0.00    -0.209 OA
ATOM      2  N   UNL     1      33.461 -16.020 -25.779  0.00  0.00    -0.275 N 
ATOM      3  N   UNL     1      33.483 -14.033 -24.466  0.00  0.00    -0.302 NA
ATOM      4  N   UNL     1      32.461 -14.115 -26.574  0.00  0.00    -0.320 N 
ATOM      5  C   UNL     1      34.168 -16.746 -24.819  0.00  0.00    +0.063 C 
ATOM      6  C   UNL     1      34.553 -16.104 -23.634  0.00  0.00    +0.108 C 
ATOM      7  C   UNL     1      34.500 -18.089 -25.008  0.00  0.00    +0.015 C 
ATOM      8  C   UNL     1      35.262 -16.794 -22.647  0.00  0.00    +0.014 C 
ATOM      9  C   UNL     1      34.185 -14.672 -23.460  0.00  0.00    +0.208 C 
ATOM     10  C   UNL     1      33.158 -14.698 -25.545  0.00  0.00    +0.248 C 
ATOM     11  C   UNL     1      35.208 -18.781 -24.024  0.00  0.00    +0.001 C 
ATOM     12  C   UNL     1      35.588 -18.136 -22.847  0.00  0.00    +0.001 C 
ATOM     13  H   UNL     1      33.182 -16.451 -26.619  0.00  0.00    +0.156 HD
ATOM     14  H   UNL     1      32.231 -14.642 -27.373  0.00  0.00    +0.146 HD
ATOM     15  H   UNL     1      32.192 -13.170 -26.513  0.00  0.00    +0.146 HD
ENDROOT
TORSDOF 0
ENDMDL
