MODEL 1
REMARK VINA RESULT:      -9.5      0.000      0.000
REMARK  Name = 3343
REMARK  10 active torsions:
REMARK  status: ('A' for Active; 'I' for Inactive)
REMARK    1  A    between atoms: N_1  and  C_4
REMARK    2  A    between atoms: N_1  and  C_15
REMARK    3  A    between atoms: C_4  and  C_6
REMARK    4  A    between atoms: C_6  and  C_7
REMARK    5  A    between atoms: C_12  and  O_13
REMARK    6  A    between atoms: C_15  and  C_16
REMARK    7  A    between atoms: C_16  and  C_17
REMARK    8  A    between atoms: C_16  and  O_27
REMARK    9  A    between atoms: C_20  and  O_23
REMARK   10  A    between atoms: C_21  and  O_25
REMARK                            x       y       z     vdW  Elec       q    Type
REMARK                         _______ _______ _______ _____ _____    ______ ____
ROOT
ATOM      1  N   UNL     1      35.338 -16.501 -23.310  0.00  0.00    +0.387 N 
ATOM      2  H   UNL     1      35.211 -16.272 -24.295  0.00  0.00    -0.084 HD
ATOM      3  H   UNL     1      36.326 -16.466 -23.062  0.00  0.00    -0.084 HD
ENDROOT
BRANCH   1   4
ATOM      4  C   UNL     1      34.836 -17.857 -23.063  0.00  0.00    -0.057 C 
ATOM      5  C   UNL     1      34.848 -18.623 -24.386  0.00  0.00    -0.023 C 
BRANCH   4   6
ATOM      6  C   UNL     1      35.698 -18.533 -21.982  0.00  0.00    +0.005 C 
BRANCH   6   7
ATOM      7  C   UNL     1      34.937 -19.524 -21.134  0.00  0.00    -0.024 C 
ATOM      8  C   UNL     1      33.556 -19.438 -21.064  0.00  0.00    -0.001 C 
ATOM      9  C   UNL     1      35.634 -20.501 -20.442  0.00  0.00    -0.001 C 
ATOM     10  C   UNL     1      32.853 -20.353 -20.281  0.00  0.00    +0.036 C 
ATOM     11  C   UNL     1      34.931 -21.416 -19.658  0.00  0.00    +0.036 C 
ATOM     12  C   UNL     1      33.541 -21.343 -19.578  0.00  0.00    +0.134 C 
BRANCH  12  13
ATOM     13  O   UNL     1      32.855 -22.237 -18.814  0.00  0.00    -0.506 OA
ATOM     14  H   UNL     1      33.315 -22.911 -18.356  0.00  0.00    +0.292 HD
ENDBRANCH  12  13
ENDBRANCH   6   7
ENDBRANCH   4   6
ENDBRANCH   1   4
BRANCH   1  15
ATOM     15  C   UNL     1      34.617 -15.534 -22.498  0.00  0.00    -0.047 C 
BRANCH  15  16
ATOM     16  C   UNL     1      33.288 -15.148 -23.161  0.00  0.00    +0.112 C 
BRANCH  16  17
ATOM     17  C   UNL     1      33.465 -14.000 -24.130  0.00  0.00    +0.008 C 
ATOM     18  C   UNL     1      33.188 -14.198 -25.472  0.00  0.00    +0.035 C 
ATOM     19  C   UNL     1      33.901 -12.775 -23.653  0.00  0.00    +0.035 C 
ATOM     20  C   UNL     1      34.064 -11.716 -24.545  0.00  0.00    +0.136 C 
ATOM     21  C   UNL     1      33.351 -13.138 -26.363  0.00  0.00    +0.136 C 
ATOM     22  C   UNL     1      33.790 -11.897 -25.901  0.00  0.00    +0.073 C 
BRANCH  20  23
ATOM     23  O   UNL     1      34.491 -10.505 -24.095  0.00  0.00    -0.505 OA
ATOM     24  H   UNL     1      35.257 -10.448 -23.557  0.00  0.00    +0.292 HD
ENDBRANCH  20  23
BRANCH  21  25
ATOM     25  O   UNL     1      33.082 -13.315 -27.687  0.00  0.00    -0.505 OA
ATOM     26  H   UNL     1      32.779 -14.147 -27.996  0.00  0.00    +0.292 HD
ENDBRANCH  21  25
ENDBRANCH  16  17
BRANCH  16  27
ATOM     27  O   UNL     1      32.339 -14.756 -22.172  0.00  0.00    -0.382 OA
ATOM     28  H   UNL     1      32.442 -15.313 -21.385  0.00  0.00    +0.211 HD
ENDBRANCH  16  27
ENDBRANCH  15  16
ENDBRANCH   1  15
TORSDOF 10
ENDMDL
MODEL 2
REMARK VINA RESULT:      -9.5      0.046      1.770
REMARK  Name = 3343
REMARK  10 active torsions:
REMARK  status: ('A' for Active; 'I' for Inactive)
REMARK    1  A    between atoms: N_1  and  C_4
REMARK    2  A    between atoms: N_1  and  C_15
REMARK    3  A    between atoms: C_4  and  C_6
REMARK    4  A    between atoms: C_6  and  C_7
REMARK    5  A    between atoms: C_12  and  O_13
REMARK    6  A    between atoms: C_15  and  C_16
REMARK    7  A    between atoms: C_16  and  C_17
REMARK    8  A    between atoms: C_16  and  O_27
REMARK    9  A    between atoms: C_20  and  O_23
REMARK   10  A    between atoms: C_21  and  O_25
REMARK                            x       y       z     vdW  Elec       q    Type
REMARK                         _______ _______ _______ _____ _____    ______ ____
ROOT
ATOM      1  N   UNL     1      35.327 -16.556 -23.329  0.00  0.00    +0.387 N 
ATOM      2  H   UNL     1      35.183 -16.344 -24.315  0.00  0.00    -0.084 HD
ATOM      3  H   UNL     1      36.320 -16.523 -23.100  0.00  0.00    -0.084 HD
ENDROOT
BRANCH   1   4
ATOM      4  C   UNL     1      34.822 -17.904 -23.048  0.00  0.00    -0.057 C 
ATOM      5  C   UNL     1      34.834 -18.704 -24.351  0.00  0.00    -0.023 C 
BRANCH   4   6
ATOM      6  C   UNL     1      35.681 -18.554 -21.948  0.00  0.00    +0.005 C 
BRANCH   6   7
ATOM      7  C   UNL     1      34.926 -19.551 -21.102  0.00  0.00    -0.024 C 
ATOM      8  C   UNL     1      33.549 -19.452 -21.002  0.00  0.00    -0.001 C 
ATOM      9  C   UNL     1      35.627 -20.547 -20.441  0.00  0.00    -0.001 C 
ATOM     10  C   UNL     1      32.852 -20.373 -20.221  0.00  0.00    +0.036 C 
ATOM     11  C   UNL     1      34.930 -21.469 -19.659  0.00  0.00    +0.036 C 
ATOM     12  C   UNL     1      33.543 -21.382 -19.549  0.00  0.00    +0.134 C 
BRANCH  12  13
ATOM     13  O   UNL     1      32.863 -22.281 -18.786  0.00  0.00    -0.506 OA
ATOM     14  H   UNL     1      32.045 -22.041 -18.398  0.00  0.00    +0.292 HD
ENDBRANCH  12  13
ENDBRANCH   6   7
ENDBRANCH   4   6
ENDBRANCH   1   4
BRANCH   1  15
ATOM     15  C   UNL     1      34.627 -15.570 -22.521  0.00  0.00    -0.047 C 
BRANCH  15  16
ATOM     16  C   UNL     1      33.297 -15.176 -23.175  0.00  0.00    +0.112 C 
BRANCH  16  17
ATOM     17  C   UNL     1      33.473 -14.021 -24.137  0.00  0.00    +0.008 C 
ATOM     18  C   UNL     1      33.892 -12.794 -23.651  0.00  0.00    +0.035 C 
ATOM     19  C   UNL     1      33.211 -14.217 -25.482  0.00  0.00    +0.035 C 
ATOM     20  C   UNL     1      33.373 -13.153 -26.370  0.00  0.00    +0.136 C 
ATOM     21  C   UNL     1      34.054 -11.731 -24.539  0.00  0.00    +0.136 C 
ATOM     22  C   UNL     1      33.795 -11.910 -25.898  0.00  0.00    +0.073 C 
BRANCH  20  23
ATOM     23  O   UNL     1      33.121 -13.328 -27.695  0.00  0.00    -0.505 OA
ATOM     24  H   UNL     1      33.039 -12.583 -28.259  0.00  0.00    +0.292 HD
ENDBRANCH  20  23
BRANCH  21  25
ATOM     25  O   UNL     1      34.466 -10.518 -24.079  0.00  0.00    -0.505 OA
ATOM     26  H   UNL     1      33.943  -9.755 -24.236  0.00  0.00    +0.292 HD
ENDBRANCH  21  25
ENDBRANCH  16  17
BRANCH  16  27
ATOM     27  O   UNL     1      32.354 -14.786 -22.178  0.00  0.00    -0.382 OA
ATOM     28  H   UNL     1      32.472 -13.846 -21.970  0.00  0.00    +0.211 HD
ENDBRANCH  16  27
ENDBRANCH  15  16
ENDBRANCH   1  15
TORSDOF 10
ENDMDL
MODEL 3
REMARK VINA RESULT:      -9.3      1.352      2.119
REMARK  Name = 3343
REMARK  10 active torsions:
REMARK  status: ('A' for Active; 'I' for Inactive)
REMARK    1  A    between atoms: N_1  and  C_4
REMARK    2  A    between atoms: N_1  and  C_15
REMARK    3  A    between atoms: C_4  and  C_6
REMARK    4  A    between atoms: C_6  and  C_7
REMARK    5  A    between atoms: C_12  and  O_13
REMARK    6  A    between atoms: C_15  and  C_16
REMARK    7  A    between atoms: C_16  and  C_17
REMARK    8  A    between atoms: C_16  and  O_27
REMARK    9  A    between atoms: C_20  and  O_23
REMARK   10  A    between atoms: C_21  and  O_25
REMARK                            x       y       z     vdW  Elec       q    Type
REMARK                         _______ _______ _______ _____ _____    ______ ____
ROOT
ATOM      1  N   UNL     1      35.312 -16.787 -23.341  0.00  0.00    +0.387 N 
ATOM      2  H   UNL     1      34.875 -16.466 -24.204  0.00  0.00    -0.084 HD
ATOM      3  H   UNL     1      36.327 -16.796 -23.440  0.00  0.00    -0.084 HD
ENDROOT
BRANCH   1   4
ATOM      4  C   UNL     1      34.854 -18.148 -23.046  0.00  0.00    -0.057 C 
ATOM      5  C   UNL     1      34.973 -18.983 -24.321  0.00  0.00    -0.023 C 
BRANCH   4   6
ATOM      6  C   UNL     1      35.679 -18.725 -21.882  0.00  0.00    +0.005 C 
BRANCH   6   7
ATOM      7  C   UNL     1      34.908 -19.696 -21.018  0.00  0.00    -0.024 C 
ATOM      8  C   UNL     1      33.532 -19.575 -20.923  0.00  0.00    -0.001 C 
ATOM      9  C   UNL     1      35.594 -20.690 -20.338  0.00  0.00    -0.001 C 
ATOM     10  C   UNL     1      32.821 -20.472 -20.126  0.00  0.00    +0.036 C 
ATOM     11  C   UNL     1      34.883 -21.587 -19.540  0.00  0.00    +0.036 C 
ATOM     12  C   UNL     1      33.497 -21.478 -19.434  0.00  0.00    +0.134 C 
BRANCH  12  13
ATOM     13  O   UNL     1      32.802 -22.353 -18.656  0.00  0.00    -0.506 OA
ATOM     14  H   UNL     1      32.832 -23.270 -18.844  0.00  0.00    +0.292 HD
ENDBRANCH  12  13
ENDBRANCH   6   7
ENDBRANCH   4   6
ENDBRANCH   1   4
BRANCH   1  15
ATOM     15  C   UNL     1      34.955 -15.882 -22.260  0.00  0.00    -0.047 C 
BRANCH  15  16
ATOM     16  C   UNL     1      33.449 -15.593 -22.267  0.00  0.00    +0.112 C 
BRANCH  16  17
ATOM     17  C   UNL     1      33.165 -14.140 -22.580  0.00  0.00    +0.008 C 
ATOM     18  C   UNL     1      32.113 -13.504 -21.943  0.00  0.00    +0.035 C 
ATOM     19  C   UNL     1      33.963 -13.478 -23.496  0.00  0.00    +0.035 C 
ATOM     20  C   UNL     1      33.702 -12.139 -23.786  0.00  0.00    +0.136 C 
ATOM     21  C   UNL     1      31.852 -12.165 -22.232  0.00  0.00    +0.136 C 
ATOM     22  C   UNL     1      32.646 -11.482 -23.153  0.00  0.00    +0.073 C 
BRANCH  20  23
ATOM     23  O   UNL     1      34.477 -11.472 -24.683  0.00  0.00    -0.505 OA
ATOM     24  H   UNL     1      34.279 -11.517 -25.598  0.00  0.00    +0.292 HD
ENDBRANCH  20  23
BRANCH  21  25
ATOM     25  O   UNL     1      30.822 -11.524 -21.614  0.00  0.00    -0.505 OA
ATOM     26  H   UNL     1      30.705 -10.601 -21.735  0.00  0.00    +0.292 HD
ENDBRANCH  21  25
ENDBRANCH  16  17
BRANCH  16  27
ATOM     27  O   UNL     1      32.883 -15.893 -20.993  0.00  0.00    -0.382 OA
ATOM     28  H   UNL     1      32.667 -16.838 -20.949  0.00  0.00    +0.211 HD
ENDBRANCH  16  27
ENDBRANCH  15  16
ENDBRANCH   1  15
TORSDOF 10
ENDMDL
MODEL 4
REMARK VINA RESULT:      -9.3      1.338      1.909
REMARK  Name = 3343
REMARK  10 active torsions:
REMARK  status: ('A' for Active; 'I' for Inactive)
REMARK    1  A    between atoms: N_1  and  C_4
REMARK    2  A    between atoms: N_1  and  C_15
REMARK    3  A    between atoms: C_4  and  C_6
REMARK    4  A    between atoms: C_6  and  C_7
REMARK    5  A    between atoms: C_12  and  O_13
REMARK    6  A    between atoms: C_15  and  C_16
REMARK    7  A    between atoms: C_16  and  C_17
REMARK    8  A    between atoms: C_16  and  O_27
REMARK    9  A    between atoms: C_20  and  O_23
REMARK   10  A    between atoms: C_21  and  O_25
REMARK                            x       y       z     vdW  Elec       q    Type
REMARK                         _______ _______ _______ _____ _____    ______ ____
ROOT
ATOM      1  N   UNL     1      35.344 -16.711 -23.281  0.00  0.00    +0.387 N 
ATOM      2  H   UNL     1      34.944 -16.398 -24.165  0.00  0.00    -0.084 HD
ATOM      3  H   UNL     1      36.362 -16.725 -23.338  0.00  0.00    -0.084 HD
ENDROOT
BRANCH   1   4
ATOM      4  C   UNL     1      34.867 -18.067 -22.992  0.00  0.00    -0.057 C 
ATOM      5  C   UNL     1      34.955 -18.893 -24.276  0.00  0.00    -0.023 C 
BRANCH   4   6
ATOM      6  C   UNL     1      35.699 -18.668 -21.845  0.00  0.00    +0.005 C 
BRANCH   6   7
ATOM      7  C   UNL     1      34.938 -19.665 -21.004  0.00  0.00    -0.024 C 
ATOM      8  C   UNL     1      33.556 -19.592 -20.949  0.00  0.00    -0.001 C 
ATOM      9  C   UNL     1      35.637 -20.634 -20.303  0.00  0.00    -0.001 C 
ATOM     10  C   UNL     1      32.854 -20.513 -20.173  0.00  0.00    +0.036 C 
ATOM     11  C   UNL     1      34.934 -21.556 -19.525  0.00  0.00    +0.036 C 
ATOM     12  C   UNL     1      33.543 -21.495 -19.461  0.00  0.00    +0.134 C 
BRANCH  12  13
ATOM     13  O   UNL     1      32.857 -22.395 -18.704  0.00  0.00    -0.506 OA
ATOM     14  H   UNL     1      32.078 -22.792 -19.040  0.00  0.00    +0.292 HD
ENDBRANCH  12  13
ENDBRANCH   6   7
ENDBRANCH   4   6
ENDBRANCH   1   4
BRANCH   1  15
ATOM     15  C   UNL     1      34.946 -15.793 -22.226  0.00  0.00    -0.047 C 
BRANCH  15  16
ATOM     16  C   UNL     1      33.439 -15.511 -22.288  0.00  0.00    +0.112 C 
BRANCH  16  17
ATOM     17  C   UNL     1      33.160 -14.057 -22.601  0.00  0.00    +0.008 C 
ATOM     18  C   UNL     1      33.957 -13.399 -23.522  0.00  0.00    +0.035 C 
ATOM     19  C   UNL     1      32.114 -13.417 -21.959  0.00  0.00    +0.035 C 
ATOM     20  C   UNL     1      31.857 -12.077 -22.246  0.00  0.00    +0.136 C 
ATOM     21  C   UNL     1      33.699 -12.059 -23.809  0.00  0.00    +0.136 C 
ATOM     22  C   UNL     1      32.650 -11.397 -23.172  0.00  0.00    +0.073 C 
BRANCH  20  23
ATOM     23  O   UNL     1      30.833 -11.432 -21.625  0.00  0.00    -0.505 OA
ATOM     24  H   UNL     1      31.013 -10.803 -20.954  0.00  0.00    +0.292 HD
ENDBRANCH  20  23
BRANCH  21  25
ATOM     25  O   UNL     1      34.472 -11.396 -24.713  0.00  0.00    -0.505 OA
ATOM     26  H   UNL     1      35.084 -11.869 -25.242  0.00  0.00    +0.292 HD
ENDBRANCH  21  25
ENDBRANCH  16  17
BRANCH  16  27
ATOM     27  O   UNL     1      32.827 -15.825 -21.039  0.00  0.00    -0.382 OA
ATOM     28  H   UNL     1      32.974 -15.098 -20.414  0.00  0.00    +0.211 HD
ENDBRANCH  16  27
ENDBRANCH  15  16
ENDBRANCH   1  15
TORSDOF 10
ENDMDL
MODEL 5
REMARK VINA RESULT:      -9.2      3.459     10.074
REMARK  Name = 3343
REMARK  10 active torsions:
REMARK  status: ('A' for Active; 'I' for Inactive)
REMARK    1  A    between atoms: N_1  and  C_4
REMARK    2  A    between atoms: N_1  and  C_15
REMARK    3  A    between atoms: C_4  and  C_6
REMARK    4  A    between atoms: C_6  and  C_7
REMARK    5  A    between atoms: C_12  and  O_13
REMARK    6  A    between atoms: C_15  and  C_16
REMARK    7  A    between atoms: C_16  and  C_17
REMARK    8  A    between atoms: C_16  and  O_27
REMARK    9  A    between atoms: C_20  and  O_23
REMARK   10  A    between atoms: C_21  and  O_25
REMARK                            x       y       z     vdW  Elec       q    Type
REMARK                         _______ _______ _______ _____ _____    ______ ____
ROOT
ATOM      1  N   UNL     1      34.579 -21.269 -19.567  0.00  0.00    +0.387 N 
ATOM      2  H   UNL     1      34.996 -20.674 -18.852  0.00  0.00    -0.084 HD
ATOM      3  H   UNL     1      35.257 -21.958 -19.893  0.00  0.00    -0.084 HD
ENDROOT
BRANCH   1   4
ATOM      4  C   UNL     1      34.165 -20.440 -20.703  0.00  0.00    -0.057 C 
ATOM      5  C   UNL     1      32.751 -19.925 -20.432  0.00  0.00    -0.023 C 
BRANCH   4   6
ATOM      6  C   UNL     1      35.181 -19.302 -20.904  0.00  0.00    +0.005 C 
BRANCH   6   7
ATOM      7  C   UNL     1      35.036 -18.588 -22.227  0.00  0.00    -0.024 C 
ATOM      8  C   UNL     1      35.144 -17.208 -22.269  0.00  0.00    -0.001 C 
ATOM      9  C   UNL     1      34.796 -19.328 -23.373  0.00  0.00    -0.001 C 
ATOM     10  C   UNL     1      35.010 -16.549 -23.491  0.00  0.00    +0.036 C 
ATOM     11  C   UNL     1      34.661 -18.669 -24.596  0.00  0.00    +0.036 C 
ATOM     12  C   UNL     1      34.768 -17.280 -24.654  0.00  0.00    +0.134 C 
BRANCH  12  13
ATOM     13  O   UNL     1      34.638 -16.636 -25.847  0.00  0.00    -0.506 OA
ATOM     14  H   UNL     1      34.977 -15.769 -25.950  0.00  0.00    +0.292 HD
ENDBRANCH  12  13
ENDBRANCH   6   7
ENDBRANCH   4   6
ENDBRANCH   1   4
BRANCH   1  15
ATOM     15  C   UNL     1      33.437 -21.968 -19.000  0.00  0.00    -0.047 C 
BRANCH  15  16
ATOM     16  C   UNL     1      33.894 -23.037 -17.999  0.00  0.00    +0.112 C 
BRANCH  16  17
ATOM     17  C   UNL     1      32.988 -23.084 -16.788  0.00  0.00    +0.008 C 
ATOM     18  C   UNL     1      31.627 -22.894 -16.953  0.00  0.00    +0.035 C 
ATOM     19  C   UNL     1      33.541 -23.317 -15.540  0.00  0.00    +0.035 C 
ATOM     20  C   UNL     1      32.707 -23.360 -14.423  0.00  0.00    +0.136 C 
ATOM     21  C   UNL     1      30.793 -22.939 -15.836  0.00  0.00    +0.136 C 
ATOM     22  C   UNL     1      31.332 -23.171 -14.571  0.00  0.00    +0.073 C 
BRANCH  20  23
ATOM     23  O   UNL     1      33.233 -23.587 -13.189  0.00  0.00    -0.505 OA
ATOM     24  H   UNL     1      33.989 -24.134 -13.095  0.00  0.00    +0.292 HD
ENDBRANCH  20  23
BRANCH  21  25
ATOM     25  O   UNL     1      29.452 -22.754 -15.981  0.00  0.00    -0.505 OA
ATOM     26  H   UNL     1      29.097 -21.887 -15.991  0.00  0.00    +0.292 HD
ENDBRANCH  21  25
ENDBRANCH  16  17
BRANCH  16  27
ATOM     27  O   UNL     1      35.220 -22.762 -17.555  0.00  0.00    -0.382 OA
ATOM     28  H   UNL     1      35.817 -22.729 -18.318  0.00  0.00    +0.211 HD
ENDBRANCH  16  27
ENDBRANCH  15  16
ENDBRANCH   1  15
TORSDOF 10
ENDMDL
MODEL 6
REMARK VINA RESULT:      -9.2      3.456     10.159
REMARK  Name = 3343
REMARK  10 active torsions:
REMARK  status: ('A' for Active; 'I' for Inactive)
REMARK    1  A    between atoms: N_1  and  C_4
REMARK    2  A    between atoms: N_1  and  C_15
REMARK    3  A    between atoms: C_4  and  C_6
REMARK    4  A    between atoms: C_6  and  C_7
REMARK    5  A    between atoms: C_12  and  O_13
REMARK    6  A    between atoms: C_15  and  C_16
REMARK    7  A    between atoms: C_16  and  C_17
REMARK    8  A    between atoms: C_16  and  O_27
REMARK    9  A    between atoms: C_20  and  O_23
REMARK   10  A    between atoms: C_21  and  O_25
REMARK                            x       y       z     vdW  Elec       q    Type
REMARK                         _______ _______ _______ _____ _____    ______ ____
ROOT
ATOM      1  N   UNL     1      34.583 -21.255 -19.548  0.00  0.00    +0.387 N 
ATOM      2  H   UNL     1      34.962 -20.647 -18.823  0.00  0.00    -0.084 HD
ATOM      3  H   UNL     1      35.288 -21.925 -19.852  0.00  0.00    -0.084 HD
ENDROOT
BRANCH   1   4
ATOM      4  C   UNL     1      34.177 -20.440 -20.697  0.00  0.00    -0.057 C 
ATOM      5  C   UNL     1      32.762 -19.919 -20.443  0.00  0.00    -0.023 C 
BRANCH   4   6
ATOM      6  C   UNL     1      35.196 -19.306 -20.906  0.00  0.00    +0.005 C 
BRANCH   6   7
ATOM      7  C   UNL     1      35.044 -18.592 -22.228  0.00  0.00    -0.024 C 
ATOM      8  C   UNL     1      35.150 -17.212 -22.271  0.00  0.00    -0.001 C 
ATOM      9  C   UNL     1      34.802 -19.332 -23.374  0.00  0.00    -0.001 C 
ATOM     10  C   UNL     1      35.009 -16.553 -23.492  0.00  0.00    +0.036 C 
ATOM     11  C   UNL     1      34.661 -18.674 -24.596  0.00  0.00    +0.036 C 
ATOM     12  C   UNL     1      34.765 -17.284 -24.655  0.00  0.00    +0.134 C 
BRANCH  12  13
ATOM     13  O   UNL     1      34.629 -16.641 -25.847  0.00  0.00    -0.506 OA
ATOM     14  H   UNL     1      34.217 -15.800 -25.881  0.00  0.00    +0.292 HD
ENDBRANCH  12  13
ENDBRANCH   6   7
ENDBRANCH   4   6
ENDBRANCH   1   4
BRANCH   1  15
ATOM     15  C   UNL     1      33.445 -21.984 -19.011  0.00  0.00    -0.047 C 
BRANCH  15  16
ATOM     16  C   UNL     1      33.904 -23.044 -18.001  0.00  0.00    +0.112 C 
BRANCH  16  17
ATOM     17  C   UNL     1      32.994 -23.088 -16.793  0.00  0.00    +0.008 C 
ATOM     18  C   UNL     1      33.542 -23.324 -15.543  0.00  0.00    +0.035 C 
ATOM     19  C   UNL     1      31.635 -22.891 -16.962  0.00  0.00    +0.035 C 
ATOM     20  C   UNL     1      30.796 -22.932 -15.849  0.00  0.00    +0.136 C 
ATOM     21  C   UNL     1      32.703 -23.364 -14.430  0.00  0.00    +0.136 C 
ATOM     22  C   UNL     1      31.331 -23.168 -14.582  0.00  0.00    +0.073 C 
BRANCH  20  23
ATOM     23  O   UNL     1      29.458 -22.740 -15.997  0.00  0.00    -0.505 OA
ATOM     24  H   UNL     1      29.141 -22.054 -16.552  0.00  0.00    +0.292 HD
ENDBRANCH  20  23
BRANCH  21  25
ATOM     25  O   UNL     1      33.225 -23.594 -13.193  0.00  0.00    -0.505 OA
ATOM     26  H   UNL     1      33.038 -23.004 -12.489  0.00  0.00    +0.292 HD
ENDBRANCH  21  25
ENDBRANCH  16  17
BRANCH  16  27
ATOM     27  O   UNL     1      35.227 -22.758 -17.553  0.00  0.00    -0.382 OA
ATOM     28  H   UNL     1      35.842 -23.411 -17.923  0.00  0.00    +0.211 HD
ENDBRANCH  16  27
ENDBRANCH  15  16
ENDBRANCH   1  15
TORSDOF 10
ENDMDL
MODEL 7
REMARK VINA RESULT:      -9.1      1.533      2.596
REMARK  Name = 3343
REMARK  10 active torsions:
REMARK  status: ('A' for Active; 'I' for Inactive)
REMARK    1  A    between atoms: N_1  and  C_4
REMARK    2  A    between atoms: N_1  and  C_15
REMARK    3  A    between atoms: C_4  and  C_6
REMARK    4  A    between atoms: C_6  and  C_7
REMARK    5  A    between atoms: C_12  and  O_13
REMARK    6  A    between atoms: C_15  and  C_16
REMARK    7  A    between atoms: C_16  and  C_17
REMARK    8  A    between atoms: C_16  and  O_27
REMARK    9  A    between atoms: C_20  and  O_23
REMARK   10  A    between atoms: C_21  and  O_25
REMARK                            x       y       z     vdW  Elec       q    Type
REMARK                         _______ _______ _______ _____ _____    ______ ____
ROOT
ATOM      1  N   UNL     1      34.958 -16.010 -22.727  0.00  0.00    +0.387 N 
ATOM      2  H   UNL     1      35.599 -15.711 -23.461  0.00  0.00    -0.084 HD
ATOM      3  H   UNL     1      35.362 -15.829 -21.808  0.00  0.00    -0.084 HD
ENDROOT
BRANCH   1   4
ATOM      4  C   UNL     1      34.710 -17.449 -22.859  0.00  0.00    -0.057 C 
ATOM      5  C   UNL     1      34.943 -17.845 -24.318  0.00  0.00    -0.023 C 
BRANCH   4   6
ATOM      6  C   UNL     1      35.621 -18.217 -21.885  0.00  0.00    +0.005 C 
BRANCH   6   7
ATOM      7  C   UNL     1      34.904 -19.296 -21.110  0.00  0.00    -0.024 C 
ATOM      8  C   UNL     1      35.642 -20.282 -20.477  0.00  0.00    -0.001 C 
ATOM      9  C   UNL     1      33.520 -19.280 -21.047  0.00  0.00    -0.001 C 
ATOM     10  C   UNL     1      34.979 -21.279 -19.762  0.00  0.00    +0.036 C 
ATOM     11  C   UNL     1      32.857 -20.277 -20.331  0.00  0.00    +0.036 C 
ATOM     12  C   UNL     1      33.587 -21.276 -19.689  0.00  0.00    +0.134 C 
BRANCH  12  13
ATOM     13  O   UNL     1      32.940 -22.249 -18.989  0.00  0.00    -0.506 OA
ATOM     14  H   UNL     1      32.630 -22.075 -18.122  0.00  0.00    +0.292 HD
ENDBRANCH  12  13
ENDBRANCH   6   7
ENDBRANCH   4   6
ENDBRANCH   1   4
BRANCH   1  15
ATOM     15  C   UNL     1      33.715 -15.264 -22.847  0.00  0.00    -0.047 C 
BRANCH  15  16
ATOM     16  C   UNL     1      33.825 -14.194 -23.940  0.00  0.00    +0.112 C 
BRANCH  16  17
ATOM     17  C   UNL     1      33.240 -12.875 -23.485  0.00  0.00    +0.008 C 
ATOM     18  C   UNL     1      33.786 -11.694 -23.959  0.00  0.00    +0.035 C 
ATOM     19  C   UNL     1      32.171 -12.877 -22.606  0.00  0.00    +0.035 C 
ATOM     20  C   UNL     1      31.631 -11.662 -22.186  0.00  0.00    +0.136 C 
ATOM     21  C   UNL     1      33.246 -10.479 -23.539  0.00  0.00    +0.136 C 
ATOM     22  C   UNL     1      32.169 -10.462 -22.653  0.00  0.00    +0.073 C 
BRANCH  20  23
ATOM     23  O   UNL     1      30.581 -11.645 -21.322  0.00  0.00    -0.505 OA
ATOM     24  H   UNL     1      30.726 -11.484 -20.410  0.00  0.00    +0.292 HD
ENDBRANCH  20  23
BRANCH  21  25
ATOM     25  O   UNL     1      33.770  -9.308 -23.995  0.00  0.00    -0.505 OA
ATOM     26  H   UNL     1      34.636  -9.290 -24.353  0.00  0.00    +0.292 HD
ENDBRANCH  21  25
ENDBRANCH  16  17
BRANCH  16  27
ATOM     27  O   UNL     1      33.126 -14.612 -25.111  0.00  0.00    -0.382 OA
ATOM     28  H   UNL     1      33.310 -15.549 -25.281  0.00  0.00    +0.211 HD
ENDBRANCH  16  27
ENDBRANCH  15  16
ENDBRANCH   1  15
TORSDOF 10
ENDMDL
MODEL 8
REMARK VINA RESULT:      -9.1      6.359     11.370
REMARK  Name = 3343
REMARK  10 active torsions:
REMARK  status: ('A' for Active; 'I' for Inactive)
REMARK    1  A    between atoms: N_1  and  C_4
REMARK    2  A    between atoms: N_1  and  C_15
REMARK    3  A    between atoms: C_4  and  C_6
REMARK    4  A    between atoms: C_6  and  C_7
REMARK    5  A    between atoms: C_12  and  O_13
REMARK    6  A    between atoms: C_15  and  C_16
REMARK    7  A    between atoms: C_16  and  C_17
REMARK    8  A    between atoms: C_16  and  O_27
REMARK    9  A    between atoms: C_20  and  O_23
REMARK   10  A    between atoms: C_21  and  O_25
REMARK                            x       y       z     vdW  Elec       q    Type
REMARK                         _______ _______ _______ _____ _____    ______ ____
ROOT
ATOM      1  N   UNL     1      34.656 -22.775 -14.824  0.00  0.00    +0.387 N 
ATOM      2  H   UNL     1      33.913 -22.081 -14.756  0.00  0.00    -0.084 HD
ATOM      3  H   UNL     1      35.272 -22.716 -14.014  0.00  0.00    -0.084 HD
ENDROOT
BRANCH   1   4
ATOM      4  C   UNL     1      35.442 -22.522 -16.036  0.00  0.00    -0.057 C 
ATOM      5  C   UNL     1      36.828 -23.138 -15.847  0.00  0.00    -0.023 C 
BRANCH   4   6
ATOM      6  C   UNL     1      34.701 -23.097 -17.256  0.00  0.00    +0.005 C 
BRANCH   6   7
ATOM      7  C   UNL     1      34.637 -22.145 -18.427  0.00  0.00    -0.024 C 
ATOM      8  C   UNL     1      35.815 -21.655 -18.968  0.00  0.00    -0.001 C 
ATOM      9  C   UNL     1      33.403 -21.781 -18.939  0.00  0.00    -0.001 C 
ATOM     10  C   UNL     1      35.756 -20.776 -20.050  0.00  0.00    +0.036 C 
ATOM     11  C   UNL     1      33.343 -20.902 -20.021  0.00  0.00    +0.036 C 
ATOM     12  C   UNL     1      34.520 -20.400 -20.576  0.00  0.00    +0.134 C 
BRANCH  12  13
ATOM     13  O   UNL     1      34.463 -19.543 -21.632  0.00  0.00    -0.506 OA
ATOM     14  H   UNL     1      34.220 -19.861 -22.480  0.00  0.00    +0.292 HD
ENDBRANCH  12  13
ENDBRANCH   6   7
ENDBRANCH   4   6
ENDBRANCH   1   4
BRANCH   1  15
ATOM     15  C   UNL     1      34.064 -24.103 -14.866  0.00  0.00    -0.047 C 
BRANCH  15  16
ATOM     16  C   UNL     1      32.932 -24.228 -13.839  0.00  0.00    +0.112 C 
BRANCH  16  17
ATOM     17  C   UNL     1      31.573 -24.160 -14.502  0.00  0.00    +0.008 C 
ATOM     18  C   UNL     1      31.364 -23.249 -15.523  0.00  0.00    +0.035 C 
ATOM     19  C   UNL     1      30.569 -25.010 -14.072  0.00  0.00    +0.035 C 
ATOM     20  C   UNL     1      29.316 -24.948 -14.683  0.00  0.00    +0.136 C 
ATOM     21  C   UNL     1      30.112 -23.188 -16.134  0.00  0.00    +0.136 C 
ATOM     22  C   UNL     1      29.088 -24.036 -15.714  0.00  0.00    +0.073 C 
BRANCH  20  23
ATOM     23  O   UNL     1      28.318 -25.776 -14.274  0.00  0.00    -0.505 OA
ATOM     24  H   UNL     1      28.261 -26.034 -13.374  0.00  0.00    +0.292 HD
ENDBRANCH  20  23
BRANCH  21  25
ATOM     25  O   UNL     1      29.889 -22.298 -17.141  0.00  0.00    -0.505 OA
ATOM     26  H   UNL     1      30.612 -21.942 -17.619  0.00  0.00    +0.292 HD
ENDBRANCH  21  25
ENDBRANCH  16  17
BRANCH  16  27
ATOM     27  O   UNL     1      33.015 -23.174 -12.882  0.00  0.00    -0.382 OA
ATOM     28  H   UNL     1      33.726 -22.565 -13.133  0.00  0.00    +0.211 HD
ENDBRANCH  16  27
ENDBRANCH  15  16
ENDBRANCH   1  15
TORSDOF 10
ENDMDL
MODEL 9
REMARK VINA RESULT:      -8.9      6.547     11.344
REMARK  Name = 3343
REMARK  10 active torsions:
REMARK  status: ('A' for Active; 'I' for Inactive)
REMARK    1  A    between atoms: N_1  and  C_4
REMARK    2  A    between atoms: N_1  and  C_15
REMARK    3  A    between atoms: C_4  and  C_6
REMARK    4  A    between atoms: C_6  and  C_7
REMARK    5  A    between atoms: C_12  and  O_13
REMARK    6  A    between atoms: C_15  and  C_16
REMARK    7  A    between atoms: C_16  and  C_17
REMARK    8  A    between atoms: C_16  and  O_27
REMARK    9  A    between atoms: C_20  and  O_23
REMARK   10  A    between atoms: C_21  and  O_25
REMARK                            x       y       z     vdW  Elec       q    Type
REMARK                         _______ _______ _______ _____ _____    ______ ____
ROOT
ATOM      1  N   UNL     1      35.062 -22.933 -14.592  0.00  0.00    +0.387 N 
ATOM      2  H   UNL     1      34.440 -22.208 -14.235  0.00  0.00    -0.084 HD
ATOM      3  H   UNL     1      35.793 -23.139 -13.911  0.00  0.00    -0.084 HD
ENDROOT
BRANCH   1   4
ATOM      4  C   UNL     1      35.690 -22.461 -15.830  0.00  0.00    -0.057 C 
ATOM      5  C   UNL     1      37.192 -22.738 -15.744  0.00  0.00    -0.023 C 
BRANCH   4   6
ATOM      6  C   UNL     1      35.030 -23.155 -17.035  0.00  0.00    +0.005 C 
BRANCH   6   7
ATOM      7  C   UNL     1      34.864 -22.253 -18.235  0.00  0.00    -0.024 C 
ATOM      8  C   UNL     1      33.597 -22.035 -18.751  0.00  0.00    -0.001 C 
ATOM      9  C   UNL     1      35.983 -21.660 -18.797  0.00  0.00    -0.001 C 
ATOM     10  C   UNL     1      33.444 -21.202 -19.859  0.00  0.00    +0.036 C 
ATOM     11  C   UNL     1      35.830 -20.827 -19.906  0.00  0.00    +0.036 C 
ATOM     12  C   UNL     1      34.561 -20.598 -20.437  0.00  0.00    +0.134 C 
BRANCH  12  13
ATOM     13  O   UNL     1      34.411 -19.785 -21.518  0.00  0.00    -0.506 OA
ATOM     14  H   UNL     1      35.093 -19.727 -22.157  0.00  0.00    +0.292 HD
ENDBRANCH  12  13
ENDBRANCH   6   7
ENDBRANCH   4   6
ENDBRANCH   1   4
BRANCH   1  15
ATOM     15  C   UNL     1      34.294 -24.143 -14.836  0.00  0.00    -0.047 C 
BRANCH  15  16
ATOM     16  C   UNL     1      33.151 -24.277 -13.822  0.00  0.00    +0.112 C 
BRANCH  16  17
ATOM     17  C   UNL     1      31.799 -24.212 -14.499  0.00  0.00    +0.008 C 
ATOM     18  C   UNL     1      30.780 -25.035 -14.053  0.00  0.00    +0.035 C 
ATOM     19  C   UNL     1      31.611 -23.331 -15.550  0.00  0.00    +0.035 C 
ATOM     20  C   UNL     1      30.366 -23.271 -16.174  0.00  0.00    +0.136 C 
ATOM     21  C   UNL     1      29.534 -24.975 -14.677  0.00  0.00    +0.136 C 
ATOM     22  C   UNL     1      29.327 -24.093 -15.738  0.00  0.00    +0.073 C 
BRANCH  20  23
ATOM     23  O   UNL     1      30.163 -22.410 -17.208  0.00  0.00    -0.505 OA
ATOM     24  H   UNL     1      29.482 -22.577 -17.830  0.00  0.00    +0.292 HD
ENDBRANCH  20  23
BRANCH  21  25
ATOM     25  O   UNL     1      28.520 -25.777 -14.251  0.00  0.00    -0.505 OA
ATOM     26  H   UNL     1      27.826 -25.418 -13.731  0.00  0.00    +0.292 HD
ENDBRANCH  21  25
ENDBRANCH  16  17
BRANCH  16  27
ATOM     27  O   UNL     1      33.219 -23.226 -12.860  0.00  0.00    -0.382 OA
ATOM     28  H   UNL     1      33.108 -22.372 -13.305  0.00  0.00    +0.211 HD
ENDBRANCH  16  27
ENDBRANCH  15  16
ENDBRANCH   1  15
TORSDOF 10
ENDMDL
