MODEL 1
REMARK VINA RESULT:     -10.7      0.000      0.000
REMARK  Name = 9547940
REMARK  2 active torsions:
REMARK  status: ('A' for Active; 'I' for Inactive)
REMARK    1  A    between atoms: C_2  and  C_11
REMARK    2  A    between atoms: C_8  and  C_20
REMARK                            x       y       z     vdW  Elec       q    Type
REMARK                         _______ _______ _______ _____ _____    ______ ____
ROOT
ATOM      1  N   UNL     1      33.822 -19.557 -21.367  0.00  0.00    -0.313 N 
ATOM      2  C   UNL     1      34.890 -18.927 -21.946  0.00  0.00    +0.048 C 
ATOM      3  C   UNL     1      34.254 -20.426 -20.391  0.00  0.00    +0.048 C 
ATOM      4  C   UNL     1      35.648 -20.342 -20.354  0.00  0.00    +0.015 C 
ATOM      5  C   UNL     1      36.035 -19.392 -21.339  0.00  0.00    +0.016 C 
ATOM      6  C   UNL     1      33.526 -21.272 -19.547  0.00  0.00    +0.017 C 
ATOM      7  C   UNL     1      36.351 -21.140 -19.430  0.00  0.00    +0.001 C 
ATOM      8  C   UNL     1      34.245 -22.055 -18.639  0.00  0.00    +0.032 C 
ATOM      9  C   UNL     1      35.635 -21.991 -18.579  0.00  0.00    +0.003 C 
ATOM     10  H   UNL     1      32.880 -19.408 -21.613  0.00  0.00    +0.152 HD
ENDROOT
BRANCH   2  11
ATOM     11  C   UNL     1      34.727 -17.959 -23.003  0.00  0.00    +0.009 C 
ATOM     12  C   UNL     1      34.633 -16.593 -22.725  0.00  0.00    -0.021 C 
ATOM     13  C   UNL     1      34.664 -18.404 -24.325  0.00  0.00    +0.001 C 
ATOM     14  C   UNL     1      34.476 -15.678 -23.765  0.00  0.00    -0.004 C 
ATOM     15  C   UNL     1      34.695 -16.077 -21.323  0.00  0.00    +0.031 C 
ATOM     16  C   UNL     1      34.507 -17.488 -25.365  0.00  0.00    +0.000 C 
ATOM     17  C   UNL     1      34.413 -16.125 -25.085  0.00  0.00    -0.000 C 
ENDBRANCH   2  11
BRANCH   8  20
ATOM     18  N   UNL     1      32.138 -22.927 -17.656  0.00  0.00    -0.343 N 
ATOM     19  N   UNL     1      34.201 -23.800 -16.988  0.00  0.00    -0.285 NA
ATOM     20  C   UNL     1      33.528 -22.949 -17.742  0.00  0.00    +0.117 C 
ATOM     21  H   UNL     1      31.674 -23.541 -17.043  0.00  0.00    +0.144 HD
ATOM     22  H   UNL     1      31.621 -22.298 -18.208  0.00  0.00    +0.144 HD
ATOM     23  H   UNL     1      33.718 -24.406 -16.380  0.00  0.00    +0.188 HD
ENDBRANCH   8  20
TORSDOF 2
ENDMDL
MODEL 2
REMARK VINA RESULT:     -10.6      2.811      7.370
REMARK  Name = 9547940
REMARK  2 active torsions:
REMARK  status: ('A' for Active; 'I' for Inactive)
REMARK    1  A    between atoms: C_2  and  C_11
REMARK    2  A    between atoms: C_8  and  C_20
REMARK                            x       y       z     vdW  Elec       q    Type
REMARK                         _______ _______ _______ _____ _____    ______ ____
ROOT
ATOM      1  N   UNL     1      34.593 -17.183 -21.242  0.00  0.00    -0.313 N 
ATOM      2  C   UNL     1      34.875 -18.427 -21.737  0.00  0.00    +0.048 C 
ATOM      3  C   UNL     1      34.352 -16.304 -22.274  0.00  0.00    +0.048 C 
ATOM      4  C   UNL     1      34.489 -17.021 -23.464  0.00  0.00    +0.015 C 
ATOM      5  C   UNL     1      34.818 -18.360 -23.110  0.00  0.00    +0.016 C 
ATOM      6  C   UNL     1      34.029 -14.943 -22.245  0.00  0.00    +0.017 C 
ATOM      7  C   UNL     1      34.294 -16.350 -24.687  0.00  0.00    +0.001 C 
ATOM      8  C   UNL     1      33.839 -14.298 -23.471  0.00  0.00    +0.032 C 
ATOM      9  C   UNL     1      33.968 -14.988 -24.674  0.00  0.00    +0.003 C 
ATOM     10  H   UNL     1      34.565 -16.950 -20.285  0.00  0.00    +0.152 HD
ENDROOT
BRANCH   2  11
ATOM     11  C   UNL     1      35.168 -19.546 -20.873  0.00  0.00    +0.009 C 
ATOM     12  C   UNL     1      34.148 -20.352 -20.363  0.00  0.00    -0.021 C 
ATOM     13  C   UNL     1      36.498 -19.821 -20.549  0.00  0.00    +0.001 C 
ATOM     14  C   UNL     1      34.457 -21.427 -19.531  0.00  0.00    -0.004 C 
ATOM     15  C   UNL     1      32.712 -20.090 -20.687  0.00  0.00    +0.031 C 
ATOM     16  C   UNL     1      36.806 -20.897 -19.717  0.00  0.00    +0.000 C 
ATOM     17  C   UNL     1      35.786 -21.700 -19.208  0.00  0.00    -0.000 C 
ENDBRANCH   2  11
BRANCH   8  20
ATOM     18  N   UNL     1      34.232 -11.972 -24.246  0.00  0.00    -0.343 N 
ATOM     19  N   UNL     1      32.482 -12.443 -22.770  0.00  0.00    -0.285 NA
ATOM     20  C   UNL     1      33.500 -12.883 -23.488  0.00  0.00    +0.117 C 
ATOM     21  H   UNL     1      33.985 -11.019 -24.243  0.00  0.00    +0.144 HD
ATOM     22  H   UNL     1      34.995 -12.281 -24.785  0.00  0.00    +0.144 HD
ATOM     23  H   UNL     1      32.250 -11.485 -22.780  0.00  0.00    +0.188 HD
ENDBRANCH   8  20
TORSDOF 2
ENDMDL
MODEL 3
REMARK VINA RESULT:     -10.6      0.416      1.586
REMARK  Name = 9547940
REMARK  2 active torsions:
REMARK  status: ('A' for Active; 'I' for Inactive)
REMARK    1  A    between atoms: C_2  and  C_11
REMARK    2  A    between atoms: C_8  and  C_20
REMARK                            x       y       z     vdW  Elec       q    Type
REMARK                         _______ _______ _______ _____ _____    ______ ____
ROOT
ATOM      1  N   UNL     1      33.806 -19.309 -21.362  0.00  0.00    -0.313 N 
ATOM      2  C   UNL     1      34.878 -18.679 -21.933  0.00  0.00    +0.048 C 
ATOM      3  C   UNL     1      34.236 -20.244 -20.447  0.00  0.00    +0.048 C 
ATOM      4  C   UNL     1      35.632 -20.202 -20.442  0.00  0.00    +0.015 C 
ATOM      5  C   UNL     1      36.023 -19.209 -21.384  0.00  0.00    +0.016 C 
ATOM      6  C   UNL     1      33.504 -21.115 -19.633  0.00  0.00    +0.017 C 
ATOM      7  C   UNL     1      36.334 -21.070 -19.584  0.00  0.00    +0.001 C 
ATOM      8  C   UNL     1      34.222 -21.967 -18.789  0.00  0.00    +0.032 C 
ATOM      9  C   UNL     1      35.615 -21.947 -18.762  0.00  0.00    +0.003 C 
ATOM     10  H   UNL     1      32.863 -19.121 -21.574  0.00  0.00    +0.152 HD
ENDROOT
BRANCH   2  11
ATOM     11  C   UNL     1      34.718 -17.649 -22.931  0.00  0.00    +0.009 C 
ATOM     12  C   UNL     1      34.638 -17.963 -24.289  0.00  0.00    -0.021 C 
ATOM     13  C   UNL     1      34.640 -16.316 -22.521  0.00  0.00    +0.001 C 
ATOM     14  C   UNL     1      34.482 -16.949 -25.233  0.00  0.00    -0.004 C 
ATOM     15  C   UNL     1      34.717 -19.378 -24.767  0.00  0.00    +0.031 C 
ATOM     16  C   UNL     1      34.485 -15.302 -23.466  0.00  0.00    +0.000 C 
ATOM     17  C   UNL     1      34.406 -15.619 -24.822  0.00  0.00    -0.000 C 
ENDBRANCH   2  11
BRANCH   8  20
ATOM     18  N   UNL     1      32.123 -22.791 -17.749  0.00  0.00    -0.343 N 
ATOM     19  N   UNL     1      34.159 -23.840 -17.284  0.00  0.00    -0.285 NA
ATOM     20  C   UNL     1      33.501 -22.889 -17.924  0.00  0.00    +0.117 C 
ATOM     21  H   UNL     1      31.655 -23.426 -17.159  0.00  0.00    +0.144 HD
ATOM     22  H   UNL     1      31.617 -22.088 -18.215  0.00  0.00    +0.144 HD
ATOM     23  H   UNL     1      33.674 -24.466 -16.699  0.00  0.00    +0.188 HD
ENDBRANCH   8  20
TORSDOF 2
ENDMDL
MODEL 4
REMARK VINA RESULT:     -10.3      2.680      7.244
REMARK  Name = 9547940
REMARK  2 active torsions:
REMARK  status: ('A' for Active; 'I' for Inactive)
REMARK    1  A    between atoms: C_2  and  C_11
REMARK    2  A    between atoms: C_8  and  C_20
REMARK                            x       y       z     vdW  Elec       q    Type
REMARK                         _______ _______ _______ _____ _____    ______ ____
ROOT
ATOM      1  N   UNL     1      34.090 -17.488 -21.092  0.00  0.00    -0.313 N 
ATOM      2  C   UNL     1      34.467 -18.716 -21.565  0.00  0.00    +0.048 C 
ATOM      3  C   UNL     1      34.053 -16.574 -22.120  0.00  0.00    +0.048 C 
ATOM      4  C   UNL     1      34.421 -17.250 -23.285  0.00  0.00    +0.015 C 
ATOM      5  C   UNL     1      34.679 -18.601 -22.920  0.00  0.00    +0.016 C 
ATOM      6  C   UNL     1      33.726 -15.213 -22.108  0.00  0.00    +0.017 C 
ATOM      7  C   UNL     1      34.466 -16.536 -24.499  0.00  0.00    +0.001 C 
ATOM      8  C   UNL     1      33.777 -14.525 -23.324  0.00  0.00    +0.032 C 
ATOM      9  C   UNL     1      34.140 -15.174 -24.502  0.00  0.00    +0.003 C 
ATOM     10  H   UNL     1      33.875 -17.289 -20.152  0.00  0.00    +0.152 HD
ENDROOT
BRANCH   2  11
ATOM     11  C   UNL     1      34.589 -19.865 -20.701  0.00  0.00    +0.009 C 
ATOM     12  C   UNL     1      35.836 -20.301 -20.250  0.00  0.00    -0.021 C 
ATOM     13  C   UNL     1      33.432 -20.545 -20.313  0.00  0.00    +0.001 C 
ATOM     14  C   UNL     1      35.926 -21.414 -19.415  0.00  0.00    -0.004 C 
ATOM     15  C   UNL     1      37.096 -19.600 -20.643  0.00  0.00    +0.031 C 
ATOM     16  C   UNL     1      33.524 -21.659 -19.477  0.00  0.00    +0.000 C 
ATOM     17  C   UNL     1      34.771 -22.093 -19.028  0.00  0.00    -0.000 C 
ENDBRANCH   2  11
BRANCH   8  20
ATOM     18  N   UNL     1      32.323 -12.612 -22.697  0.00  0.00    -0.343 N 
ATOM     19  N   UNL     1      34.212 -12.270 -24.030  0.00  0.00    -0.285 NA
ATOM     20  C   UNL     1      33.443 -13.109 -23.358  0.00  0.00    +0.117 C 
ATOM     21  H   UNL     1      32.116 -11.650 -22.733  0.00  0.00    +0.144 HD
ATOM     22  H   UNL     1      31.737 -13.223 -22.194  0.00  0.00    +0.144 HD
ATOM     23  H   UNL     1      33.989 -11.311 -24.054  0.00  0.00    +0.188 HD
ENDBRANCH   8  20
TORSDOF 2
ENDMDL
MODEL 5
REMARK VINA RESULT:     -10.2      1.052      2.010
REMARK  Name = 9547940
REMARK  2 active torsions:
REMARK  status: ('A' for Active; 'I' for Inactive)
REMARK    1  A    between atoms: C_2  and  C_11
REMARK    2  A    between atoms: C_8  and  C_20
REMARK                            x       y       z     vdW  Elec       q    Type
REMARK                         _______ _______ _______ _____ _____    ______ ____
ROOT
ATOM      1  N   UNL     1      33.928 -18.515 -21.675  0.00  0.00    -0.313 N 
ATOM      2  C   UNL     1      34.865 -17.727 -22.287  0.00  0.00    +0.048 C 
ATOM      3  C   UNL     1      34.545 -19.473 -20.902  0.00  0.00    +0.048 C 
ATOM      4  C   UNL     1      35.922 -19.283 -21.033  0.00  0.00    +0.015 C 
ATOM      5  C   UNL     1      36.110 -18.177 -21.908  0.00  0.00    +0.016 C 
ATOM      6  C   UNL     1      33.995 -20.484 -20.106  0.00  0.00    +0.017 C 
ATOM      7  C   UNL     1      36.795 -20.142 -20.336  0.00  0.00    +0.001 C 
ATOM      8  C   UNL     1      34.879 -21.324 -19.424  0.00  0.00    +0.032 C 
ATOM      9  C   UNL     1      36.258 -21.157 -19.535  0.00  0.00    +0.003 C 
ATOM     10  H   UNL     1      32.954 -18.410 -21.772  0.00  0.00    +0.152 HD
ENDROOT
BRANCH   2  11
ATOM     11  C   UNL     1      34.498 -16.638 -23.159  0.00  0.00    +0.009 C 
ATOM     12  C   UNL     1      34.255 -16.851 -24.518  0.00  0.00    -0.021 C 
ATOM     13  C   UNL     1      34.384 -15.353 -22.626  0.00  0.00    +0.001 C 
ATOM     14  C   UNL     1      33.901 -15.782 -25.339  0.00  0.00    -0.004 C 
ATOM     15  C   UNL     1      34.367 -18.212 -25.126  0.00  0.00    +0.031 C 
ATOM     16  C   UNL     1      34.029 -14.283 -23.449  0.00  0.00    +0.000 C 
ATOM     17  C   UNL     1      33.788 -14.498 -24.806  0.00  0.00    -0.000 C 
ENDBRANCH   2  11
BRANCH   8  20
ATOM     18  N   UNL     1      33.063 -22.885 -18.770  0.00  0.00    -0.343 N 
ATOM     19  N   UNL     1      35.098 -22.897 -17.621  0.00  0.00    -0.285 NA
ATOM     20  C   UNL     1      34.350 -22.388 -18.584  0.00  0.00    +0.117 C 
ATOM     21  H   UNL     1      32.725 -23.606 -18.191  0.00  0.00    +0.144 HD
ATOM     22  H   UNL     1      32.491 -22.517 -19.481  0.00  0.00    +0.144 HD
ATOM     23  H   UNL     1      34.743 -23.618 -17.051  0.00  0.00    +0.188 HD
ENDBRANCH   8  20
TORSDOF 2
ENDMDL
MODEL 6
REMARK VINA RESULT:     -10.1      1.337      2.126
REMARK  Name = 9547940
REMARK  2 active torsions:
REMARK  status: ('A' for Active; 'I' for Inactive)
REMARK    1  A    between atoms: C_2  and  C_11
REMARK    2  A    between atoms: C_8  and  C_20
REMARK                            x       y       z     vdW  Elec       q    Type
REMARK                         _______ _______ _______ _____ _____    ______ ____
ROOT
ATOM      1  N   UNL     1      35.703 -19.809 -20.726  0.00  0.00    -0.313 N 
ATOM      2  C   UNL     1      34.608 -19.494 -21.484  0.00  0.00    +0.048 C 
ATOM      3  C   UNL     1      35.358 -20.710 -19.744  0.00  0.00    +0.048 C 
ATOM      4  C   UNL     1      33.993 -20.971 -19.887  0.00  0.00    +0.015 C 
ATOM      5  C   UNL     1      33.534 -20.198 -20.989  0.00  0.00    +0.016 C 
ATOM      6  C   UNL     1      36.141 -21.306 -18.749  0.00  0.00    +0.017 C 
ATOM      7  C   UNL     1      33.378 -21.871 -18.995  0.00  0.00    +0.001 C 
ATOM      8  C   UNL     1      35.508 -22.196 -17.876  0.00  0.00    +0.032 C 
ATOM      9  C   UNL     1      34.149 -22.476 -17.995  0.00  0.00    +0.003 C 
ATOM     10  H   UNL     1      36.608 -19.446 -20.865  0.00  0.00    +0.152 HD
ENDROOT
BRANCH   2  11
ATOM     11  C   UNL     1      34.683 -18.569 -22.589  0.00  0.00    +0.009 C 
ATOM     12  C   UNL     1      34.781 -17.193 -22.375  0.00  0.00    -0.021 C 
ATOM     13  C   UNL     1      34.657 -19.069 -23.893  0.00  0.00    +0.001 C 
ATOM     14  C   UNL     1      34.852 -16.320 -23.460  0.00  0.00    -0.004 C 
ATOM     15  C   UNL     1      34.811 -16.619 -20.995  0.00  0.00    +0.031 C 
ATOM     16  C   UNL     1      34.728 -18.195 -24.978  0.00  0.00    +0.000 C 
ATOM     17  C   UNL     1      34.826 -16.821 -24.762  0.00  0.00    -0.000 C 
ENDBRANCH   2  11
BRANCH   8  20
ATOM     18  N   UNL     1      37.621 -22.512 -16.609  0.00  0.00    -0.343 N 
ATOM     19  N   UNL     1      35.720 -23.756 -16.061  0.00  0.00    -0.285 NA
ATOM     20  C   UNL     1      36.285 -22.839 -16.826  0.00  0.00    +0.117 C 
ATOM     21  H   UNL     1      38.127 -22.960 -15.893  0.00  0.00    +0.144 HD
ATOM     22  H   UNL     1      38.059 -21.834 -17.172  0.00  0.00    +0.144 HD
ATOM     23  H   UNL     1      36.242 -24.193 -15.349  0.00  0.00    +0.188 HD
ENDBRANCH   8  20
TORSDOF 2
ENDMDL
MODEL 7
REMARK VINA RESULT:      -9.8      3.405      7.327
REMARK  Name = 9547940
REMARK  2 active torsions:
REMARK  status: ('A' for Active; 'I' for Inactive)
REMARK    1  A    between atoms: C_2  and  C_11
REMARK    2  A    between atoms: C_8  and  C_20
REMARK                            x       y       z     vdW  Elec       q    Type
REMARK                         _______ _______ _______ _____ _____    ______ ____
ROOT
ATOM      1  N   UNL     1      33.773 -16.607 -20.607  0.00  0.00    -0.313 N 
ATOM      2  C   UNL     1      34.449 -17.445 -21.452  0.00  0.00    +0.048 C 
ATOM      3  C   UNL     1      33.358 -15.482 -21.285  0.00  0.00    +0.048 C 
ATOM      4  C   UNL     1      33.791 -15.615 -22.606  0.00  0.00    +0.015 C 
ATOM      5  C   UNL     1      34.477 -16.859 -22.697  0.00  0.00    +0.016 C 
ATOM      6  C   UNL     1      32.642 -14.368 -20.833  0.00  0.00    +0.017 C 
ATOM      7  C   UNL     1      33.495 -14.589 -23.523  0.00  0.00    +0.001 C 
ATOM      8  C   UNL     1      32.360 -13.362 -21.761  0.00  0.00    +0.032 C 
ATOM      9  C   UNL     1      32.778 -13.468 -23.086  0.00  0.00    +0.003 C 
ATOM     10  H   UNL     1      33.606 -16.784 -19.653  0.00  0.00    +0.152 HD
ENDROOT
BRANCH   2  11
ATOM     11  C   UNL     1      34.997 -18.702 -21.005  0.00  0.00    +0.009 C 
ATOM     12  C   UNL     1      34.167 -19.768 -20.652  0.00  0.00    -0.021 C 
ATOM     13  C   UNL     1      36.384 -18.848 -20.930  0.00  0.00    +0.001 C 
ATOM     14  C   UNL     1      34.722 -20.973 -20.224  0.00  0.00    -0.004 C 
ATOM     15  C   UNL     1      32.678 -19.652 -20.719  0.00  0.00    +0.031 C 
ATOM     16  C   UNL     1      36.939 -20.054 -20.502  0.00  0.00    +0.000 C 
ATOM     17  C   UNL     1      36.107 -21.117 -20.149  0.00  0.00    -0.000 C 
ENDBRANCH   2  11
BRANCH   8  20
ATOM     18  N   UNL     1      31.678 -11.726 -20.023  0.00  0.00    -0.343 N 
ATOM     19  N   UNL     1      30.861 -11.536 -22.204  0.00  0.00    -0.285 NA
ATOM     20  C   UNL     1      31.616 -12.185 -21.336  0.00  0.00    +0.117 C 
ATOM     21  H   UNL     1      31.167 -10.927 -19.756  0.00  0.00    +0.144 HD
ATOM     22  H   UNL     1      32.232 -12.198 -19.361  0.00  0.00    +0.144 HD
ATOM     23  H   UNL     1      30.358 -10.739 -21.919  0.00  0.00    +0.188 HD
ENDBRANCH   8  20
TORSDOF 2
ENDMDL
MODEL 8
REMARK VINA RESULT:      -9.6      4.624      7.787
REMARK  Name = 9547940
REMARK  2 active torsions:
REMARK  status: ('A' for Active; 'I' for Inactive)
REMARK    1  A    between atoms: C_2  and  C_11
REMARK    2  A    between atoms: C_8  and  C_20
REMARK                            x       y       z     vdW  Elec       q    Type
REMARK                         _______ _______ _______ _____ _____    ______ ____
ROOT
ATOM      1  N   UNL     1      34.273 -13.196 -23.265  0.00  0.00    -0.313 N 
ATOM      2  C   UNL     1      33.623 -12.307 -24.077  0.00  0.00    +0.048 C 
ATOM      3  C   UNL     1      34.270 -14.450 -23.836  0.00  0.00    +0.048 C 
ATOM      4  C   UNL     1      33.590 -14.346 -25.051  0.00  0.00    +0.015 C 
ATOM      5  C   UNL     1      33.188 -12.988 -25.191  0.00  0.00    +0.016 C 
ATOM      6  C   UNL     1      34.810 -15.655 -23.373  0.00  0.00    +0.017 C 
ATOM      7  C   UNL     1      33.441 -15.500 -25.846  0.00  0.00    +0.001 C 
ATOM      8  C   UNL     1      34.650 -16.786 -24.178  0.00  0.00    +0.032 C 
ATOM      9  C   UNL     1      33.977 -16.713 -25.395  0.00  0.00    +0.003 C 
ATOM     10  H   UNL     1      34.686 -12.972 -22.400  0.00  0.00    +0.152 HD
ENDROOT
BRANCH   2  11
ATOM     11  C   UNL     1      33.476 -10.915 -23.724  0.00  0.00    +0.009 C 
ATOM     12  C   UNL     1      34.323  -9.941 -24.256  0.00  0.00    -0.021 C 
ATOM     13  C   UNL     1      32.466 -10.545 -22.834  0.00  0.00    +0.001 C 
ATOM     14  C   UNL     1      34.161  -8.603 -23.900  0.00  0.00    -0.004 C 
ATOM     15  C   UNL     1      35.417 -10.297 -25.212  0.00  0.00    +0.031 C 
ATOM     16  C   UNL     1      32.304  -9.206 -22.477  0.00  0.00    +0.000 C 
ATOM     17  C   UNL     1      33.151  -8.235 -23.010  0.00  0.00    -0.000 C 
ENDBRANCH   2  11
BRANCH   8  20
ATOM     18  N   UNL     1      36.250 -18.121 -22.828  0.00  0.00    -0.343 N 
ATOM     19  N   UNL     1      34.691 -19.189 -24.202  0.00  0.00    -0.285 NA
ATOM     20  C   UNL     1      35.196 -18.061 -23.735  0.00  0.00    +0.117 C 
ATOM     21  H   UNL     1      36.604 -18.994 -22.542  0.00  0.00    +0.144 HD
ATOM     22  H   UNL     1      36.641 -17.291 -22.471  0.00  0.00    +0.144 HD
ATOM     23  H   UNL     1      35.058 -20.053 -23.904  0.00  0.00    +0.188 HD
ENDBRANCH   8  20
TORSDOF 2
ENDMDL
MODEL 9
REMARK VINA RESULT:      -9.5      7.207     10.795
REMARK  Name = 9547940
REMARK  2 active torsions:
REMARK  status: ('A' for Active; 'I' for Inactive)
REMARK    1  A    between atoms: C_2  and  C_11
REMARK    2  A    between atoms: C_8  and  C_20
REMARK                            x       y       z     vdW  Elec       q    Type
REMARK                         _______ _______ _______ _____ _____    ______ ____
ROOT
ATOM      1  N   UNL     1      32.816 -11.325 -23.333  0.00  0.00    -0.313 N 
ATOM      2  C   UNL     1      33.638 -11.789 -24.325  0.00  0.00    +0.048 C 
ATOM      3  C   UNL     1      33.103 -10.007 -23.056  0.00  0.00    +0.048 C 
ATOM      4  C   UNL     1      34.146  -9.627 -23.903  0.00  0.00    +0.015 C 
ATOM      5  C   UNL     1      34.472 -10.761 -24.699  0.00  0.00    +0.016 C 
ATOM      6  C   UNL     1      32.527  -9.133 -22.129  0.00  0.00    +0.017 C 
ATOM      7  C   UNL     1      34.639  -8.310 -23.824  0.00  0.00    +0.001 C 
ATOM      8  C   UNL     1      33.031  -7.831 -22.068  0.00  0.00    +0.032 C 
ATOM      9  C   UNL     1      34.071  -7.423 -22.901  0.00  0.00    +0.003 C 
ATOM     10  H   UNL     1      32.119 -11.857 -22.885  0.00  0.00    +0.152 HD
ENDROOT
BRANCH   2  11
ATOM     11  C   UNL     1      33.555 -13.143 -24.816  0.00  0.00    +0.009 C 
ATOM     12  C   UNL     1      33.845 -14.231 -23.990  0.00  0.00    -0.021 C 
ATOM     13  C   UNL     1      33.176 -13.360 -26.143  0.00  0.00    +0.001 C 
ATOM     14  C   UNL     1      33.756 -15.530 -24.489  0.00  0.00    -0.004 C 
ATOM     15  C   UNL     1      34.254 -14.040 -22.565  0.00  0.00    +0.031 C 
ATOM     16  C   UNL     1      33.088 -14.660 -26.641  0.00  0.00    +0.000 C 
ATOM     17  C   UNL     1      33.378 -15.745 -25.814  0.00  0.00    -0.000 C 
ENDBRANCH   2  11
BRANCH   8  20
ATOM     18  N   UNL     1      31.926  -5.672 -21.537  0.00  0.00    -0.343 N 
ATOM     19  N   UNL     1      32.449  -7.179 -19.829  0.00  0.00    -0.285 NA
ATOM     20  C   UNL     1      32.461  -6.887 -21.118  0.00  0.00    +0.117 C 
ATOM     21  H   UNL     1      31.545  -5.048 -20.877  0.00  0.00    +0.144 HD
ATOM     22  H   UNL     1      31.929  -5.436 -22.493  0.00  0.00    +0.144 HD
ATOM     23  H   UNL     1      32.063  -6.542 -19.184  0.00  0.00    +0.188 HD
ENDBRANCH   8  20
TORSDOF 2
ENDMDL
