MODEL 1
REMARK VINA RESULT:      -5.2      0.000      0.000
REMARK  Name = 5287671
REMARK  5 active torsions:
REMARK  status: ('A' for Active; 'I' for Inactive)
REMARK    1  A    between atoms: CA_1  and  N_2
REMARK    2  A    between atoms: CA_1  and  C_7
REMARK    3  A    between atoms: CA_1  and  C_10
REMARK    4  A    between atoms: C_7  and  O_8
REMARK    5  A    between atoms: C_11  and  O_12
REMARK                            x       y       z     vdW  Elec       q    Type
REMARK                         _______ _______ _______ _____ _____    ______ ____
ROOT
ATOM      1  CA  UNL     1      38.733 -25.704 -14.320  0.00  0.00    +0.062 C 
ENDROOT
BRANCH   1   2
ATOM      2  N   UNL     1      37.947 -26.936 -14.265  0.00  0.00    +0.391 N 
ATOM      3  H1  UNL     1      36.963 -26.706 -14.125  0.00  0.00    -0.088 HD
ATOM      4  H2  UNL     1      38.274 -27.514 -13.491  0.00  0.00    -0.088 HD
ATOM      5  H3  UNL     1      38.055 -27.448 -15.141  0.00  0.00    -0.088 HD
ENDBRANCH   1   2
BRANCH   1   7
ATOM      6  OXT UNL     1      41.017 -26.483 -13.969  0.00  0.00    -0.252 OA
ATOM      7  C   UNL     1      40.147 -26.074 -14.730  0.00  0.00    +0.297 C 
BRANCH   7   8
ATOM      8  O   UNL     1      40.371 -25.864 -16.054  0.00  0.00    -0.481 OA
ATOM      9  H   UNL     1      40.700 -26.560 -16.589  0.00  0.00    +0.295 HD
ENDBRANCH   7   8
ENDBRANCH   1   7
BRANCH   1  10
ATOM     10  C   UNL     1      38.821 -24.930 -13.032  0.00  0.00    +0.002 C 
ATOM     11  C   UNL     1      37.919 -24.919 -12.042  0.00  0.00    +0.166 C 
BRANCH  11  12
ATOM     12  O   UNL     1      36.748 -25.627 -12.046  0.00  0.00    -0.469 OA
ATOM     13  C   UNL     1      35.625 -24.763 -11.990  0.00  0.00    +0.253 C 
ENDBRANCH  11  12
ENDBRANCH   1  10
TORSDOF 5
ENDMDL
MODEL 2
REMARK VINA RESULT:      -5.2      2.311      2.504
REMARK  Name = 5287671
REMARK  5 active torsions:
REMARK  status: ('A' for Active; 'I' for Inactive)
REMARK    1  A    between atoms: CA_1  and  N_2
REMARK    2  A    between atoms: CA_1  and  C_7
REMARK    3  A    between atoms: CA_1  and  C_10
REMARK    4  A    between atoms: C_7  and  O_8
REMARK    5  A    between atoms: C_11  and  O_12
REMARK                            x       y       z     vdW  Elec       q    Type
REMARK                         _______ _______ _______ _____ _____    ______ ____
ROOT
ATOM      1  CA  UNL     1      38.645 -24.863 -14.708  0.00  0.00    +0.062 C 
ENDROOT
BRANCH   1   2
ATOM      2  N   UNL     1      38.268 -23.861 -15.704  0.00  0.00    +0.391 N 
ATOM      3  H1  UNL     1      38.464 -24.220 -16.639  0.00  0.00    -0.088 HD
ATOM      4  H2  UNL     1      38.804 -23.008 -15.548  0.00  0.00    -0.088 HD
ATOM      5  H3  UNL     1      37.272 -23.656 -15.621  0.00  0.00    -0.088 HD
ENDBRANCH   1   2
BRANCH   1   7
ATOM      6  OXT UNL     1      41.028 -24.877 -14.193  0.00  0.00    -0.252 OA
ATOM      7  C   UNL     1      40.106 -25.211 -14.929  0.00  0.00    +0.297 C 
BRANCH   7   8
ATOM      8  O   UNL     1      40.301 -25.915 -16.075  0.00  0.00    -0.481 OA
ATOM      9  H   UNL     1      40.702 -25.503 -16.815  0.00  0.00    +0.295 HD
ENDBRANCH   7   8
ENDBRANCH   1   7
BRANCH   1  10
ATOM     10  C   UNL     1      37.861 -26.147 -14.747  0.00  0.00    +0.002 C 
ATOM     11  C   UNL     1      36.603 -26.304 -15.179  0.00  0.00    +0.166 C 
BRANCH  11  12
ATOM     12  O   UNL     1      35.813 -25.297 -15.664  0.00  0.00    -0.469 OA
ATOM     13  C   UNL     1      34.942 -24.800 -14.661  0.00  0.00    +0.253 C 
ENDBRANCH  11  12
ENDBRANCH   1  10
TORSDOF 5
ENDMDL
MODEL 3
REMARK VINA RESULT:      -4.9      2.156      2.278
REMARK  Name = 5287671
REMARK  5 active torsions:
REMARK  status: ('A' for Active; 'I' for Inactive)
REMARK    1  A    between atoms: CA_1  and  N_2
REMARK    2  A    between atoms: CA_1  and  C_7
REMARK    3  A    between atoms: CA_1  and  C_10
REMARK    4  A    between atoms: C_7  and  O_8
REMARK    5  A    between atoms: C_11  and  O_12
REMARK                            x       y       z     vdW  Elec       q    Type
REMARK                         _______ _______ _______ _____ _____    ______ ____
ROOT
ATOM      1  CA  UNL     1      36.874 -25.287 -14.689  0.00  0.00    +0.062 C 
ENDROOT
BRANCH   1   2
ATOM      2  N   UNL     1      35.456 -25.430 -14.364  0.00  0.00    +0.391 N 
ATOM      3  H1  UNL     1      35.347 -26.098 -13.601  0.00  0.00    -0.088 HD
ATOM      4  H2  UNL     1      34.951 -25.766 -15.184  0.00  0.00    -0.088 HD
ATOM      5  H3  UNL     1      35.079 -24.526 -14.080  0.00  0.00    -0.088 HD
ENDBRANCH   1   2
BRANCH   1   7
ATOM      6  OXT UNL     1      38.341 -27.234 -14.618  0.00  0.00    -0.252 OA
ATOM      7  C   UNL     1      37.390 -26.648 -15.123  0.00  0.00    +0.297 C 
BRANCH   7   8
ATOM      8  O   UNL     1      36.699 -27.147 -16.181  0.00  0.00    -0.481 OA
ATOM      9  H   UNL     1      36.876 -28.014 -16.490  0.00  0.00    +0.295 HD
ENDBRANCH   7   8
ENDBRANCH   1   7
BRANCH   1  10
ATOM     10  C   UNL     1      37.754 -24.804 -13.568  0.00  0.00    +0.002 C 
ATOM     11  C   UNL     1      37.500 -24.892 -12.256  0.00  0.00    +0.166 C 
BRANCH  11  12
ATOM     12  O   UNL     1      36.372 -25.449 -11.716  0.00  0.00    -0.469 OA
ATOM     13  C   UNL     1      35.634 -24.494 -10.971  0.00  0.00    +0.253 C 
ENDBRANCH  11  12
ENDBRANCH   1  10
TORSDOF 5
ENDMDL
MODEL 4
REMARK VINA RESULT:      -4.8      2.417      4.829
REMARK  Name = 5287671
REMARK  5 active torsions:
REMARK  status: ('A' for Active; 'I' for Inactive)
REMARK    1  A    between atoms: CA_1  and  N_2
REMARK    2  A    between atoms: CA_1  and  C_7
REMARK    3  A    between atoms: CA_1  and  C_10
REMARK    4  A    between atoms: C_7  and  O_8
REMARK    5  A    between atoms: C_11  and  O_12
REMARK                            x       y       z     vdW  Elec       q    Type
REMARK                         _______ _______ _______ _____ _____    ______ ____
ROOT
ATOM      1  CA  UNL     1      36.788 -23.522 -11.975  0.00  0.00    +0.062 C 
ENDROOT
BRANCH   1   2
ATOM      2  N   UNL     1      38.168 -23.834 -11.607  0.00  0.00    +0.391 N 
ATOM      3  H1  UNL     1      38.281 -24.845 -11.532  0.00  0.00    -0.088 HD
ATOM      4  H2  UNL     1      38.388 -23.400 -10.711  0.00  0.00    -0.088 HD
ATOM      5  H3  UNL     1      38.801 -23.474 -12.322  0.00  0.00    -0.088 HD
ENDBRANCH   1   2
BRANCH   1   7
ATOM      6  OXT UNL     1      35.983 -24.230  -9.785  0.00  0.00    -0.252 OA
ATOM      7  C   UNL     1      35.874 -24.250 -11.006  0.00  0.00    +0.297 C 
BRANCH   7   8
ATOM      8  O   UNL     1      34.920 -24.977 -11.645  0.00  0.00    -0.481 OA
ATOM      9  H   UNL     1      34.273 -25.439 -11.149  0.00  0.00    +0.295 HD
ENDBRANCH   7   8
ENDBRANCH   1   7
BRANCH   1  10
ATOM     10  C   UNL     1      36.380 -23.918 -13.369  0.00  0.00    +0.002 C 
ATOM     11  C   UNL     1      37.194 -24.127 -14.412  0.00  0.00    +0.166 C 
BRANCH  11  12
ATOM     12  O   UNL     1      38.558 -24.009 -14.374  0.00  0.00    -0.469 OA
ATOM     13  C   UNL     1      39.188 -25.220 -14.759  0.00  0.00    +0.253 C 
ENDBRANCH  11  12
ENDBRANCH   1  10
TORSDOF 5
ENDMDL
MODEL 5
REMARK VINA RESULT:      -4.8      2.603      3.179
REMARK  Name = 5287671
REMARK  5 active torsions:
REMARK  status: ('A' for Active; 'I' for Inactive)
REMARK    1  A    between atoms: CA_1  and  N_2
REMARK    2  A    between atoms: CA_1  and  C_7
REMARK    3  A    between atoms: CA_1  and  C_10
REMARK    4  A    between atoms: C_7  and  O_8
REMARK    5  A    between atoms: C_11  and  O_12
REMARK                            x       y       z     vdW  Elec       q    Type
REMARK                         _______ _______ _______ _____ _____    ______ ____
ROOT
ATOM      1  CA  UNL     1      37.156 -26.121 -13.575  0.00  0.00    +0.062 C 
ENDROOT
BRANCH   1   2
ATOM      2  N   UNL     1      38.529 -26.002 -13.086  0.00  0.00    +0.391 N 
ATOM      3  H1  UNL     1      38.733 -26.774 -12.451  0.00  0.00    -0.088 HD
ATOM      4  H2  UNL     1      38.639 -25.117 -12.591  0.00  0.00    -0.088 HD
ATOM      5  H3  UNL     1      39.175 -26.032 -13.875  0.00  0.00    -0.088 HD
ENDBRANCH   1   2
BRANCH   1   7
ATOM      6  OXT UNL     1      36.297 -26.919 -15.712  0.00  0.00    -0.252 OA
ATOM      7  C   UNL     1      37.217 -26.444 -15.057  0.00  0.00    +0.297 C 
BRANCH   7   8
ATOM      8  O   UNL     1      38.439 -26.185 -15.591  0.00  0.00    -0.481 OA
ATOM      9  H   UNL     1      38.840 -26.805 -16.168  0.00  0.00    +0.295 HD
ENDBRANCH   7   8
ENDBRANCH   1   7
BRANCH   1  10
ATOM     10  C   UNL     1      36.298 -24.896 -13.411  0.00  0.00    +0.002 C 
ATOM     11  C   UNL     1      36.592 -23.653 -13.814  0.00  0.00    +0.166 C 
BRANCH  11  12
ATOM     12  O   UNL     1      37.748 -23.293 -14.453  0.00  0.00    -0.469 OA
ATOM     13  C   UNL     1      37.480 -22.772 -15.744  0.00  0.00    +0.253 C 
ENDBRANCH  11  12
ENDBRANCH   1  10
TORSDOF 5
ENDMDL
MODEL 6
REMARK VINA RESULT:      -4.8      8.375     10.310
REMARK  Name = 5287671
REMARK  5 active torsions:
REMARK  status: ('A' for Active; 'I' for Inactive)
REMARK    1  A    between atoms: CA_1  and  N_2
REMARK    2  A    between atoms: CA_1  and  C_7
REMARK    3  A    between atoms: CA_1  and  C_10
REMARK    4  A    between atoms: C_7  and  O_8
REMARK    5  A    between atoms: C_11  and  O_12
REMARK                            x       y       z     vdW  Elec       q    Type
REMARK                         _______ _______ _______ _____ _____    ______ ____
ROOT
ATOM      1  CA  UNL     1      29.396 -23.300 -16.189  0.00  0.00    +0.062 C 
ENDROOT
BRANCH   1   2
ATOM      2  N   UNL     1      29.366 -22.446 -15.002  0.00  0.00    +0.391 N 
ATOM      3  H1  UNL     1      30.056 -21.701 -15.101  0.00  0.00    -0.088 HD
ATOM      4  H2  UNL     1      29.585 -23.004 -14.176  0.00  0.00    -0.088 HD
ATOM      5  H3  UNL     1      28.437 -22.038 -14.899  0.00  0.00    -0.088 HD
ENDBRANCH   1   2
BRANCH   1   7
ATOM      6  OXT UNL     1      27.553 -23.810 -17.702  0.00  0.00    -0.252 OA
ATOM      7  C   UNL     1      28.155 -22.997 -17.009  0.00  0.00    +0.297 C 
BRANCH   7   8
ATOM      8  O   UNL     1      27.790 -21.691 -16.928  0.00  0.00    -0.481 OA
ATOM      9  H   UNL     1      27.885 -21.131 -17.674  0.00  0.00    +0.295 HD
ENDBRANCH   7   8
ENDBRANCH   1   7
BRANCH   1  10
ATOM     10  C   UNL     1      29.416 -24.782 -15.925  0.00  0.00    +0.002 C 
ATOM     11  C   UNL     1      29.921 -25.396 -14.847  0.00  0.00    +0.166 C 
BRANCH  11  12
ATOM     12  O   UNL     1      30.514 -24.757 -13.791  0.00  0.00    -0.469 OA
ATOM     13  C   UNL     1      31.916 -24.971 -13.783  0.00  0.00    +0.253 C 
ENDBRANCH  11  12
ENDBRANCH   1  10
TORSDOF 5
ENDMDL
MODEL 7
REMARK VINA RESULT:      -4.7      9.509     11.587
REMARK  Name = 5287671
REMARK  5 active torsions:
REMARK  status: ('A' for Active; 'I' for Inactive)
REMARK    1  A    between atoms: CA_1  and  N_2
REMARK    2  A    between atoms: CA_1  and  C_7
REMARK    3  A    between atoms: CA_1  and  C_10
REMARK    4  A    between atoms: C_7  and  O_8
REMARK    5  A    between atoms: C_11  and  O_12
REMARK                            x       y       z     vdW  Elec       q    Type
REMARK                         _______ _______ _______ _____ _____    ______ ____
ROOT
ATOM      1  CA  UNL     1      27.748 -22.972 -16.309  0.00  0.00    +0.062 C 
ENDROOT
BRANCH   1   2
ATOM      2  N   UNL     1      28.336 -23.159 -17.634  0.00  0.00    +0.391 N 
ATOM      3  H1  UNL     1      29.042 -22.441 -17.798  0.00  0.00    -0.088 HD
ATOM      4  H2  UNL     1      27.607 -23.086 -18.344  0.00  0.00    -0.088 HD
ATOM      5  H3  UNL     1      28.770 -24.080 -17.687  0.00  0.00    -0.088 HD
ENDBRANCH   1   2
BRANCH   1   7
ATOM      6  OXT UNL     1      25.569 -22.036 -15.739  0.00  0.00    -0.252 OA
ATOM      7  C   UNL     1      26.564 -22.032 -16.455  0.00  0.00    +0.297 C 
BRANCH   7   8
ATOM      8  O   UNL     1      26.704 -21.188 -17.511  0.00  0.00    -0.481 OA
ATOM      9  H   UNL     1      27.559 -20.939 -17.802  0.00  0.00    +0.295 HD
ENDBRANCH   7   8
ENDBRANCH   1   7
BRANCH   1  10
ATOM     10  C   UNL     1      28.663 -22.391 -15.265  0.00  0.00    +0.002 C 
ATOM     11  C   UNL     1      29.919 -22.774 -15.000  0.00  0.00    +0.166 C 
BRANCH  11  12
ATOM     12  O   UNL     1      30.582 -23.779 -15.652  0.00  0.00    -0.469 OA
ATOM     13  C   UNL     1      31.753 -23.293 -16.289  0.00  0.00    +0.253 C 
ENDBRANCH  11  12
ENDBRANCH   1  10
TORSDOF 5
ENDMDL
MODEL 8
REMARK VINA RESULT:      -4.7      7.648      9.115
REMARK  Name = 5287671
REMARK  5 active torsions:
REMARK  status: ('A' for Active; 'I' for Inactive)
REMARK    1  A    between atoms: CA_1  and  N_2
REMARK    2  A    between atoms: CA_1  and  C_7
REMARK    3  A    between atoms: CA_1  and  C_10
REMARK    4  A    between atoms: C_7  and  O_8
REMARK    5  A    between atoms: C_11  and  O_12
REMARK                            x       y       z     vdW  Elec       q    Type
REMARK                         _______ _______ _______ _____ _____    ______ ____
ROOT
ATOM      1  CA  UNL     1      30.421 -25.198 -14.741  0.00  0.00    +0.062 C 
ENDROOT
BRANCH   1   2
ATOM      2  N   UNL     1      29.015 -25.432 -14.415  0.00  0.00    +0.391 N 
ATOM      3  H1  UNL     1      28.677 -24.685 -13.808  0.00  0.00    -0.088 HD
ATOM      4  H2  UNL     1      28.921 -26.328 -13.937  0.00  0.00    -0.088 HD
ATOM      5  H3  UNL     1      28.464 -25.446 -15.274  0.00  0.00    -0.088 HD
ENDBRANCH   1   2
BRANCH   1   7
ATOM      6  OXT UNL     1      30.655 -23.947 -12.661  0.00  0.00    -0.252 OA
ATOM      7  C   UNL     1      31.121 -24.736 -13.475  0.00  0.00    +0.297 C 
BRANCH   7   8
ATOM      8  O   UNL     1      32.364 -25.269 -13.350  0.00  0.00    -0.481 OA
ATOM      9  H   UNL     1      32.626 -25.664 -12.541  0.00  0.00    +0.295 HD
ENDBRANCH   7   8
ENDBRANCH   1   7
BRANCH   1  10
ATOM     10  C   UNL     1      30.680 -24.166 -15.806  0.00  0.00    +0.002 C 
ATOM     11  C   UNL     1      29.963 -23.060 -16.040  0.00  0.00    +0.166 C 
BRANCH  11  12
ATOM     12  O   UNL     1      28.853 -22.685 -15.330  0.00  0.00    -0.469 OA
ATOM     13  C   UNL     1      27.737 -22.496 -16.185  0.00  0.00    +0.253 C 
ENDBRANCH  11  12
ENDBRANCH   1  10
TORSDOF 5
ENDMDL
MODEL 9
REMARK VINA RESULT:      -4.7      9.016      9.795
REMARK  Name = 5287671
REMARK  5 active torsions:
REMARK  status: ('A' for Active; 'I' for Inactive)
REMARK    1  A    between atoms: CA_1  and  N_2
REMARK    2  A    between atoms: CA_1  and  C_7
REMARK    3  A    between atoms: CA_1  and  C_10
REMARK    4  A    between atoms: C_7  and  O_8
REMARK    5  A    between atoms: C_11  and  O_12
REMARK                            x       y       z     vdW  Elec       q    Type
REMARK                         _______ _______ _______ _____ _____    ______ ____
ROOT
ATOM      1  CA  UNL     1      34.566 -21.265 -19.486  0.00  0.00    +0.062 C 
ENDROOT
BRANCH   1   2
ATOM      2  N   UNL     1      35.871 -21.696 -19.986  0.00  0.00    +0.391 N 
ATOM      3  H1  UNL     1      36.609 -21.216 -19.471  0.00  0.00    -0.088 HD
ATOM      4  H2  UNL     1      35.947 -21.470 -20.978  0.00  0.00    -0.088 HD
ATOM      5  H3  UNL     1      35.969 -22.704 -19.860  0.00  0.00    -0.088 HD
ENDBRANCH   1   2
BRANCH   1   7
ATOM      6  OXT UNL     1      34.068 -23.652 -19.506  0.00  0.00    -0.252 OA
ATOM      7  C   UNL     1      33.745 -22.510 -19.200  0.00  0.00    +0.297 C 
BRANCH   7   8
ATOM      8  O   UNL     1      32.566 -22.220 -18.589  0.00  0.00    -0.481 OA
ATOM      9  H   UNL     1      31.944 -22.901 -18.425  0.00  0.00    +0.295 HD
ENDBRANCH   7   8
ENDBRANCH   1   7
BRANCH   1  10
ATOM     10  C   UNL     1      33.766 -20.396 -20.418  0.00  0.00    +0.002 C 
ATOM     11  C   UNL     1      34.155 -19.236 -20.963  0.00  0.00    +0.166 C 
BRANCH  11  12
ATOM     12  O   UNL     1      35.371 -18.644 -20.752  0.00  0.00    -0.469 OA
ATOM     13  C   UNL     1      36.025 -18.364 -21.978  0.00  0.00    +0.253 C 
ENDBRANCH  11  12
ENDBRANCH   1  10
TORSDOF 5
ENDMDL
