MODEL 1
REMARK VINA RESULT:      -6.8      0.000      0.000
REMARK  Name = 9305
REMARK  6 active torsions:
REMARK  status: ('A' for Active; 'I' for Inactive)
REMARK    1  A    between atoms: C_1  and  C_4
REMARK    2  A    between atoms: C_1  and  CA_12
REMARK    3  A    between atoms: C_9  and  O_10
REMARK    4  A    between atoms: CA_12  and  N_13
REMARK    5  A    between atoms: CA_12  and  C_18
REMARK    6  A    between atoms: C_18  and  O_19
REMARK                            x       y       z     vdW  Elec       q    Type
REMARK                         _______ _______ _______ _____ _____    ______ ____
ROOT
ATOM      1  C   UNL     1      36.002 -24.590 -14.333  0.00  0.00    +0.015 C 
ENDROOT
BRANCH   1   4
ATOM      2  I   UNL     1      34.034 -22.327 -18.940  0.00  0.00    -0.039 I 
ATOM      3  I   UNL     1      30.547 -23.918 -14.190  0.00  0.00    -0.039 I 
ATOM      4  C   UNL     1      34.775 -24.105 -15.070  0.00  0.00    -0.023 C 
ATOM      5  C   UNL     1      33.536 -24.203 -14.461  0.00  0.00    +0.005 C 
ATOM      6  C   UNL     1      34.915 -23.574 -16.342  0.00  0.00    +0.005 C 
ATOM      7  C   UNL     1      33.783 -23.126 -17.023  0.00  0.00    +0.064 C 
ATOM      8  C   UNL     1      32.403 -23.755 -15.142  0.00  0.00    +0.064 C 
ATOM      9  C   UNL     1      32.527 -23.217 -16.423  0.00  0.00    +0.144 C 
BRANCH   9  10
ATOM     10  O   UNL     1      31.418 -22.779 -17.089  0.00  0.00    -0.505 OA
ATOM     11  H   UNL     1      31.259 -21.860 -17.180  0.00  0.00    +0.292 HD
ENDBRANCH   9  10
ENDBRANCH   1   4
BRANCH   1  12
ATOM     12  CA  UNL     1      36.783 -25.660 -15.111  0.00  0.00    +0.040 C 
BRANCH  12  13
ATOM     13  N   UNL     1      36.046 -26.921 -15.096  0.00  0.00    +0.389 N 
ATOM     14  H1  UNL     1      35.108 -26.770 -15.466  0.00  0.00    -0.088 HD
ATOM     15  H2  UNL     1      35.982 -27.265 -14.138  0.00  0.00    -0.088 HD
ATOM     16  H3  UNL     1      36.533 -27.606 -15.672  0.00  0.00    -0.088 HD
ENDBRANCH  12  13
BRANCH  12  18
ATOM     17  OXT UNL     1      38.327 -26.205 -13.307  0.00  0.00    -0.253 OA
ATOM     18  C   UNL     1      38.140 -25.942 -14.489  0.00  0.00    +0.293 C 
BRANCH  18  19
ATOM     19  O   UNL     1      39.145 -25.906 -15.402  0.00  0.00    -0.482 OA
ATOM     20  H   UNL     1      39.225 -26.590 -16.037  0.00  0.00    +0.295 HD
ENDBRANCH  18  19
ENDBRANCH  12  18
ENDBRANCH   1  12
TORSDOF 6
ENDMDL
MODEL 2
REMARK VINA RESULT:      -6.8      0.020      2.554
REMARK  Name = 9305
REMARK  6 active torsions:
REMARK  status: ('A' for Active; 'I' for Inactive)
REMARK    1  A    between atoms: C_1  and  C_4
REMARK    2  A    between atoms: C_1  and  CA_12
REMARK    3  A    between atoms: C_9  and  O_10
REMARK    4  A    between atoms: CA_12  and  N_13
REMARK    5  A    between atoms: CA_12  and  C_18
REMARK    6  A    between atoms: C_18  and  O_19
REMARK                            x       y       z     vdW  Elec       q    Type
REMARK                         _______ _______ _______ _____ _____    ______ ____
ROOT
ATOM      1  C   UNL     1      35.983 -24.618 -14.318  0.00  0.00    +0.015 C 
ENDROOT
BRANCH   1   4
ATOM      2  I   UNL     1      30.533 -23.911 -14.179  0.00  0.00    -0.039 I 
ATOM      3  I   UNL     1      34.034 -22.341 -18.926  0.00  0.00    -0.039 I 
ATOM      4  C   UNL     1      34.760 -24.125 -15.057  0.00  0.00    -0.023 C 
ATOM      5  C   UNL     1      34.905 -23.593 -16.327  0.00  0.00    +0.005 C 
ATOM      6  C   UNL     1      33.519 -24.214 -14.448  0.00  0.00    +0.005 C 
ATOM      7  C   UNL     1      32.391 -23.758 -15.129  0.00  0.00    +0.064 C 
ATOM      8  C   UNL     1      33.777 -23.138 -17.009  0.00  0.00    +0.064 C 
ATOM      9  C   UNL     1      32.520 -23.220 -16.410  0.00  0.00    +0.144 C 
BRANCH   9  10
ATOM     10  O   UNL     1      31.415 -22.774 -17.078  0.00  0.00    -0.505 OA
ATOM     11  H   UNL     1      30.664 -22.481 -16.599  0.00  0.00    +0.292 HD
ENDBRANCH   9  10
ENDBRANCH   1   4
BRANCH   1  12
ATOM     12  CA  UNL     1      36.777 -25.667 -15.111  0.00  0.00    +0.040 C 
BRANCH  12  13
ATOM     13  N   UNL     1      36.056 -26.937 -15.111  0.00  0.00    +0.389 N 
ATOM     14  H1  UNL     1      36.376 -27.509 -15.892  0.00  0.00    -0.088 HD
ATOM     15  H2  UNL     1      35.056 -26.760 -15.208  0.00  0.00    -0.088 HD
ATOM     16  H3  UNL     1      36.231 -27.428 -14.235  0.00  0.00    -0.088 HD
ENDBRANCH  12  13
BRANCH  12  18
ATOM     17  OXT UNL     1      38.331 -26.200 -13.311  0.00  0.00    -0.253 OA
ATOM     18  C   UNL     1      38.138 -25.940 -14.492  0.00  0.00    +0.293 C 
BRANCH  18  19
ATOM     19  O   UNL     1      39.140 -25.901 -15.410  0.00  0.00    -0.482 OA
ATOM     20  H   UNL     1      39.345 -25.098 -15.845  0.00  0.00    +0.295 HD
ENDBRANCH  18  19
ENDBRANCH  12  18
ENDBRANCH   1  12
TORSDOF 6
ENDMDL
MODEL 3
REMARK VINA RESULT:      -6.8      3.726      6.638
REMARK  Name = 9305
REMARK  6 active torsions:
REMARK  status: ('A' for Active; 'I' for Inactive)
REMARK    1  A    between atoms: C_1  and  C_4
REMARK    2  A    between atoms: C_1  and  CA_12
REMARK    3  A    between atoms: C_9  and  O_10
REMARK    4  A    between atoms: CA_12  and  N_13
REMARK    5  A    between atoms: CA_12  and  C_18
REMARK    6  A    between atoms: C_18  and  O_19
REMARK                            x       y       z     vdW  Elec       q    Type
REMARK                         _______ _______ _______ _____ _____    ______ ____
ROOT
ATOM      1  C   UNL     1      30.092 -23.830 -15.883  0.00  0.00    +0.015 C 
ENDROOT
BRANCH   1   4
ATOM      2  I   UNL     1      34.174 -22.218 -19.193  0.00  0.00    -0.039 I 
ATOM      3  I   UNL     1      35.019 -24.147 -13.464  0.00  0.00    -0.039 I 
ATOM      4  C   UNL     1      31.581 -23.616 -16.031  0.00  0.00    -0.023 C 
ATOM      5  C   UNL     1      32.415 -23.902 -14.963  0.00  0.00    +0.005 C 
ATOM      6  C   UNL     1      32.081 -23.137 -17.230  0.00  0.00    +0.005 C 
ATOM      7  C   UNL     1      33.455 -22.939 -17.366  0.00  0.00    +0.064 C 
ATOM      8  C   UNL     1      33.789 -23.704 -15.098  0.00  0.00    +0.064 C 
ATOM      9  C   UNL     1      34.309 -23.223 -16.300  0.00  0.00    +0.144 C 
BRANCH   9  10
ATOM     10  O   UNL     1      35.654 -23.030 -16.433  0.00  0.00    -0.505 OA
ATOM     11  H   UNL     1      35.998 -22.161 -16.512  0.00  0.00    +0.292 HD
ENDBRANCH   9  10
ENDBRANCH   1   4
BRANCH   1  12
ATOM     12  CA  UNL     1      29.274 -22.564 -16.181  0.00  0.00    +0.040 C 
BRANCH  12  13
ATOM     13  N   UNL     1      28.750 -22.008 -14.936  0.00  0.00    +0.389 N 
ATOM     14  H1  UNL     1      27.768 -21.763 -15.060  0.00  0.00    -0.088 HD
ATOM     15  H2  UNL     1      29.280 -21.172 -14.688  0.00  0.00    -0.088 HD
ATOM     16  H3  UNL     1      28.839 -22.699 -14.192  0.00  0.00    -0.088 HD
ENDBRANCH  12  13
BRANCH  12  18
ATOM     17  OXT UNL     1      27.776 -23.960 -17.501  0.00  0.00    -0.253 OA
ATOM     18  C   UNL     1      28.074 -22.854 -17.067  0.00  0.00    +0.293 C 
BRANCH  18  19
ATOM     19  O   UNL     1      27.326 -21.745 -17.305  0.00  0.00    -0.482 OA
ATOM     20  H   UNL     1      27.497 -20.955 -16.833  0.00  0.00    +0.295 HD
ENDBRANCH  18  19
ENDBRANCH  12  18
ENDBRANCH   1  12
TORSDOF 6
ENDMDL
MODEL 4
REMARK VINA RESULT:      -6.8      3.810      6.916
REMARK  Name = 9305
REMARK  6 active torsions:
REMARK  status: ('A' for Active; 'I' for Inactive)
REMARK    1  A    between atoms: C_1  and  C_4
REMARK    2  A    between atoms: C_1  and  CA_12
REMARK    3  A    between atoms: C_9  and  O_10
REMARK    4  A    between atoms: CA_12  and  N_13
REMARK    5  A    between atoms: CA_12  and  C_18
REMARK    6  A    between atoms: C_18  and  O_19
REMARK                            x       y       z     vdW  Elec       q    Type
REMARK                         _______ _______ _______ _____ _____    ______ ____
ROOT
ATOM      1  C   UNL     1      29.996 -23.801 -15.524  0.00  0.00    +0.015 C 
ENDROOT
BRANCH   1   4
ATOM      2  I   UNL     1      35.070 -24.167 -13.441  0.00  0.00    -0.039 I 
ATOM      3  I   UNL     1      33.867 -22.287 -19.122  0.00  0.00    -0.039 I 
ATOM      4  C   UNL     1      31.474 -23.611 -15.774  0.00  0.00    -0.023 C 
ATOM      5  C   UNL     1      31.899 -23.154 -17.011  0.00  0.00    +0.005 C 
ATOM      6  C   UNL     1      32.375 -23.899 -14.762  0.00  0.00    +0.005 C 
ATOM      7  C   UNL     1      33.739 -23.725 -14.993  0.00  0.00    +0.064 C 
ATOM      8  C   UNL     1      33.263 -22.979 -17.242  0.00  0.00    +0.064 C 
ATOM      9  C   UNL     1      34.183 -23.265 -16.234  0.00  0.00    +0.144 C 
BRANCH   9  10
ATOM     10  O   UNL     1      35.519 -23.093 -16.460  0.00  0.00    -0.505 OA
ATOM     11  H   UNL     1      35.848 -22.253 -16.715  0.00  0.00    +0.292 HD
ENDBRANCH   9  10
ENDBRANCH   1   4
BRANCH   1  12
ATOM     12  CA  UNL     1      29.126 -22.785 -16.282  0.00  0.00    +0.040 C 
BRANCH  12  13
ATOM     13  N   UNL     1      28.326 -22.014 -15.334  0.00  0.00    +0.389 N 
ATOM     14  H1  UNL     1      28.556 -21.025 -15.420  0.00  0.00    -0.088 HD
ATOM     15  H2  UNL     1      28.529 -22.328 -14.384  0.00  0.00    -0.088 HD
ATOM     16  H3  UNL     1      27.336 -22.153 -15.533  0.00  0.00    -0.088 HD
ENDBRANCH  12  13
BRANCH  12  18
ATOM     17  OXT UNL     1      27.950 -24.671 -17.280  0.00  0.00    -0.253 OA
ATOM     18  C   UNL     1      28.148 -23.463 -17.226  0.00  0.00    +0.293 C 
BRANCH  18  19
ATOM     19  O   UNL     1      27.474 -22.572 -17.999  0.00  0.00    -0.482 OA
ATOM     20  H   UNL     1      26.538 -22.543 -17.972  0.00  0.00    +0.295 HD
ENDBRANCH  18  19
ENDBRANCH  12  18
ENDBRANCH   1  12
TORSDOF 6
ENDMDL
MODEL 5
REMARK VINA RESULT:      -6.8      1.964      2.375
REMARK  Name = 9305
REMARK  6 active torsions:
REMARK  status: ('A' for Active; 'I' for Inactive)
REMARK    1  A    between atoms: C_1  and  C_4
REMARK    2  A    between atoms: C_1  and  CA_12
REMARK    3  A    between atoms: C_9  and  O_10
REMARK    4  A    between atoms: CA_12  and  N_13
REMARK    5  A    between atoms: CA_12  and  C_18
REMARK    6  A    between atoms: C_18  and  O_19
REMARK                            x       y       z     vdW  Elec       q    Type
REMARK                         _______ _______ _______ _____ _____    ______ ____
ROOT
ATOM      1  C   UNL     1      35.950 -24.333 -14.102  0.00  0.00    +0.015 C 
ENDROOT
BRANCH   1   4
ATOM      2  I   UNL     1      34.064 -22.354 -18.871  0.00  0.00    -0.039 I 
ATOM      3  I   UNL     1      30.463 -24.002 -14.226  0.00  0.00    -0.039 I 
ATOM      4  C   UNL     1      34.731 -23.951 -14.911  0.00  0.00    -0.023 C 
ATOM      5  C   UNL     1      33.473 -24.106 -14.354  0.00  0.00    +0.005 C 
ATOM      6  C   UNL     1      34.898 -23.454 -16.193  0.00  0.00    +0.005 C 
ATOM      7  C   UNL     1      33.774 -23.102 -16.940  0.00  0.00    +0.064 C 
ATOM      8  C   UNL     1      32.348 -23.754 -15.100  0.00  0.00    +0.064 C 
ATOM      9  C   UNL     1      32.499 -23.252 -16.393  0.00  0.00    +0.144 C 
BRANCH   9  10
ATOM     10  O   UNL     1      31.397 -22.908 -17.124  0.00  0.00    -0.505 OA
ATOM     11  H   UNL     1      30.540 -23.028 -16.764  0.00  0.00    +0.292 HD
ENDBRANCH   9  10
ENDBRANCH   1   4
BRANCH   1  12
ATOM     12  CA  UNL     1      35.894 -23.814 -12.657  0.00  0.00    +0.040 C 
BRANCH  12  13
ATOM     13  N   UNL     1      37.085 -23.018 -12.370  0.00  0.00    +0.389 N 
ATOM     14  H1  UNL     1      37.537 -23.374 -11.529  0.00  0.00    -0.088 HD
ATOM     15  H2  UNL     1      36.815 -22.044 -12.225  0.00  0.00    -0.088 HD
ATOM     16  H3  UNL     1      37.731 -23.077 -13.156  0.00  0.00    -0.088 HD
ENDBRANCH  12  13
BRANCH  12  18
ATOM     17  OXT UNL     1      35.262 -24.927 -10.584  0.00  0.00    -0.253 OA
ATOM     18  C   UNL     1      35.874 -24.947 -11.644  0.00  0.00    +0.293 C 
BRANCH  18  19
ATOM     19  O   UNL     1      36.592 -26.024 -12.059  0.00  0.00    -0.482 OA
ATOM     20  H   UNL     1      36.151 -26.795 -12.355  0.00  0.00    +0.295 HD
ENDBRANCH  18  19
ENDBRANCH  12  18
ENDBRANCH   1  12
TORSDOF 6
ENDMDL
MODEL 6
REMARK VINA RESULT:      -6.7      1.928      3.464
REMARK  Name = 9305
REMARK  6 active torsions:
REMARK  status: ('A' for Active; 'I' for Inactive)
REMARK    1  A    between atoms: C_1  and  C_4
REMARK    2  A    between atoms: C_1  and  CA_12
REMARK    3  A    between atoms: C_9  and  O_10
REMARK    4  A    between atoms: CA_12  and  N_13
REMARK    5  A    between atoms: CA_12  and  C_18
REMARK    6  A    between atoms: C_18  and  O_19
REMARK                            x       y       z     vdW  Elec       q    Type
REMARK                         _______ _______ _______ _____ _____    ______ ____
ROOT
ATOM      1  C   UNL     1      35.809 -24.515 -14.127  0.00  0.00    +0.015 C 
ENDROOT
BRANCH   1   4
ATOM      2  I   UNL     1      30.349 -23.898 -14.312  0.00  0.00    -0.039 I 
ATOM      3  I   UNL     1      34.090 -22.350 -18.880  0.00  0.00    -0.039 I 
ATOM      4  C   UNL     1      34.622 -24.056 -14.943  0.00  0.00    -0.023 C 
ATOM      5  C   UNL     1      34.831 -23.543 -16.213  0.00  0.00    +0.005 C 
ATOM      6  C   UNL     1      33.350 -24.155 -14.404  0.00  0.00    +0.005 C 
ATOM      7  C   UNL     1      32.255 -23.730 -15.157  0.00  0.00    +0.064 C 
ATOM      8  C   UNL     1      33.736 -23.118 -16.966  0.00  0.00    +0.064 C 
ATOM      9  C   UNL     1      32.449 -23.212 -16.438  0.00  0.00    +0.144 C 
BRANCH   9  10
ATOM     10  O   UNL     1      31.377 -22.796 -17.176  0.00  0.00    -0.505 OA
ATOM     11  H   UNL     1      30.879 -23.418 -17.671  0.00  0.00    +0.292 HD
ENDBRANCH   9  10
ENDBRANCH   1   4
BRANCH   1  12
ATOM     12  CA  UNL     1      35.842 -23.897 -12.721  0.00  0.00    +0.040 C 
BRANCH  12  13
ATOM     13  N   UNL     1      37.036 -23.068 -12.573  0.00  0.00    +0.389 N 
ATOM     14  H1  UNL     1      37.298 -22.685 -13.480  0.00  0.00    -0.088 HD
ATOM     15  H2  UNL     1      37.801 -23.637 -12.210  0.00  0.00    -0.088 HD
ATOM     16  H3  UNL     1      36.842 -22.306 -11.924  0.00  0.00    -0.088 HD
ENDBRANCH  12  13
BRANCH  12  18
ATOM     17  OXT UNL     1      35.262 -24.934 -10.594  0.00  0.00    -0.253 OA
ATOM     18  C   UNL     1      35.909 -24.956 -11.634  0.00  0.00    +0.293 C 
BRANCH  18  19
ATOM     19  O   UNL     1      36.754 -25.972 -11.953  0.00  0.00    -0.482 OA
ATOM     20  H   UNL     1      36.885 -26.207 -12.850  0.00  0.00    +0.295 HD
ENDBRANCH  18  19
ENDBRANCH  12  18
ENDBRANCH   1  12
TORSDOF 6
ENDMDL
MODEL 7
REMARK VINA RESULT:      -6.6      4.001      5.368
REMARK  Name = 9305
REMARK  6 active torsions:
REMARK  status: ('A' for Active; 'I' for Inactive)
REMARK    1  A    between atoms: C_1  and  C_4
REMARK    2  A    between atoms: C_1  and  CA_12
REMARK    3  A    between atoms: C_9  and  O_10
REMARK    4  A    between atoms: CA_12  and  N_13
REMARK    5  A    between atoms: CA_12  and  C_18
REMARK    6  A    between atoms: C_18  and  O_19
REMARK                            x       y       z     vdW  Elec       q    Type
REMARK                         _______ _______ _______ _____ _____    ______ ____
ROOT
ATOM      1  C   UNL     1      33.851 -22.866 -18.884  0.00  0.00    +0.015 C 
ENDROOT
BRANCH   1   4
ATOM      2  I   UNL     1      36.174 -23.550 -13.949  0.00  0.00    -0.039 I 
ATOM      3  I   UNL     1      30.141 -23.360 -14.857  0.00  0.00    -0.039 I 
ATOM      4  C   UNL     1      33.622 -23.061 -17.403  0.00  0.00    -0.023 C 
ATOM      5  C   UNL     1      32.326 -23.110 -16.919  0.00  0.00    +0.005 C 
ATOM      6  C   UNL     1      34.713 -23.185 -16.559  0.00  0.00    +0.005 C 
ATOM      7  C   UNL     1      34.502 -23.364 -15.192  0.00  0.00    +0.064 C 
ATOM      8  C   UNL     1      32.114 -23.289 -15.552  0.00  0.00    +0.064 C 
ATOM      9  C   UNL     1      33.202 -23.416 -14.688  0.00  0.00    +0.144 C 
BRANCH   9  10
ATOM     10  O   UNL     1      32.994 -23.592 -13.350  0.00  0.00    -0.505 OA
ATOM     11  H   UNL     1      33.379 -22.999 -12.734  0.00  0.00    +0.292 HD
ENDBRANCH   9  10
ENDBRANCH   1   4
BRANCH   1  12
ATOM     12  CA  UNL     1      33.719 -21.399 -19.321  0.00  0.00    +0.040 C 
BRANCH  12  13
ATOM     13  N   UNL     1      32.686 -21.280 -20.347  0.00  0.00    +0.389 N 
ATOM     14  H1  UNL     1      32.063 -20.508 -20.114  0.00  0.00    -0.088 HD
ATOM     15  H2  UNL     1      32.151 -22.147 -20.393  0.00  0.00    -0.088 HD
ATOM     16  H3  UNL     1      33.124 -21.103 -21.251  0.00  0.00    -0.088 HD
ENDBRANCH  12  13
BRANCH  12  18
ATOM     17  OXT UNL     1      35.153 -19.735 -20.375  0.00  0.00    -0.253 OA
ATOM     18  C   UNL     1      35.004 -20.868 -19.933  0.00  0.00    +0.293 C 
BRANCH  18  19
ATOM     19  O   UNL     1      36.006 -21.786 -19.910  0.00  0.00    -0.482 OA
ATOM     20  H   UNL     1      35.821 -22.676 -19.685  0.00  0.00    +0.295 HD
ENDBRANCH  18  19
ENDBRANCH  12  18
ENDBRANCH   1  12
TORSDOF 6
ENDMDL
MODEL 8
REMARK VINA RESULT:      -6.6      4.003      5.639
REMARK  Name = 9305
REMARK  6 active torsions:
REMARK  status: ('A' for Active; 'I' for Inactive)
REMARK    1  A    between atoms: C_1  and  C_4
REMARK    2  A    between atoms: C_1  and  CA_12
REMARK    3  A    between atoms: C_9  and  O_10
REMARK    4  A    between atoms: CA_12  and  N_13
REMARK    5  A    between atoms: CA_12  and  C_18
REMARK    6  A    between atoms: C_18  and  O_19
REMARK                            x       y       z     vdW  Elec       q    Type
REMARK                         _______ _______ _______ _____ _____    ______ ____
ROOT
ATOM      1  C   UNL     1      33.868 -22.850 -18.894  0.00  0.00    +0.015 C 
ENDROOT
BRANCH   1   4
ATOM      2  I   UNL     1      30.148 -23.353 -14.879  0.00  0.00    -0.039 I 
ATOM      3  I   UNL     1      36.178 -23.537 -13.952  0.00  0.00    -0.039 I 
ATOM      4  C   UNL     1      33.635 -23.047 -17.414  0.00  0.00    -0.023 C 
ATOM      5  C   UNL     1      34.724 -23.171 -16.567  0.00  0.00    +0.005 C 
ATOM      6  C   UNL     1      32.337 -23.099 -16.934  0.00  0.00    +0.005 C 
ATOM      7  C   UNL     1      32.122 -23.281 -15.568  0.00  0.00    +0.064 C 
ATOM      8  C   UNL     1      34.509 -23.353 -15.201  0.00  0.00    +0.064 C 
ATOM      9  C   UNL     1      33.208 -23.408 -14.701  0.00  0.00    +0.144 C 
BRANCH   9  10
ATOM     10  O   UNL     1      32.998 -23.586 -13.364  0.00  0.00    -0.505 OA
ATOM     11  H   UNL     1      33.421 -23.024 -12.744  0.00  0.00    +0.292 HD
ENDBRANCH   9  10
ENDBRANCH   1   4
BRANCH   1  12
ATOM     12  CA  UNL     1      33.733 -21.383 -19.331  0.00  0.00    +0.040 C 
BRANCH  12  13
ATOM     13  N   UNL     1      32.683 -21.262 -20.339  0.00  0.00    +0.389 N 
ATOM     14  H1  UNL     1      31.771 -21.298 -19.886  0.00  0.00    -0.088 HD
ATOM     15  H2  UNL     1      32.762 -22.030 -21.006  0.00  0.00    -0.088 HD
ATOM     16  H3  UNL     1      32.785 -20.374 -20.831  0.00  0.00    -0.088 HD
ENDBRANCH  12  13
BRANCH  12  18
ATOM     17  OXT UNL     1      35.161 -19.719 -20.392  0.00  0.00    -0.253 OA
ATOM     18  C   UNL     1      35.009 -20.857 -19.966  0.00  0.00    +0.293 C 
BRANCH  18  19
ATOM     19  O   UNL     1      36.000 -21.786 -19.982  0.00  0.00    -0.482 OA
ATOM     20  H   UNL     1      35.865 -22.623 -19.582  0.00  0.00    +0.295 HD
ENDBRANCH  18  19
ENDBRANCH  12  18
ENDBRANCH   1  12
TORSDOF 6
ENDMDL
MODEL 9
REMARK VINA RESULT:      -6.4     11.427     13.107
REMARK  Name = 9305
REMARK  6 active torsions:
REMARK  status: ('A' for Active; 'I' for Inactive)
REMARK    1  A    between atoms: C_1  and  C_4
REMARK    2  A    between atoms: C_1  and  CA_12
REMARK    3  A    between atoms: C_9  and  O_10
REMARK    4  A    between atoms: CA_12  and  N_13
REMARK    5  A    between atoms: CA_12  and  C_18
REMARK    6  A    between atoms: C_18  and  O_19
REMARK                            x       y       z     vdW  Elec       q    Type
REMARK                         _______ _______ _______ _____ _____    ______ ____
ROOT
ATOM      1  C   UNL     1      33.460 -15.439 -22.909  0.00  0.00    +0.015 C 
ENDROOT
BRANCH   1   4
ATOM      2  I   UNL     1      34.653 -10.728 -25.479  0.00  0.00    -0.039 I 
ATOM      3  I   UNL     1      30.914 -11.112 -20.669  0.00  0.00    -0.039 I 
ATOM      4  C   UNL     1      33.237 -13.945 -22.963  0.00  0.00    -0.023 C 
ATOM      5  C   UNL     1      32.397 -13.352 -22.036  0.00  0.00    +0.005 C 
ATOM      6  C   UNL     1      33.876 -13.200 -23.940  0.00  0.00    +0.005 C 
ATOM      7  C   UNL     1      33.669 -11.821 -23.991  0.00  0.00    +0.064 C 
ATOM      8  C   UNL     1      32.190 -11.973 -22.086  0.00  0.00    +0.064 C 
ATOM      9  C   UNL     1      32.826 -11.208 -23.064  0.00  0.00    +0.144 C 
BRANCH   9  10
ATOM     10  O   UNL     1      32.624  -9.858 -23.113  0.00  0.00    -0.505 OA
ATOM     11  H   UNL     1      33.028  -9.348 -23.788  0.00  0.00    +0.292 HD
ENDBRANCH   9  10
ENDBRANCH   1   4
BRANCH   1  12
ATOM     12  CA  UNL     1      34.887 -15.814 -22.479  0.00  0.00    +0.040 C 
BRANCH  12  13
ATOM     13  N   UNL     1      35.420 -16.840 -23.372  0.00  0.00    +0.389 N 
ATOM     14  H1  UNL     1      36.093 -17.415 -22.866  0.00  0.00    -0.088 HD
ATOM     15  H2  UNL     1      35.882 -16.393 -24.165  0.00  0.00    -0.088 HD
ATOM     16  H3  UNL     1      34.657 -17.426 -23.710  0.00  0.00    -0.088 HD
ENDBRANCH  12  13
BRANCH  12  18
ATOM     17  OXT UNL     1      35.065 -17.585 -20.815  0.00  0.00    -0.253 OA
ATOM     18  C   UNL     1      34.926 -16.396 -21.076  0.00  0.00    +0.293 C 
BRANCH  18  19
ATOM     19  O   UNL     1      34.823 -15.440 -20.116  0.00  0.00    -0.482 OA
ATOM     20  H   UNL     1      34.061 -15.401 -19.573  0.00  0.00    +0.295 HD
ENDBRANCH  18  19
ENDBRANCH  12  18
ENDBRANCH   1  12
TORSDOF 6
ENDMDL
