MODEL 1
REMARK VINA RESULT:      -9.9      0.000      0.000
REMARK  Name = 3059
REMARK  4 active torsions:
REMARK  status: ('A' for Active; 'I' for Inactive)
REMARK    1  A    between atoms: C_1  and  C_9
REMARK    2  A    between atoms: C_4  and  C_18
REMARK    3  A    between atoms: C_5  and  O_15
REMARK    4  A    between atoms: C_18  and  O_19
REMARK                            x       y       z     vdW  Elec       q    Type
REMARK                         _______ _______ _______ _____ _____    ______ ____
ROOT
ATOM      1  C   UNL     1      34.775 -19.069 -21.557  0.00  0.00    +0.003 C 
ATOM      2  C   UNL     1      34.669 -17.744 -21.135  0.00  0.00    +0.010 C 
ATOM      3  C   UNL     1      35.030 -19.355 -22.898  0.00  0.00    +0.003 C 
ATOM      4  C   UNL     1      34.817 -16.705 -22.054  0.00  0.00    +0.109 C 
ATOM      5  C   UNL     1      35.072 -16.991 -23.395  0.00  0.00    +0.140 C 
ATOM      6  C   UNL     1      35.179 -18.317 -23.817  0.00  0.00    +0.037 C 
ENDROOT
BRANCH   1   9
ATOM      7  F   UNL     1      32.251 -19.967 -20.712  0.00  0.00    -0.204 F 
ATOM      8  F   UNL     1      34.190 -23.225 -17.886  0.00  0.00    -0.204 F 
ATOM      9  C   UNL     1      34.620 -20.147 -20.604  0.00  0.00    +0.028 C 
ATOM     10  C   UNL     1      33.345 -20.561 -20.216  0.00  0.00    +0.142 C 
ATOM     11  C   UNL     1      35.748 -20.774 -20.076  0.00  0.00    +0.005 C 
ATOM     12  C   UNL     1      33.200 -21.601 -19.297  0.00  0.00    +0.059 C 
ATOM     13  C   UNL     1      35.602 -21.813 -19.158  0.00  0.00    +0.030 C 
ATOM     14  C   UNL     1      34.328 -22.227 -18.768  0.00  0.00    +0.142 C 
ENDBRANCH   1   9
BRANCH   5  15
ATOM     15  O   UNL     1      35.221 -15.990 -24.308  0.00  0.00    -0.505 OA
ATOM     16  H   UNL     1      34.490 -15.718 -24.826  0.00  0.00    +0.292 HD
ENDBRANCH   5  15
BRANCH   4  18
ATOM     17  O   UNL     1      34.450 -14.355 -22.307  0.00  0.00    -0.245 OA
ATOM     18  C   UNL     1      34.702 -15.328 -21.593  0.00  0.00    +0.341 C 
BRANCH  18  19
ATOM     19  O   UNL     1      34.905 -15.211 -20.252  0.00  0.00    -0.477 OA
ATOM     20  H   UNL     1      34.839 -14.373 -19.840  0.00  0.00    +0.295 HD
ENDBRANCH  18  19
ENDBRANCH   4  18
TORSDOF 4
ENDMDL
MODEL 2
REMARK VINA RESULT:      -9.9      1.107      1.588
REMARK  Name = 3059
REMARK  4 active torsions:
REMARK  status: ('A' for Active; 'I' for Inactive)
REMARK    1  A    between atoms: C_1  and  C_9
REMARK    2  A    between atoms: C_4  and  C_18
REMARK    3  A    between atoms: C_5  and  O_15
REMARK    4  A    between atoms: C_18  and  O_19
REMARK                            x       y       z     vdW  Elec       q    Type
REMARK                         _______ _______ _______ _____ _____    ______ ____
ROOT
ATOM      1  C   UNL     1      34.722 -19.089 -21.530  0.00  0.00    +0.003 C 
ATOM      2  C   UNL     1      34.629 -17.762 -21.112  0.00  0.00    +0.010 C 
ATOM      3  C   UNL     1      34.987 -19.382 -22.868  0.00  0.00    +0.003 C 
ATOM      4  C   UNL     1      34.799 -16.727 -22.032  0.00  0.00    +0.109 C 
ATOM      5  C   UNL     1      35.063 -17.021 -23.370  0.00  0.00    +0.140 C 
ATOM      6  C   UNL     1      35.157 -18.349 -23.788  0.00  0.00    +0.037 C 
ENDROOT
BRANCH   1   9
ATOM      7  F   UNL     1      36.899 -20.430 -20.365  0.00  0.00    -0.204 F 
ATOM      8  F   UNL     1      34.026 -23.226 -17.857  0.00  0.00    -0.204 F 
ATOM      9  C   UNL     1      34.545 -20.163 -20.576  0.00  0.00    +0.028 C 
ATOM     10  C   UNL     1      35.657 -20.799 -20.022  0.00  0.00    +0.142 C 
ATOM     11  C   UNL     1      33.259 -20.561 -20.211  0.00  0.00    +0.005 C 
ATOM     12  C   UNL     1      35.481 -21.834 -19.103  0.00  0.00    +0.059 C 
ATOM     13  C   UNL     1      33.085 -21.595 -19.292  0.00  0.00    +0.030 C 
ATOM     14  C   UNL     1      34.195 -22.233 -18.739  0.00  0.00    +0.142 C 
ENDBRANCH   1   9
BRANCH   5  15
ATOM     15  O   UNL     1      35.233 -16.024 -24.285  0.00  0.00    -0.505 OA
ATOM     16  H   UNL     1      34.486 -15.628 -24.689  0.00  0.00    +0.292 HD
ENDBRANCH   5  15
BRANCH   4  18
ATOM     17  O   UNL     1      34.456 -14.375 -22.294  0.00  0.00    -0.245 OA
ATOM     18  C   UNL     1      34.697 -15.348 -21.576  0.00  0.00    +0.341 C 
BRANCH  18  19
ATOM     19  O   UNL     1      34.899 -15.229 -20.236  0.00  0.00    -0.477 OA
ATOM     20  H   UNL     1      34.340 -14.677 -19.725  0.00  0.00    +0.295 HD
ENDBRANCH  18  19
ENDBRANCH   4  18
TORSDOF 4
ENDMDL
MODEL 3
REMARK VINA RESULT:      -9.9      3.911      6.206
REMARK  Name = 3059
REMARK  4 active torsions:
REMARK  status: ('A' for Active; 'I' for Inactive)
REMARK    1  A    between atoms: C_1  and  C_9
REMARK    2  A    between atoms: C_4  and  C_18
REMARK    3  A    between atoms: C_5  and  O_15
REMARK    4  A    between atoms: C_18  and  O_19
REMARK                            x       y       z     vdW  Elec       q    Type
REMARK                         _______ _______ _______ _____ _____    ______ ____
ROOT
ATOM      1  C   UNL     1      35.397 -19.555 -21.141  0.00  0.00    +0.003 C 
ATOM      2  C   UNL     1      34.385 -20.395 -20.677  0.00  0.00    +0.010 C 
ATOM      3  C   UNL     1      36.677 -19.639 -20.593  0.00  0.00    +0.003 C 
ATOM      4  C   UNL     1      34.652 -21.319 -19.667  0.00  0.00    +0.109 C 
ATOM      5  C   UNL     1      35.932 -21.402 -19.120  0.00  0.00    +0.140 C 
ATOM      6  C   UNL     1      36.945 -20.562 -19.583  0.00  0.00    +0.037 C 
ENDROOT
BRANCH   1   9
ATOM      7  F   UNL     1      35.199 -16.799 -20.631  0.00  0.00    -0.204 F 
ATOM      8  F   UNL     1      34.329 -15.868 -25.184  0.00  0.00    -0.204 F 
ATOM      9  C   UNL     1      35.120 -18.596 -22.188  0.00  0.00    +0.028 C 
ATOM     10  C   UNL     1      35.033 -17.236 -21.887  0.00  0.00    +0.142 C 
ATOM     11  C   UNL     1      34.941 -19.033 -23.500  0.00  0.00    +0.005 C 
ATOM     12  C   UNL     1      34.765 -16.314 -22.900  0.00  0.00    +0.059 C 
ATOM     13  C   UNL     1      34.674 -18.111 -24.512  0.00  0.00    +0.030 C 
ATOM     14  C   UNL     1      34.586 -16.752 -24.212  0.00  0.00    +0.142 C 
ENDBRANCH   1   9
BRANCH   5  15
ATOM     15  O   UNL     1      36.214 -22.298 -18.132  0.00  0.00    -0.505 OA
ATOM     16  H   UNL     1      37.086 -22.627 -18.034  0.00  0.00    +0.292 HD
ENDBRANCH   5  15
BRANCH   4  18
ATOM     17  O   UNL     1      32.503 -21.805 -18.736  0.00  0.00    -0.245 OA
ATOM     18  C   UNL     1      33.581 -22.187 -19.197  0.00  0.00    +0.341 C 
BRANCH  18  19
ATOM     19  O   UNL     1      33.891 -23.506 -19.321  0.00  0.00    -0.477 OA
ATOM     20  H   UNL     1      33.911 -23.905 -20.168  0.00  0.00    +0.295 HD
ENDBRANCH  18  19
ENDBRANCH   4  18
TORSDOF 4
ENDMDL
MODEL 4
REMARK VINA RESULT:      -9.7      3.663      6.161
REMARK  Name = 3059
REMARK  4 active torsions:
REMARK  status: ('A' for Active; 'I' for Inactive)
REMARK    1  A    between atoms: C_1  and  C_9
REMARK    2  A    between atoms: C_4  and  C_18
REMARK    3  A    between atoms: C_5  and  O_15
REMARK    4  A    between atoms: C_18  and  O_19
REMARK                            x       y       z     vdW  Elec       q    Type
REMARK                         _______ _______ _______ _____ _____    ______ ____
ROOT
ATOM      1  C   UNL     1      35.305 -19.073 -21.704  0.00  0.00    +0.003 C 
ATOM      2  C   UNL     1      34.311 -19.888 -21.164  0.00  0.00    +0.010 C 
ATOM      3  C   UNL     1      36.610 -19.148 -21.215  0.00  0.00    +0.003 C 
ATOM      4  C   UNL     1      34.620 -20.778 -20.134  0.00  0.00    +0.109 C 
ATOM      5  C   UNL     1      35.925 -20.852 -19.646  0.00  0.00    +0.140 C 
ATOM      6  C   UNL     1      36.920 -20.037 -20.187  0.00  0.00    +0.037 C 
ENDROOT
BRANCH   1   9
ATOM      7  F   UNL     1      34.995 -19.913 -24.367  0.00  0.00    -0.204 F 
ATOM      8  F   UNL     1      34.071 -15.504 -25.805  0.00  0.00    -0.204 F 
ATOM      9  C   UNL     1      34.985 -18.149 -22.770  0.00  0.00    +0.028 C 
ATOM     10  C   UNL     1      34.838 -18.613 -24.078  0.00  0.00    +0.142 C 
ATOM     11  C   UNL     1      34.821 -16.793 -22.488  0.00  0.00    +0.005 C 
ATOM     12  C   UNL     1      34.530 -17.718 -25.104  0.00  0.00    +0.059 C 
ATOM     13  C   UNL     1      34.512 -15.900 -23.513  0.00  0.00    +0.030 C 
ATOM     14  C   UNL     1      34.367 -16.363 -24.822  0.00  0.00    +0.142 C 
ENDBRANCH   1   9
BRANCH   5  15
ATOM     15  O   UNL     1      36.248 -21.715 -18.642  0.00  0.00    -0.505 OA
ATOM     16  H   UNL     1      35.620 -22.343 -18.344  0.00  0.00    +0.292 HD
ENDBRANCH   5  15
BRANCH   4  18
ATOM     17  O   UNL     1      33.647 -22.838 -19.408  0.00  0.00    -0.245 OA
ATOM     18  C   UNL     1      33.568 -21.620 -19.584  0.00  0.00    +0.341 C 
BRANCH  18  19
ATOM     19  O   UNL     1      32.449 -20.912 -19.269  0.00  0.00    -0.477 OA
ATOM     20  H   UNL     1      31.627 -21.353 -19.175  0.00  0.00    +0.295 HD
ENDBRANCH  18  19
ENDBRANCH   4  18
TORSDOF 4
ENDMDL
MODEL 5
REMARK VINA RESULT:      -9.7      1.687      3.001
REMARK  Name = 3059
REMARK  4 active torsions:
REMARK  status: ('A' for Active; 'I' for Inactive)
REMARK    1  A    between atoms: C_1  and  C_9
REMARK    2  A    between atoms: C_4  and  C_18
REMARK    3  A    between atoms: C_5  and  O_15
REMARK    4  A    between atoms: C_18  and  O_19
REMARK                            x       y       z     vdW  Elec       q    Type
REMARK                         _______ _______ _______ _____ _____    ______ ____
ROOT
ATOM      1  C   UNL     1      34.619 -17.927 -21.700  0.00  0.00    +0.003 C 
ATOM      2  C   UNL     1      34.528 -17.930 -23.091  0.00  0.00    +0.010 C 
ATOM      3  C   UNL     1      34.662 -16.718 -21.006  0.00  0.00    +0.003 C 
ATOM      4  C   UNL     1      34.480 -16.724 -23.790  0.00  0.00    +0.109 C 
ATOM      5  C   UNL     1      34.522 -15.514 -23.096  0.00  0.00    +0.140 C 
ATOM      6  C   UNL     1      34.613 -15.511 -21.704  0.00  0.00    +0.037 C 
ENDROOT
BRANCH   1   9
ATOM      7  F   UNL     1      37.050 -19.148 -20.995  0.00  0.00    -0.204 F 
ATOM      8  F   UNL     1      34.807 -22.748 -18.904  0.00  0.00    -0.204 F 
ATOM      9  C   UNL     1      34.671 -19.178 -20.974  0.00  0.00    +0.028 C 
ATOM     10  C   UNL     1      35.903 -19.746 -20.644  0.00  0.00    +0.142 C 
ATOM     11  C   UNL     1      33.487 -19.815 -20.604  0.00  0.00    +0.005 C 
ATOM     12  C   UNL     1      35.948 -20.952 -19.945  0.00  0.00    +0.059 C 
ATOM     13  C   UNL     1      33.534 -21.021 -19.905  0.00  0.00    +0.030 C 
ATOM     14  C   UNL     1      34.764 -21.590 -19.576  0.00  0.00    +0.142 C 
ENDBRANCH   1   9
BRANCH   5  15
ATOM     15  O   UNL     1      34.475 -14.325 -23.760  0.00  0.00    -0.505 OA
ATOM     16  H   UNL     1      33.918 -14.228 -24.507  0.00  0.00    +0.292 HD
ENDBRANCH   5  15
BRANCH   4  18
ATOM     17  O   UNL     1      34.069 -15.791 -25.954  0.00  0.00    -0.245 OA
ATOM     18  C   UNL     1      34.384 -16.748 -25.243  0.00  0.00    +0.341 C 
BRANCH  18  19
ATOM     19  O   UNL     1      34.687 -17.969 -25.762  0.00  0.00    -0.477 OA
ATOM     20  H   UNL     1      35.332 -18.044 -26.437  0.00  0.00    +0.295 HD
ENDBRANCH  18  19
ENDBRANCH   4  18
TORSDOF 4
ENDMDL
MODEL 6
REMARK VINA RESULT:      -9.2      7.886      9.327
REMARK  Name = 3059
REMARK  4 active torsions:
REMARK  status: ('A' for Active; 'I' for Inactive)
REMARK    1  A    between atoms: C_1  and  C_9
REMARK    2  A    between atoms: C_4  and  C_18
REMARK    3  A    between atoms: C_5  and  O_15
REMARK    4  A    between atoms: C_18  and  O_19
REMARK                            x       y       z     vdW  Elec       q    Type
REMARK                         _______ _______ _______ _____ _____    ______ ____
ROOT
ATOM      1  C   UNL     1      34.722 -23.681 -15.202  0.00  0.00    +0.003 C 
ATOM      2  C   UNL     1      35.236 -24.976 -15.143  0.00  0.00    +0.010 C 
ATOM      3  C   UNL     1      35.587 -22.590 -15.278  0.00  0.00    +0.003 C 
ATOM      4  C   UNL     1      36.616 -25.180 -15.159  0.00  0.00    +0.109 C 
ATOM      5  C   UNL     1      37.482 -24.088 -15.234  0.00  0.00    +0.140 C 
ATOM      6  C   UNL     1      36.967 -22.793 -15.294  0.00  0.00    +0.037 C 
ENDROOT
BRANCH   1   9
ATOM      7  F   UNL     1      33.240 -23.277 -17.554  0.00  0.00    -0.204 F 
ATOM      8  F   UNL     1      29.207 -22.863 -15.121  0.00  0.00    -0.204 F 
ATOM      9  C   UNL     1      33.291 -23.469 -15.184  0.00  0.00    +0.028 C 
ATOM     10  C   UNL     1      32.596 -23.274 -16.379  0.00  0.00    +0.142 C 
ATOM     11  C   UNL     1      32.605 -23.460 -13.970  0.00  0.00    +0.005 C 
ATOM     12  C   UNL     1      31.216 -23.069 -16.357  0.00  0.00    +0.059 C 
ATOM     13  C   UNL     1      31.226 -23.255 -13.949  0.00  0.00    +0.030 C 
ATOM     14  C   UNL     1      30.532 -23.060 -15.142  0.00  0.00    +0.142 C 
ENDBRANCH   1   9
BRANCH   5  15
ATOM     15  O   UNL     1      38.833 -24.266 -15.252  0.00  0.00    -0.505 OA
ATOM     16  H   UNL     1      39.313 -24.121 -16.043  0.00  0.00    +0.292 HD
ENDBRANCH   5  15
BRANCH   4  18
ATOM     17  O   UNL     1      37.783 -27.014 -14.161  0.00  0.00    -0.245 OA
ATOM     18  C   UNL     1      37.134 -26.540 -15.096  0.00  0.00    +0.341 C 
BRANCH  18  19
ATOM     19  O   UNL     1      36.822 -27.264 -16.205  0.00  0.00    -0.477 OA
ATOM     20  H   UNL     1      35.938 -27.288 -16.515  0.00  0.00    +0.295 HD
ENDBRANCH  18  19
ENDBRANCH   4  18
TORSDOF 4
ENDMDL
MODEL 7
REMARK VINA RESULT:      -8.9      1.382      1.635
REMARK  Name = 3059
REMARK  4 active torsions:
REMARK  status: ('A' for Active; 'I' for Inactive)
REMARK    1  A    between atoms: C_1  and  C_9
REMARK    2  A    between atoms: C_4  and  C_18
REMARK    3  A    between atoms: C_5  and  O_15
REMARK    4  A    between atoms: C_18  and  O_19
REMARK                            x       y       z     vdW  Elec       q    Type
REMARK                         _______ _______ _______ _____ _____    ______ ____
ROOT
ATOM      1  C   UNL     1      34.710 -17.957 -22.076  0.00  0.00    +0.003 C 
ATOM      2  C   UNL     1      34.034 -16.848 -21.567  0.00  0.00    +0.010 C 
ATOM      3  C   UNL     1      35.072 -17.996 -23.422  0.00  0.00    +0.003 C 
ATOM      4  C   UNL     1      33.720 -15.778 -22.405  0.00  0.00    +0.109 C 
ATOM      5  C   UNL     1      34.083 -15.816 -23.751  0.00  0.00    +0.140 C 
ATOM      6  C   UNL     1      34.759 -16.926 -24.260  0.00  0.00    +0.037 C 
ENDROOT
BRANCH   1   9
ATOM      7  F   UNL     1      32.747 -19.713 -21.098  0.00  0.00    -0.204 F 
ATOM      8  F   UNL     1      35.972 -22.237 -18.732  0.00  0.00    -0.204 F 
ATOM      9  C   UNL     1      35.034 -19.069 -21.208  0.00  0.00    +0.028 C 
ATOM     10  C   UNL     1      34.025 -19.916 -20.748  0.00  0.00    +0.142 C 
ATOM     11  C   UNL     1      36.358 -19.292 -20.832  0.00  0.00    +0.005 C 
ATOM     12  C   UNL     1      34.343 -20.986 -19.912  0.00  0.00    +0.059 C 
ATOM     13  C   UNL     1      36.675 -20.362 -19.996  0.00  0.00    +0.030 C 
ATOM     14  C   UNL     1      35.667 -21.209 -19.535  0.00  0.00    +0.142 C 
ENDBRANCH   1   9
BRANCH   5  15
ATOM     15  O   UNL     1      33.786 -14.780 -24.586  0.00  0.00    -0.505 OA
ATOM     16  H   UNL     1      34.343 -14.028 -24.614  0.00  0.00    +0.292 HD
ENDBRANCH   5  15
BRANCH   4  18
ATOM     17  O   UNL     1      32.322 -13.839 -22.501  0.00  0.00    -0.245 OA
ATOM     18  C   UNL     1      33.014 -14.629 -21.854  0.00  0.00    +0.341 C 
BRANCH  18  19
ATOM     19  O   UNL     1      33.195 -14.504 -20.511  0.00  0.00    -0.477 OA
ATOM     20  H   UNL     1      33.778 -15.084 -20.062  0.00  0.00    +0.295 HD
ENDBRANCH  18  19
ENDBRANCH   4  18
TORSDOF 4
ENDMDL
MODEL 8
REMARK VINA RESULT:      -8.6      8.728     10.054
REMARK  Name = 3059
REMARK  4 active torsions:
REMARK  status: ('A' for Active; 'I' for Inactive)
REMARK    1  A    between atoms: C_1  and  C_9
REMARK    2  A    between atoms: C_4  and  C_18
REMARK    3  A    between atoms: C_5  and  O_15
REMARK    4  A    between atoms: C_18  and  O_19
REMARK                            x       y       z     vdW  Elec       q    Type
REMARK                         _______ _______ _______ _____ _____    ______ ____
ROOT
ATOM      1  C   UNL     1      34.435 -24.287 -14.077  0.00  0.00    +0.003 C 
ATOM      2  C   UNL     1      34.851 -23.883 -12.809  0.00  0.00    +0.010 C 
ATOM      3  C   UNL     1      35.375 -24.704 -15.019  0.00  0.00    +0.003 C 
ATOM      4  C   UNL     1      36.207 -23.896 -12.482  0.00  0.00    +0.109 C 
ATOM      5  C   UNL     1      37.147 -24.313 -13.424  0.00  0.00    +0.140 C 
ATOM      6  C   UNL     1      36.731 -24.718 -14.694  0.00  0.00    +0.037 C 
ENDROOT
BRANCH   1   9
ATOM      7  F   UNL     1      33.433 -22.794 -16.235  0.00  0.00    -0.204 F 
ATOM      8  F   UNL     1      29.013 -24.238 -15.377  0.00  0.00    -0.204 F 
ATOM      9  C   UNL     1      33.028 -24.272 -14.417  0.00  0.00    +0.028 C 
ATOM     10  C   UNL     1      32.577 -23.517 -15.500  0.00  0.00    +0.142 C 
ATOM     11  C   UNL     1      32.124 -25.017 -13.660  0.00  0.00    +0.005 C 
ATOM     12  C   UNL     1      31.220 -23.505 -15.824  0.00  0.00    +0.059 C 
ATOM     13  C   UNL     1      30.768 -25.005 -13.985  0.00  0.00    +0.030 C 
ATOM     14  C   UNL     1      30.316 -24.249 -15.066  0.00  0.00    +0.142 C 
ENDBRANCH   1   9
BRANCH   5  15
ATOM     15  O   UNL     1      38.477 -24.334 -13.125  0.00  0.00    -0.505 OA
ATOM     16  H   UNL     1      38.767 -24.098 -12.266  0.00  0.00    +0.292 HD
ENDBRANCH   5  15
BRANCH   4  18
ATOM     17  O   UNL     1      36.322 -24.035 -10.097  0.00  0.00    -0.245 OA
ATOM     18  C   UNL     1      36.621 -23.471 -11.152  0.00  0.00    +0.341 C 
BRANCH  18  19
ATOM     19  O   UNL     1      37.398 -22.354 -11.183  0.00  0.00    -0.477 OA
ATOM     20  H   UNL     1      38.330 -22.430 -11.114  0.00  0.00    +0.295 HD
ENDBRANCH  18  19
ENDBRANCH   4  18
TORSDOF 4
ENDMDL
MODEL 9
REMARK VINA RESULT:      -8.5      5.273      8.072
REMARK  Name = 3059
REMARK  4 active torsions:
REMARK  status: ('A' for Active; 'I' for Inactive)
REMARK    1  A    between atoms: C_1  and  C_9
REMARK    2  A    between atoms: C_4  and  C_18
REMARK    3  A    between atoms: C_5  and  O_15
REMARK    4  A    between atoms: C_18  and  O_19
REMARK                            x       y       z     vdW  Elec       q    Type
REMARK                         _______ _______ _______ _____ _____    ______ ____
ROOT
ATOM      1  C   UNL     1      33.384 -13.871 -24.018  0.00  0.00    +0.003 C 
ATOM      2  C   UNL     1      34.010 -14.792 -23.179  0.00  0.00    +0.010 C 
ATOM      3  C   UNL     1      33.112 -14.208 -25.344  0.00  0.00    +0.003 C 
ATOM      4  C   UNL     1      34.365 -16.050 -23.664  0.00  0.00    +0.109 C 
ATOM      5  C   UNL     1      34.093 -16.388 -24.990  0.00  0.00    +0.140 C 
ATOM      6  C   UNL     1      33.466 -15.466 -25.830  0.00  0.00    +0.037 C 
ENDROOT
BRANCH   1   9
ATOM      7  F   UNL     1      34.548 -11.509 -24.998  0.00  0.00    -0.204 F 
ATOM      8  F   UNL     1      31.961  -8.843 -22.072  0.00  0.00    -0.204 F 
ATOM      9  C   UNL     1      33.016 -12.565 -23.515  0.00  0.00    +0.028 C 
ATOM     10  C   UNL     1      33.621 -11.419 -24.034  0.00  0.00    +0.142 C 
ATOM     11  C   UNL     1      32.056 -12.453 -22.510  0.00  0.00    +0.005 C 
ATOM     12  C   UNL     1      33.264 -10.162 -23.546  0.00  0.00    +0.059 C 
ATOM     13  C   UNL     1      31.699 -11.196 -22.023  0.00  0.00    +0.030 C 
ATOM     14  C   UNL     1      32.304 -10.050 -22.540  0.00  0.00    +0.142 C 
ENDBRANCH   1   9
BRANCH   5  15
ATOM     15  O   UNL     1      34.431 -17.612 -25.484  0.00  0.00    -0.505 OA
ATOM     16  H   UNL     1      34.168 -17.856 -26.350  0.00  0.00    +0.292 HD
ENDBRANCH   5  15
BRANCH   4  18
ATOM     17  O   UNL     1      34.644 -17.277 -21.630  0.00  0.00    -0.245 OA
ATOM     18  C   UNL     1      35.018 -16.998 -22.772  0.00  0.00    +0.341 C 
BRANCH  18  19
ATOM     19  O   UNL     1      36.117 -17.568 -23.335  0.00  0.00    -0.477 OA
ATOM     20  H   UNL     1      36.036 -18.053 -24.133  0.00  0.00    +0.295 HD
ENDBRANCH  18  19
ENDBRANCH   4  18
TORSDOF 4
ENDMDL
