MODEL 1
REMARK VINA RESULT:      -7.3      0.000      0.000
REMARK  Name = 2284
REMARK  6 active torsions:
REMARK  status: ('A' for Active; 'I' for Inactive)
REMARK    1  A    between atoms: C_1  and  C_3
REMARK    2  A    between atoms: C_1  and  C_9
REMARK    3  A    between atoms: C_1  and  C_14
REMARK    4  A    between atoms: C_9  and  C_11
REMARK    5  A    between atoms: C_11  and  O_12
REMARK    6  A    between atoms: C_14  and  N_15
REMARK                            x       y       z     vdW  Elec       q    Type
REMARK                         _______ _______ _______ _____ _____    ______ ____
ROOT
ATOM      1  C   UNL     1      34.470 -18.447 -21.803  0.00  0.00    +0.012 C 
ENDROOT
BRANCH   1   3
ATOM      2 CL   UNL     1      33.619 -23.170 -18.197  0.00  0.00    -0.082 Cl
ATOM      3  C   UNL     1      34.254 -19.647 -20.886  0.00  0.00    -0.024 C 
ATOM      4  C   UNL     1      35.351 -20.369 -20.469  0.00  0.00    -0.003 C 
ATOM      5  C   UNL     1      32.968 -19.969 -20.505  0.00  0.00    -0.003 C 
ATOM      6  C   UNL     1      35.153 -21.467 -19.631  0.00  0.00    +0.011 C 
ATOM      7  C   UNL     1      32.771 -21.066 -19.667  0.00  0.00    +0.011 C 
ATOM      8  C   UNL     1      33.863 -21.816 -19.230  0.00  0.00    +0.058 C 
ENDBRANCH   1   3
BRANCH   1   9
ATOM      9  C   UNL     1      35.292 -17.358 -21.074  0.00  0.00    +0.112 C 
BRANCH   9  11
ATOM     10  O   UNL     1      34.867 -15.101 -20.255  0.00  0.00    -0.250 OA
ATOM     11  C   UNL     1      34.625 -15.998 -21.050  0.00  0.00    +0.314 C 
BRANCH  11  12
ATOM     12  O   UNL     1      33.726 -15.866 -22.061  0.00  0.00    -0.480 OA
ATOM     13  H   UNL     1      32.858 -16.203 -21.964  0.00  0.00    +0.295 HD
ENDBRANCH  11  12
ENDBRANCH   9  11
ENDBRANCH   1   9
BRANCH   1  14
ATOM     14  C   UNL     1      35.116 -18.927 -23.123  0.00  0.00    -0.081 C 
BRANCH  14  15
ATOM     15  N   UNL     1      35.353 -17.845 -24.071  0.00  0.00    +0.381 N 
ATOM     16  H   UNL     1      35.013 -18.120 -24.994  0.00  0.00    -0.089 HD
ATOM     17  H   UNL     1      36.353 -17.650 -24.122  0.00  0.00    -0.089 HD
ATOM     18  H   UNL     1      34.858 -17.008 -23.763  0.00  0.00    -0.089 HD
ENDBRANCH  14  15
ENDBRANCH   1  14
TORSDOF 6
ENDMDL
MODEL 2
REMARK VINA RESULT:      -7.3      1.769      2.761
REMARK  Name = 2284
REMARK  6 active torsions:
REMARK  status: ('A' for Active; 'I' for Inactive)
REMARK    1  A    between atoms: C_1  and  C_3
REMARK    2  A    between atoms: C_1  and  C_9
REMARK    3  A    between atoms: C_1  and  C_14
REMARK    4  A    between atoms: C_9  and  C_11
REMARK    5  A    between atoms: C_11  and  O_12
REMARK    6  A    between atoms: C_14  and  N_15
REMARK                            x       y       z     vdW  Elec       q    Type
REMARK                         _______ _______ _______ _____ _____    ______ ____
ROOT
ATOM      1  C   UNL     1      34.901 -18.138 -21.903  0.00  0.00    +0.012 C 
ENDROOT
BRANCH   1   3
ATOM      2 CL   UNL     1      33.844 -22.962 -18.492  0.00  0.00    -0.082 Cl
ATOM      3  C   UNL     1      34.632 -19.365 -21.036  0.00  0.00    -0.024 C 
ATOM      4  C   UNL     1      33.329 -19.676 -20.713  0.00  0.00    -0.003 C 
ATOM      5  C   UNL     1      35.701 -20.121 -20.606  0.00  0.00    -0.003 C 
ATOM      6  C   UNL     1      33.083 -20.797 -19.920  0.00  0.00    +0.011 C 
ATOM      7  C   UNL     1      35.455 -21.242 -19.814  0.00  0.00    +0.011 C 
ATOM      8  C   UNL     1      34.146 -21.580 -19.470  0.00  0.00    +0.058 C 
ENDBRANCH   1   3
BRANCH   1   9
ATOM      9  C   UNL     1      34.680 -18.479 -23.395  0.00  0.00    +0.112 C 
BRANCH   9  11
ATOM     10  O   UNL     1      34.610 -17.240 -25.495  0.00  0.00    -0.250 OA
ATOM     11  C   UNL     1      35.000 -17.338 -24.339  0.00  0.00    +0.314 C 
BRANCH  11  12
ATOM     12  O   UNL     1      35.760 -16.388 -23.734  0.00  0.00    -0.480 OA
ATOM     13  H   UNL     1      36.629 -16.594 -23.449  0.00  0.00    +0.295 HD
ENDBRANCH  11  12
ENDBRANCH   9  11
ENDBRANCH   1   9
BRANCH   1  14
ATOM     14  C   UNL     1      34.029 -16.963 -21.403  0.00  0.00    -0.081 C 
BRANCH  14  15
ATOM     15  N   UNL     1      34.813 -15.854 -20.871  0.00  0.00    +0.381 N 
ATOM     16  H   UNL     1      35.532 -15.591 -21.546  0.00  0.00    -0.089 HD
ATOM     17  H   UNL     1      35.255 -16.139 -19.997  0.00  0.00    -0.089 HD
ATOM     18  H   UNL     1      34.200 -15.057 -20.699  0.00  0.00    -0.089 HD
ENDBRANCH  14  15
ENDBRANCH   1  14
TORSDOF 6
ENDMDL
MODEL 3
REMARK VINA RESULT:      -7.1      0.407      1.354
REMARK  Name = 2284
REMARK  6 active torsions:
REMARK  status: ('A' for Active; 'I' for Inactive)
REMARK    1  A    between atoms: C_1  and  C_3
REMARK    2  A    between atoms: C_1  and  C_9
REMARK    3  A    between atoms: C_1  and  C_14
REMARK    4  A    between atoms: C_9  and  C_11
REMARK    5  A    between atoms: C_11  and  O_12
REMARK    6  A    between atoms: C_14  and  N_15
REMARK                            x       y       z     vdW  Elec       q    Type
REMARK                         _______ _______ _______ _____ _____    ______ ____
ROOT
ATOM      1  C   UNL     1      34.548 -18.389 -21.860  0.00  0.00    +0.012 C 
ENDROOT
BRANCH   1   3
ATOM      2 CL   UNL     1      33.628 -23.110 -18.269  0.00  0.00    -0.082 Cl
ATOM      3  C   UNL     1      34.314 -19.589 -20.948  0.00  0.00    -0.024 C 
ATOM      4  C   UNL     1      33.021 -19.918 -20.603  0.00  0.00    -0.003 C 
ATOM      5  C   UNL     1      35.404 -20.304 -20.499  0.00  0.00    -0.003 C 
ATOM      6  C   UNL     1      32.807 -21.015 -19.769  0.00  0.00    +0.011 C 
ATOM      7  C   UNL     1      35.189 -21.401 -19.665  0.00  0.00    +0.011 C 
ATOM      8  C   UNL     1      33.891 -21.757 -19.299  0.00  0.00    +0.058 C 
ENDBRANCH   1   3
BRANCH   1   9
ATOM      9  C   UNL     1      35.327 -17.287 -21.105  0.00  0.00    +0.112 C 
BRANCH   9  11
ATOM     10  O   UNL     1      34.895 -15.040 -20.260  0.00  0.00    -0.250 OA
ATOM     11  C   UNL     1      34.568 -15.983 -20.967  0.00  0.00    +0.314 C 
BRANCH  11  12
ATOM     12  O   UNL     1      33.471 -15.958 -21.769  0.00  0.00    -0.480 OA
ATOM     13  H   UNL     1      33.427 -16.515 -22.522  0.00  0.00    +0.295 HD
ENDBRANCH  11  12
ENDBRANCH   9  11
ENDBRANCH   1   9
BRANCH   1  14
ATOM     14  C   UNL     1      35.250 -18.864 -23.153  0.00  0.00    -0.081 C 
BRANCH  14  15
ATOM     15  N   UNL     1      34.373 -18.851 -24.319  0.00  0.00    +0.381 N 
ATOM     16  H   UNL     1      34.934 -18.743 -25.165  0.00  0.00    -0.089 HD
ATOM     17  H   UNL     1      33.718 -18.073 -24.243  0.00  0.00    -0.089 HD
ATOM     18  H   UNL     1      33.856 -19.728 -24.365  0.00  0.00    -0.089 HD
ENDBRANCH  14  15
ENDBRANCH   1  14
TORSDOF 6
ENDMDL
MODEL 4
REMARK VINA RESULT:      -6.7      7.409      8.647
REMARK  Name = 2284
REMARK  6 active torsions:
REMARK  status: ('A' for Active; 'I' for Inactive)
REMARK    1  A    between atoms: C_1  and  C_3
REMARK    2  A    between atoms: C_1  and  C_9
REMARK    3  A    between atoms: C_1  and  C_14
REMARK    4  A    between atoms: C_9  and  C_11
REMARK    5  A    between atoms: C_11  and  O_12
REMARK    6  A    between atoms: C_14  and  N_15
REMARK                            x       y       z     vdW  Elec       q    Type
REMARK                         _______ _______ _______ _____ _____    ______ ____
ROOT
ATOM      1  C   UNL     1      30.103 -23.538 -15.477  0.00  0.00    +0.012 C 
ENDROOT
BRANCH   1   3
ATOM      2 CL   UNL     1      36.044 -23.035 -16.172  0.00  0.00    -0.082 Cl
ATOM      3  C   UNL     1      31.614 -23.410 -15.653  0.00  0.00    -0.024 C 
ATOM      4  C   UNL     1      32.118 -23.201 -16.919  0.00  0.00    -0.003 C 
ATOM      5  C   UNL     1      32.423 -23.507 -14.541  0.00  0.00    -0.003 C 
ATOM      6  C   UNL     1      33.499 -23.084 -17.080  0.00  0.00    +0.011 C 
ATOM      7  C   UNL     1      33.803 -23.389 -14.703  0.00  0.00    +0.011 C 
ATOM      8  C   UNL     1      34.342 -23.179 -15.973  0.00  0.00    +0.058 C 
ENDBRANCH   1   3
BRANCH   1   9
ATOM      9  C   UNL     1      29.367 -22.667 -16.521  0.00  0.00    +0.112 C 
BRANCH   9  11
ATOM     10  O   UNL     1      27.052 -22.685 -15.752  0.00  0.00    -0.250 OA
ATOM     11  C   UNL     1      27.881 -22.945 -16.614  0.00  0.00    +0.314 C 
BRANCH  11  12
ATOM     12  O   UNL     1      27.551 -23.498 -17.811  0.00  0.00    -0.480 OA
ATOM     13  H   UNL     1      28.128 -23.407 -18.544  0.00  0.00    +0.295 HD
ENDBRANCH  11  12
ENDBRANCH   9  11
ENDBRANCH   1   9
BRANCH   1  14
ATOM     14  C   UNL     1      29.712 -25.032 -15.533  0.00  0.00    -0.081 C 
BRANCH  14  15
ATOM     15  N   UNL     1      29.040 -25.495 -14.324  0.00  0.00    +0.381 N 
ATOM     16  H   UNL     1      29.324 -26.454 -14.122  0.00  0.00    -0.089 HD
ATOM     17  H   UNL     1      28.030 -25.462 -14.462  0.00  0.00    -0.089 HD
ATOM     18  H   UNL     1      29.296 -24.893 -13.542  0.00  0.00    -0.089 HD
ENDBRANCH  14  15
ENDBRANCH   1  14
TORSDOF 6
ENDMDL
MODEL 5
REMARK VINA RESULT:      -6.7      4.119      5.726
REMARK  Name = 2284
REMARK  6 active torsions:
REMARK  status: ('A' for Active; 'I' for Inactive)
REMARK    1  A    between atoms: C_1  and  C_3
REMARK    2  A    between atoms: C_1  and  C_9
REMARK    3  A    between atoms: C_1  and  C_14
REMARK    4  A    between atoms: C_9  and  C_11
REMARK    5  A    between atoms: C_11  and  O_12
REMARK    6  A    between atoms: C_14  and  N_15
REMARK                            x       y       z     vdW  Elec       q    Type
REMARK                         _______ _______ _______ _____ _____    ______ ____
ROOT
ATOM      1  C   UNL     1      35.023 -18.369 -21.009  0.00  0.00    +0.012 C 
ENDROOT
BRANCH   1   3
ATOM      2 CL   UNL     1      33.996 -13.128 -23.748  0.00  0.00    -0.082 Cl
ATOM      3  C   UNL     1      34.761 -17.037 -21.705  0.00  0.00    -0.024 C 
ATOM      4  C   UNL     1      34.821 -16.985 -23.081  0.00  0.00    -0.003 C 
ATOM      5  C   UNL     1      34.474 -15.930 -20.935  0.00  0.00    -0.003 C 
ATOM      6  C   UNL     1      34.582 -15.767 -23.718  0.00  0.00    +0.011 C 
ATOM      7  C   UNL     1      34.234 -14.713 -21.572  0.00  0.00    +0.011 C 
ATOM      8  C   UNL     1      34.290 -14.630 -22.964  0.00  0.00    +0.058 C 
ENDBRANCH   1   3
BRANCH   1   9
ATOM      9  C   UNL     1      33.984 -19.422 -21.460  0.00  0.00    +0.112 C 
BRANCH   9  11
ATOM     10  O   UNL     1      32.380 -20.317 -19.856  0.00  0.00    -0.250 OA
ATOM     11  C   UNL     1      33.501 -20.326 -20.345  0.00  0.00    +0.314 C 
BRANCH  11  12
ATOM     12  O   UNL     1      34.467 -21.202 -19.961  0.00  0.00    -0.480 OA
ATOM     13  H   UNL     1      34.580 -22.008 -20.424  0.00  0.00    +0.295 HD
ENDBRANCH  11  12
ENDBRANCH   9  11
ENDBRANCH   1   9
BRANCH   1  14
ATOM     14  C   UNL     1      36.486 -18.797 -21.266  0.00  0.00    -0.081 C 
BRANCH  14  15
ATOM     15  N   UNL     1      37.009 -19.694 -20.242  0.00  0.00    +0.381 N 
ATOM     16  H   UNL     1      37.191 -19.165 -19.388  0.00  0.00    -0.089 HD
ATOM     17  H   UNL     1      37.877 -20.117 -20.571  0.00  0.00    -0.089 HD
ATOM     18  H   UNL     1      36.326 -20.425 -20.049  0.00  0.00    -0.089 HD
ENDBRANCH  14  15
ENDBRANCH   1  14
TORSDOF 6
ENDMDL
MODEL 6
REMARK VINA RESULT:      -6.7      4.917      6.507
REMARK  Name = 2284
REMARK  6 active torsions:
REMARK  status: ('A' for Active; 'I' for Inactive)
REMARK    1  A    between atoms: C_1  and  C_3
REMARK    2  A    between atoms: C_1  and  C_9
REMARK    3  A    between atoms: C_1  and  C_14
REMARK    4  A    between atoms: C_9  and  C_11
REMARK    5  A    between atoms: C_11  and  O_12
REMARK    6  A    between atoms: C_14  and  N_15
REMARK                            x       y       z     vdW  Elec       q    Type
REMARK                         _______ _______ _______ _____ _____    ______ ____
ROOT
ATOM      1  C   UNL     1      34.168 -16.269 -22.264  0.00  0.00    +0.012 C 
ENDROOT
BRANCH   1   3
ATOM      2 CL   UNL     1      31.031 -11.238 -21.322  0.00  0.00    -0.082 Cl
ATOM      3  C   UNL     1      33.371 -14.990 -22.024  0.00  0.00    -0.024 C 
ATOM      4  C   UNL     1      33.027 -14.654 -20.733  0.00  0.00    -0.003 C 
ATOM      5  C   UNL     1      33.022 -14.212 -23.108  0.00  0.00    -0.003 C 
ATOM      6  C   UNL     1      32.298 -13.485 -20.514  0.00  0.00    +0.011 C 
ATOM      7  C   UNL     1      32.293 -13.043 -22.889  0.00  0.00    +0.011 C 
ATOM      8  C   UNL     1      31.930 -12.680 -21.592  0.00  0.00    +0.058 C 
ENDBRANCH   1   3
BRANCH   1   9
ATOM      9  C   UNL     1      35.058 -16.117 -23.519  0.00  0.00    +0.112 C 
BRANCH   9  11
ATOM     10  O   UNL     1      34.775 -16.966 -25.787  0.00  0.00    -0.250 OA
ATOM     11  C   UNL     1      34.807 -17.167 -24.581  0.00  0.00    +0.314 C 
BRANCH  11  12
ATOM     12  O   UNL     1      34.654 -18.402 -24.034  0.00  0.00    -0.480 OA
ATOM     13  H   UNL     1      33.834 -18.646 -23.651  0.00  0.00    +0.295 HD
ENDBRANCH  11  12
ENDBRANCH   9  11
ENDBRANCH   1   9
BRANCH   1  14
ATOM     14  C   UNL     1      34.961 -16.619 -20.984  0.00  0.00    -0.081 C 
BRANCH  14  15
ATOM     15  N   UNL     1      35.347 -18.024 -20.916  0.00  0.00    +0.381 N 
ATOM     16  H   UNL     1      36.259 -18.104 -20.464  0.00  0.00    -0.089 HD
ATOM     17  H   UNL     1      35.399 -18.409 -21.859  0.00  0.00    -0.089 HD
ATOM     18  H   UNL     1      34.654 -18.541 -20.375  0.00  0.00    -0.089 HD
ENDBRANCH  14  15
ENDBRANCH   1  14
TORSDOF 6
ENDMDL
MODEL 7
REMARK VINA RESULT:      -6.6      5.676      7.116
REMARK  Name = 2284
REMARK  6 active torsions:
REMARK  status: ('A' for Active; 'I' for Inactive)
REMARK    1  A    between atoms: C_1  and  C_3
REMARK    2  A    between atoms: C_1  and  C_9
REMARK    3  A    between atoms: C_1  and  C_14
REMARK    4  A    between atoms: C_9  and  C_11
REMARK    5  A    between atoms: C_11  and  O_12
REMARK    6  A    between atoms: C_14  and  N_15
REMARK                            x       y       z     vdW  Elec       q    Type
REMARK                         _______ _______ _______ _____ _____    ______ ____
ROOT
ATOM      1  C   UNL     1      33.736 -23.339 -17.198  0.00  0.00    +0.012 C 
ENDROOT
BRANCH   1   3
ATOM      2 CL   UNL     1      35.342 -19.476 -21.502  0.00  0.00    -0.082 Cl
ATOM      3  C   UNL     1      34.145 -22.357 -18.292  0.00  0.00    -0.024 C 
ATOM      4  C   UNL     1      35.485 -22.105 -18.491  0.00  0.00    -0.003 C 
ATOM      5  C   UNL     1      33.159 -21.756 -19.046  0.00  0.00    -0.003 C 
ATOM      6  C   UNL     1      35.858 -21.207 -19.491  0.00  0.00    +0.011 C 
ATOM      7  C   UNL     1      33.533 -20.858 -20.046  0.00  0.00    +0.011 C 
ATOM      8  C   UNL     1      34.882 -20.583 -20.268  0.00  0.00    +0.058 C 
ENDBRANCH   1   3
BRANCH   1   9
ATOM      9  C   UNL     1      34.614 -23.134 -15.941  0.00  0.00    +0.112 C 
BRANCH   9  11
ATOM     10  O   UNL     1      36.188 -24.968 -15.619  0.00  0.00    -0.250 OA
ATOM     11  C   UNL     1      35.131 -24.423 -15.336  0.00  0.00    +0.314 C 
BRANCH  11  12
ATOM     12  O   UNL     1      34.283 -24.903 -14.388  0.00  0.00    -0.480 OA
ATOM     13  H   UNL     1      33.398 -24.598 -14.352  0.00  0.00    +0.295 HD
ENDBRANCH  11  12
ENDBRANCH   9  11
ENDBRANCH   1   9
BRANCH   1  14
ATOM     14  C   UNL     1      32.222 -23.191 -16.923  0.00  0.00    -0.081 C 
BRANCH  14  15
ATOM     15  N   UNL     1      31.897 -23.169 -15.501  0.00  0.00    +0.381 N 
ATOM     16  H   UNL     1      31.840 -24.125 -15.151  0.00  0.00    -0.089 HD
ATOM     17  H   UNL     1      31.001 -22.702 -15.365  0.00  0.00    -0.089 HD
ATOM     18  H   UNL     1      32.624 -22.664 -14.994  0.00  0.00    -0.089 HD
ENDBRANCH  14  15
ENDBRANCH   1  14
TORSDOF 6
ENDMDL
MODEL 8
REMARK VINA RESULT:      -6.5      4.318      6.012
REMARK  Name = 2284
REMARK  6 active torsions:
REMARK  status: ('A' for Active; 'I' for Inactive)
REMARK    1  A    between atoms: C_1  and  C_3
REMARK    2  A    between atoms: C_1  and  C_9
REMARK    3  A    between atoms: C_1  and  C_14
REMARK    4  A    between atoms: C_9  and  C_11
REMARK    5  A    between atoms: C_11  and  O_12
REMARK    6  A    between atoms: C_14  and  N_15
REMARK                            x       y       z     vdW  Elec       q    Type
REMARK                         _______ _______ _______ _____ _____    ______ ____
ROOT
ATOM      1  C   UNL     1      34.768 -16.374 -23.123  0.00  0.00    +0.012 C 
ENDROOT
BRANCH   1   3
ATOM      2 CL   UNL     1      31.265 -11.909 -21.167  0.00  0.00    -0.082 Cl
ATOM      3  C   UNL     1      33.878 -15.239 -22.625  0.00  0.00    -0.024 C 
ATOM      4  C   UNL     1      33.638 -15.127 -21.273  0.00  0.00    -0.003 C 
ATOM      5  C   UNL     1      33.343 -14.362 -23.546  0.00  0.00    -0.003 C 
ATOM      6  C   UNL     1      32.824 -14.089 -20.818  0.00  0.00    +0.011 C 
ATOM      7  C   UNL     1      32.529 -13.324 -23.091  0.00  0.00    +0.011 C 
ATOM      8  C   UNL     1      32.269 -13.189 -21.727  0.00  0.00    +0.058 C 
ENDBRANCH   1   3
BRANCH   1   9
ATOM      9  C   UNL     1      34.558 -17.637 -22.256  0.00  0.00    +0.112 C 
BRANCH   9  11
ATOM     10  O   UNL     1      36.009 -18.644 -20.574  0.00  0.00    -0.250 OA
ATOM     11  C   UNL     1      35.841 -18.229 -21.713  0.00  0.00    +0.314 C 
BRANCH  11  12
ATOM     12  O   UNL     1      36.807 -18.288 -22.668  0.00  0.00    -0.480 OA
ATOM     13  H   UNL     1      36.931 -19.074 -23.162  0.00  0.00    +0.295 HD
ENDBRANCH  11  12
ENDBRANCH   9  11
ENDBRANCH   1   9
BRANCH   1  14
ATOM     14  C   UNL     1      34.499 -16.607 -24.627  0.00  0.00    -0.081 C 
BRANCH  14  15
ATOM     15  N   UNL     1      34.596 -18.009 -25.016  0.00  0.00    +0.381 N 
ATOM     16  H   UNL     1      35.273 -18.106 -25.774  0.00  0.00    -0.089 HD
ATOM     17  H   UNL     1      33.684 -18.339 -25.331  0.00  0.00    -0.089 HD
ATOM     18  H   UNL     1      34.901 -18.563 -24.216  0.00  0.00    -0.089 HD
ENDBRANCH  14  15
ENDBRANCH   1  14
TORSDOF 6
ENDMDL
MODEL 9
REMARK VINA RESULT:      -6.5      3.455      4.552
REMARK  Name = 2284
REMARK  6 active torsions:
REMARK  status: ('A' for Active; 'I' for Inactive)
REMARK    1  A    between atoms: C_1  and  C_3
REMARK    2  A    between atoms: C_1  and  C_9
REMARK    3  A    between atoms: C_1  and  C_14
REMARK    4  A    between atoms: C_9  and  C_11
REMARK    5  A    between atoms: C_11  and  O_12
REMARK    6  A    between atoms: C_14  and  N_15
REMARK                            x       y       z     vdW  Elec       q    Type
REMARK                         _______ _______ _______ _____ _____    ______ ____
ROOT
ATOM      1  C   UNL     1      33.515 -15.117 -23.921  0.00  0.00    +0.012 C 
ENDROOT
BRANCH   1   3
ATOM      2 CL   UNL     1      36.490 -19.288 -20.793  0.00  0.00    -0.082 Cl
ATOM      3  C   UNL     1      34.272 -16.177 -23.126  0.00  0.00    -0.024 C 
ATOM      4  C   UNL     1      34.855 -17.225 -23.805  0.00  0.00    -0.003 C 
ATOM      5  C   UNL     1      34.347 -16.051 -21.755  0.00  0.00    -0.003 C 
ATOM      6  C   UNL     1      35.547 -18.194 -23.078  0.00  0.00    +0.011 C 
ATOM      7  C   UNL     1      35.039 -17.020 -21.029  0.00  0.00    +0.011 C 
ATOM      8  C   UNL     1      35.638 -18.093 -21.690  0.00  0.00    +0.058 C 
ENDBRANCH   1   3
BRANCH   1   9
ATOM      9  C   UNL     1      34.055 -13.708 -23.583  0.00  0.00    +0.112 C 
BRANCH   9  11
ATOM     10  O   UNL     1      33.044 -11.497 -23.398  0.00  0.00    -0.250 OA
ATOM     11  C   UNL     1      32.976 -12.706 -23.228  0.00  0.00    +0.314 C 
BRANCH  11  12
ATOM     12  O   UNL     1      31.874 -13.319 -22.720  0.00  0.00    -0.480 OA
ATOM     13  H   UNL     1      31.954 -14.152 -22.298  0.00  0.00    +0.295 HD
ENDBRANCH  11  12
ENDBRANCH   9  11
ENDBRANCH   1   9
BRANCH   1  14
ATOM     14  C   UNL     1      33.592 -15.462 -25.426  0.00  0.00    -0.081 C 
BRANCH  14  15
ATOM     15  N   UNL     1      32.552 -14.812 -26.216  0.00  0.00    +0.381 N 
ATOM     16  H   UNL     1      31.671 -14.832 -25.702  0.00  0.00    -0.089 HD
ATOM     17  H   UNL     1      32.441 -15.304 -27.102  0.00  0.00    -0.089 HD
ATOM     18  H   UNL     1      32.818 -13.844 -26.396  0.00  0.00    -0.089 HD
ENDBRANCH  14  15
ENDBRANCH   1  14
TORSDOF 6
ENDMDL
