MODEL 1
REMARK VINA RESULT:      -8.5      0.000      0.000
REMARK  Name = 449392
REMARK  7 active torsions:
REMARK  status: ('A' for Active; 'I' for Inactive)
REMARK    1  A    between atoms: C_2  and  O_15
REMARK    2  A    between atoms: C_4  and  C_22
REMARK    3  A    between atoms: C_5  and  N_8
REMARK    4  A    between atoms: O_15  and  P_16
REMARK    5  A    between atoms: P_16  and  O_18
REMARK    6  A    between atoms: P_16  and  O_20
REMARK    7  A    between atoms: C_22  and  O_23
REMARK                            x       y       z     vdW  Elec       q    Type
REMARK                         _______ _______ _______ _____ _____    ______ ____
ROOT
ATOM      1  O   UNL     1      34.891 -24.927 -14.677  0.00  0.00    -0.335 OA
ATOM      2  C   UNL     1      36.774 -23.528 -14.338  0.00  0.00    +0.160 C 
ATOM      3  C   UNL     1      35.870 -22.864 -15.350  0.00  0.00    +0.084 C 
ATOM      4  C   UNL     1      35.861 -24.553 -13.680  0.00  0.00    +0.174 C 
ATOM      5  C   UNL     1      34.957 -24.004 -15.773  0.00  0.00    +0.202 C 
ENDROOT
BRANCH   5   8
ATOM      6  O   UNL     1      34.131 -23.261 -18.366  0.00  0.00    -0.252 OA
ATOM      7  O   UNL     1      29.852 -22.326 -16.926  0.00  0.00    -0.270 OA
ATOM      8  N   UNL     1      33.634 -23.563 -16.104  0.00  0.00    -0.219 N 
ATOM      9  N   UNL     1      32.001 -22.795 -17.647  0.00  0.00    -0.236 N 
ATOM     10  C   UNL     1      33.322 -23.212 -17.437  0.00  0.00    +0.315 C 
ATOM     11  C   UNL     1      32.664 -23.483 -15.113  0.00  0.00    +0.076 C 
ATOM     12  C   UNL     1      31.409 -23.083 -15.329  0.00  0.00    +0.074 C 
ATOM     13  C   UNL     1      30.999 -22.698 -16.694  0.00  0.00    +0.254 C 
ATOM     14  H   UNL     1      31.759 -22.544 -18.567  0.00  0.00    +0.159 HD
ENDBRANCH   5   8
BRANCH   2  15
ATOM     15  O   UNL     1      37.844 -24.190 -15.009  0.00  0.00    -0.273 OA
BRANCH  15  16
ATOM     16  P   UNL     1      38.869 -25.092 -14.134  0.00  0.00    +0.473 P 
ATOM     17  O   UNL     1      38.496 -26.540 -14.020  0.00  0.00    -0.227 OA
BRANCH  16  18
ATOM     18  O   UNL     1      38.981 -24.292 -12.733  0.00  0.00    -0.303 OA
ATOM     19  H   UNL     1      39.755 -24.608 -12.241  0.00  0.00    +0.222 HD
ENDBRANCH  16  18
BRANCH  16  20
ATOM     20  O   UNL     1      40.296 -24.807 -14.840  0.00  0.00    -0.303 OA
ATOM     21  H   UNL     1      40.506 -23.861 -14.778  0.00  0.00    +0.222 HD
ENDBRANCH  16  20
ENDBRANCH  15  16
ENDBRANCH   2  15
BRANCH   4  22
ATOM     22  C   UNL     1      35.107 -23.993 -12.481  0.00  0.00    +0.169 C 
BRANCH  22  23
ATOM     23  O   UNL     1      34.800 -25.057 -11.595  0.00  0.00    -0.379 OA
ATOM     24  H   UNL     1      35.586 -25.614 -11.475  0.00  0.00    +0.211 HD
ENDBRANCH  22  23
ENDBRANCH   4  22
TORSDOF 7
ENDMDL
MODEL 2
REMARK VINA RESULT:      -8.2      2.064      2.907
REMARK  Name = 449392
REMARK  7 active torsions:
REMARK  status: ('A' for Active; 'I' for Inactive)
REMARK    1  A    between atoms: C_2  and  O_15
REMARK    2  A    between atoms: C_4  and  C_22
REMARK    3  A    between atoms: C_5  and  N_8
REMARK    4  A    between atoms: O_15  and  P_16
REMARK    5  A    between atoms: P_16  and  O_18
REMARK    6  A    between atoms: P_16  and  O_20
REMARK    7  A    between atoms: C_22  and  O_23
REMARK                            x       y       z     vdW  Elec       q    Type
REMARK                         _______ _______ _______ _____ _____    ______ ____
ROOT
ATOM      1  O   UNL     1      36.322 -25.355 -12.739  0.00  0.00    -0.335 OA
ATOM      2  C   UNL     1      38.426 -24.747 -13.647  0.00  0.00    +0.160 C 
ATOM      3  C   UNL     1      37.355 -24.361 -14.640  0.00  0.00    +0.084 C 
ATOM      4  C   UNL     1      37.645 -24.936 -12.353  0.00  0.00    +0.174 C 
ATOM      5  C   UNL     1      36.151 -25.149 -14.148  0.00  0.00    +0.202 C 
ENDROOT
BRANCH   5   8
ATOM      6  O   UNL     1      34.286 -24.504 -12.132  0.00  0.00    -0.252 OA
ATOM      7  O   UNL     1      31.417 -22.549 -15.165  0.00  0.00    -0.270 OA
ATOM      8  N   UNL     1      34.910 -24.472 -14.383  0.00  0.00    -0.219 N 
ATOM      9  N   UNL     1      32.859 -23.531 -13.644  0.00  0.00    -0.236 N 
ATOM     10  C   UNL     1      34.043 -24.197 -13.301  0.00  0.00    +0.315 C 
ATOM     11  C   UNL     1      34.564 -24.090 -15.672  0.00  0.00    +0.076 C 
ATOM     12  C   UNL     1      33.430 -23.457 -15.984  0.00  0.00    +0.074 C 
ATOM     13  C   UNL     1      32.469 -23.131 -14.912  0.00  0.00    +0.254 C 
ATOM     14  H   UNL     1      32.238 -23.329 -12.908  0.00  0.00    +0.159 HD
ENDBRANCH   5   8
BRANCH   2  15
ATOM     15  O   UNL     1      39.023 -25.981 -14.038  0.00  0.00    -0.273 OA
BRANCH  15  16
ATOM     16  P   UNL     1      40.559 -25.970 -14.558  0.00  0.00    +0.473 P 
ATOM     17  O   UNL     1      41.409 -27.093 -14.040  0.00  0.00    -0.227 OA
BRANCH  16  18
ATOM     18  O   UNL     1      41.076 -24.483 -14.190  0.00  0.00    -0.303 OA
ATOM     19  H   UNL     1      42.045 -24.478 -14.150  0.00  0.00    +0.222 HD
ENDBRANCH  16  18
BRANCH  16  20
ATOM     20  O   UNL     1      40.398 -25.920 -16.166  0.00  0.00    -0.303 OA
ATOM     21  H   UNL     1      39.470 -26.078 -16.404  0.00  0.00    +0.222 HD
ENDBRANCH  16  20
ENDBRANCH  15  16
ENDBRANCH   2  15
BRANCH   4  22
ATOM     22  C   UNL     1      37.512 -23.649 -11.548  0.00  0.00    +0.169 C 
BRANCH  22  23
ATOM     23  O   UNL     1      36.753 -23.917 -10.380  0.00  0.00    -0.379 OA
ATOM     24  H   UNL     1      36.604 -23.090  -9.895  0.00  0.00    +0.211 HD
ENDBRANCH  22  23
ENDBRANCH   4  22
TORSDOF 7
ENDMDL
MODEL 3
REMARK VINA RESULT:      -8.2      1.846      3.091
REMARK  Name = 449392
REMARK  7 active torsions:
REMARK  status: ('A' for Active; 'I' for Inactive)
REMARK    1  A    between atoms: C_2  and  O_15
REMARK    2  A    between atoms: C_4  and  C_22
REMARK    3  A    between atoms: C_5  and  N_8
REMARK    4  A    between atoms: O_15  and  P_16
REMARK    5  A    between atoms: P_16  and  O_18
REMARK    6  A    between atoms: P_16  and  O_20
REMARK    7  A    between atoms: C_22  and  O_23
REMARK                            x       y       z     vdW  Elec       q    Type
REMARK                         _______ _______ _______ _____ _____    ______ ____
ROOT
ATOM      1  O   UNL     1      35.403 -22.355 -14.853  0.00  0.00    -0.335 OA
ATOM      2  C   UNL     1      36.792 -24.217 -15.325  0.00  0.00    +0.160 C 
ATOM      3  C   UNL     1      35.353 -24.670 -15.401  0.00  0.00    +0.084 C 
ATOM      4  C   UNL     1      36.681 -22.701 -15.420  0.00  0.00    +0.174 C 
ATOM      5  C   UNL     1      34.615 -23.543 -14.698  0.00  0.00    +0.202 C 
ENDROOT
BRANCH   5   8
ATOM      6  O   UNL     1      32.272 -23.342 -13.139  0.00  0.00    -0.252 OA
ATOM      7  O   UNL     1      29.639 -22.676 -16.864  0.00  0.00    -0.270 OA
ATOM      8  N   UNL     1      33.305 -23.317 -15.234  0.00  0.00    -0.219 N 
ATOM      9  N   UNL     1      30.962 -23.011 -14.995  0.00  0.00    -0.236 N 
ATOM     10  C   UNL     1      32.193 -23.234 -14.365  0.00  0.00    +0.315 C 
ATOM     11  C   UNL     1      33.133 -23.181 -16.606  0.00  0.00    +0.076 C 
ATOM     12  C   UNL     1      31.953 -22.970 -17.192  0.00  0.00    +0.074 C 
ATOM     13  C   UNL     1      30.740 -22.869 -16.356  0.00  0.00    +0.254 C 
ATOM     14  H   UNL     1      30.173 -22.950 -14.411  0.00  0.00    +0.159 HD
ENDBRANCH   5   8
BRANCH   2  15
ATOM     15  O   UNL     1      37.346 -24.585 -14.064  0.00  0.00    -0.273 OA
BRANCH  15  16
ATOM     16  P   UNL     1      38.024 -26.051 -13.911  0.00  0.00    +0.473 P 
ATOM     17  O   UNL     1      39.372 -26.057 -13.254  0.00  0.00    -0.227 OA
BRANCH  16  18
ATOM     18  O   UNL     1      37.982 -26.649 -15.413  0.00  0.00    -0.303 OA
ATOM     19  H   UNL     1      37.338 -26.152 -15.942  0.00  0.00    +0.222 HD
ENDBRANCH  16  18
BRANCH  16  20
ATOM     20  O   UNL     1      36.884 -26.900 -13.142  0.00  0.00    -0.303 OA
ATOM     21  H   UNL     1      36.091 -26.351 -13.030  0.00  0.00    +0.222 HD
ENDBRANCH  16  20
ENDBRANCH  15  16
ENDBRANCH   2  15
BRANCH   4  22
ATOM     22  C   UNL     1      36.709 -22.194 -16.856  0.00  0.00    +0.169 C 
BRANCH  22  23
ATOM     23  O   UNL     1      37.206 -20.865 -16.862  0.00  0.00    -0.379 OA
ATOM     24  H   UNL     1      36.812 -20.377 -17.603  0.00  0.00    +0.211 HD
ENDBRANCH  22  23
ENDBRANCH   4  22
TORSDOF 7
ENDMDL
MODEL 4
REMARK VINA RESULT:      -8.1      2.384      3.072
REMARK  Name = 449392
REMARK  7 active torsions:
REMARK  status: ('A' for Active; 'I' for Inactive)
REMARK    1  A    between atoms: C_2  and  O_15
REMARK    2  A    between atoms: C_4  and  C_22
REMARK    3  A    between atoms: C_5  and  N_8
REMARK    4  A    between atoms: O_15  and  P_16
REMARK    5  A    between atoms: P_16  and  O_18
REMARK    6  A    between atoms: P_16  and  O_20
REMARK    7  A    between atoms: C_22  and  O_23
REMARK                            x       y       z     vdW  Elec       q    Type
REMARK                         _______ _______ _______ _____ _____    ______ ____
ROOT
ATOM      1  O   UNL     1      36.890 -23.992 -16.028  0.00  0.00    -0.335 OA
ATOM      2  C   UNL     1      36.167 -24.058 -13.771  0.00  0.00    +0.160 C 
ATOM      3  C   UNL     1      35.276 -23.098 -14.525  0.00  0.00    +0.084 C 
ATOM      4  C   UNL     1      36.823 -24.865 -14.884  0.00  0.00    +0.174 C 
ATOM      5  C   UNL     1      36.071 -22.838 -15.794  0.00  0.00    +0.202 C 
ENDROOT
BRANCH   5   8
ATOM      6  O   UNL     1      36.908 -21.508 -18.137  0.00  0.00    -0.252 OA
ATOM      7  O   UNL     1      32.776 -22.019 -20.116  0.00  0.00    -0.270 OA
ATOM      8  N   UNL     1      35.235 -22.610 -16.936  0.00  0.00    -0.219 N 
ATOM      9  N   UNL     1      34.849 -21.763 -19.120  0.00  0.00    -0.236 N 
ATOM     10  C   UNL     1      35.752 -21.930 -18.062  0.00  0.00    +0.315 C 
ATOM     11  C   UNL     1      33.920 -23.058 -16.931  0.00  0.00    +0.076 C 
ATOM     12  C   UNL     1      33.072 -22.890 -17.948  0.00  0.00    +0.074 C 
ATOM     13  C   UNL     1      33.531 -22.190 -19.163  0.00  0.00    +0.254 C 
ATOM     14  H   UNL     1      35.186 -21.291 -19.916  0.00  0.00    +0.159 HD
ENDBRANCH   5   8
BRANCH   2  15
ATOM     15  O   UNL     1      37.158 -23.329 -13.051  0.00  0.00    -0.273 OA
BRANCH  15  16
ATOM     16  P   UNL     1      37.699 -23.934 -11.646  0.00  0.00    +0.473 P 
ATOM     17  O   UNL     1      36.781 -23.731 -10.476  0.00  0.00    -0.227 OA
BRANCH  16  18
ATOM     18  O   UNL     1      39.172 -23.284 -11.493  0.00  0.00    -0.303 OA
ATOM     19  H   UNL     1      39.309 -23.007 -10.574  0.00  0.00    +0.222 HD
ENDBRANCH  16  18
BRANCH  16  20
ATOM     20  O   UNL     1      38.010 -25.478 -12.011  0.00  0.00    -0.303 OA
ATOM     21  H   UNL     1      37.887 -26.029 -11.221  0.00  0.00    +0.222 HD
ENDBRANCH  16  20
ENDBRANCH  15  16
ENDBRANCH   2  15
BRANCH   4  22
ATOM     22  C   UNL     1      36.015 -26.094 -15.280  0.00  0.00    +0.169 C 
BRANCH  22  23
ATOM     23  O   UNL     1      36.840 -26.956 -16.047  0.00  0.00    -0.379 OA
ATOM     24  H   UNL     1      36.307 -27.689 -16.394  0.00  0.00    +0.211 HD
ENDBRANCH  22  23
ENDBRANCH   4  22
TORSDOF 7
ENDMDL
MODEL 5
REMARK VINA RESULT:      -8.1      1.642      2.477
REMARK  Name = 449392
REMARK  7 active torsions:
REMARK  status: ('A' for Active; 'I' for Inactive)
REMARK    1  A    between atoms: C_2  and  O_15
REMARK    2  A    between atoms: C_4  and  C_22
REMARK    3  A    between atoms: C_5  and  N_8
REMARK    4  A    between atoms: O_15  and  P_16
REMARK    5  A    between atoms: P_16  and  O_18
REMARK    6  A    between atoms: P_16  and  O_20
REMARK    7  A    between atoms: C_22  and  O_23
REMARK                            x       y       z     vdW  Elec       q    Type
REMARK                         _______ _______ _______ _____ _____    ______ ____
ROOT
ATOM      1  O   UNL     1      35.935 -24.089 -15.946  0.00  0.00    -0.335 OA
ATOM      2  C   UNL     1      36.490 -24.518 -13.682  0.00  0.00    +0.160 C 
ATOM      3  C   UNL     1      35.171 -23.784 -13.712  0.00  0.00    +0.084 C 
ATOM      4  C   UNL     1      36.633 -25.030 -15.109  0.00  0.00    +0.174 C 
ATOM      5  C   UNL     1      35.139 -23.223 -15.125  0.00  0.00    +0.202 C 
ENDROOT
BRANCH   5   8
ATOM      6  O   UNL     1      34.548 -22.972 -17.873  0.00  0.00    -0.252 OA
ATOM      7  O   UNL     1      30.008 -22.936 -17.074  0.00  0.00    -0.270 OA
ATOM      8  N   UNL     1      33.812 -23.147 -15.663  0.00  0.00    -0.219 N 
ATOM      9  N   UNL     1      32.288 -22.954 -17.473  0.00  0.00    -0.236 N 
ATOM     10  C   UNL     1      33.624 -23.020 -17.058  0.00  0.00    +0.315 C 
ATOM     11  C   UNL     1      32.717 -23.196 -14.810  0.00  0.00    +0.076 C 
ATOM     12  C   UNL     1      31.448 -23.131 -15.221  0.00  0.00    +0.074 C 
ATOM     13  C   UNL     1      31.163 -22.999 -16.663  0.00  0.00    +0.254 C 
ATOM     14  H   UNL     1      32.130 -22.865 -18.440  0.00  0.00    +0.159 HD
ENDBRANCH   5   8
BRANCH   2  15
ATOM     15  O   UNL     1      37.544 -23.603 -13.387  0.00  0.00    -0.273 OA
BRANCH  15  16
ATOM     16  P   UNL     1      38.029 -23.448 -11.847  0.00  0.00    +0.473 P 
ATOM     17  O   UNL     1      39.510 -23.285 -11.665  0.00  0.00    -0.227 OA
BRANCH  16  18
ATOM     18  O   UNL     1      37.378 -24.731 -11.110  0.00  0.00    -0.303 OA
ATOM     19  H   UNL     1      36.776 -25.185 -11.721  0.00  0.00    +0.222 HD
ENDBRANCH  16  18
BRANCH  16  20
ATOM     20  O   UNL     1      37.134 -22.215 -11.307  0.00  0.00    -0.303 OA
ATOM     21  H   UNL     1      37.197 -21.472 -11.928  0.00  0.00    +0.222 HD
ENDBRANCH  16  20
ENDBRANCH  15  16
ENDBRANCH   2  15
BRANCH   4  22
ATOM     22  C   UNL     1      35.998 -26.400 -15.314  0.00  0.00    +0.169 C 
BRANCH  22  23
ATOM     23  O   UNL     1      36.794 -27.142 -16.222  0.00  0.00    -0.379 OA
ATOM     24  H   UNL     1      37.405 -27.710 -15.727  0.00  0.00    +0.211 HD
ENDBRANCH  22  23
ENDBRANCH   4  22
TORSDOF 7
ENDMDL
MODEL 6
REMARK VINA RESULT:      -8.0      3.266      6.824
REMARK  Name = 449392
REMARK  7 active torsions:
REMARK  status: ('A' for Active; 'I' for Inactive)
REMARK    1  A    between atoms: C_2  and  O_15
REMARK    2  A    between atoms: C_4  and  C_22
REMARK    3  A    between atoms: C_5  and  N_8
REMARK    4  A    between atoms: O_15  and  P_16
REMARK    5  A    between atoms: P_16  and  O_18
REMARK    6  A    between atoms: P_16  and  O_20
REMARK    7  A    between atoms: C_22  and  O_23
REMARK                            x       y       z     vdW  Elec       q    Type
REMARK                         _______ _______ _______ _____ _____    ______ ____
ROOT
ATOM      1  O   UNL     1      35.295 -25.029 -15.694  0.00  0.00    -0.335 OA
ATOM      2  C   UNL     1      33.979 -23.526 -14.418  0.00  0.00    +0.160 C 
ATOM      3  C   UNL     1      35.159 -23.951 -13.576  0.00  0.00    +0.084 C 
ATOM      4  C   UNL     1      34.409 -23.901 -15.829  0.00  0.00    +0.174 C 
ATOM      5  C   UNL     1      35.667 -25.178 -14.316  0.00  0.00    +0.202 C 
ENDROOT
BRANCH   5   8
ATOM      6  O   UNL     1      36.983 -26.513 -12.208  0.00  0.00    -0.252 OA
ATOM      7  O   UNL     1      41.130 -25.718 -14.059  0.00  0.00    -0.270 OA
ATOM      8  N   UNL     1      37.089 -25.334 -14.222  0.00  0.00    -0.219 N 
ATOM      9  N   UNL     1      39.047 -26.115 -13.131  0.00  0.00    -0.236 N 
ATOM     10  C   UNL     1      37.649 -26.021 -13.121  0.00  0.00    +0.315 C 
ATOM     11  C   UNL     1      37.908 -24.811 -15.213  0.00  0.00    +0.076 C 
ATOM     12  C   UNL     1      39.240 -24.909 -15.208  0.00  0.00    +0.074 C 
ATOM     13  C   UNL     1      39.907 -25.610 -14.094  0.00  0.00    +0.254 C 
ATOM     14  H   UNL     1      39.462 -26.588 -12.374  0.00  0.00    +0.159 HD
ENDBRANCH   5   8
BRANCH   2  15
ATOM     15  O   UNL     1      32.826 -24.279 -14.046  0.00  0.00    -0.273 OA
BRANCH  15  16
ATOM     16  P   UNL     1      31.504 -23.481 -13.550  0.00  0.00    +0.473 P 
ATOM     17  O   UNL     1      30.776 -22.733 -14.628  0.00  0.00    -0.227 OA
BRANCH  16  18
ATOM     18  O   UNL     1      32.042 -22.577 -12.322  0.00  0.00    -0.303 OA
ATOM     19  H   UNL     1      32.505 -21.800 -12.670  0.00  0.00    +0.222 HD
ENDBRANCH  16  18
BRANCH  16  20
ATOM     20  O   UNL     1      30.639 -24.632 -12.814  0.00  0.00    -0.303 OA
ATOM     21  H   UNL     1      31.239 -25.263 -12.384  0.00  0.00    +0.222 HD
ENDBRANCH  16  20
ENDBRANCH  15  16
ENDBRANCH   2  15
BRANCH   4  22
ATOM     22  C   UNL     1      35.175 -22.787 -16.531  0.00  0.00    +0.169 C 
BRANCH  22  23
ATOM     23  O   UNL     1      34.851 -22.809 -17.912  0.00  0.00    -0.379 OA
ATOM     24  H   UNL     1      34.013 -23.282 -18.040  0.00  0.00    +0.211 HD
ENDBRANCH  22  23
ENDBRANCH   4  22
TORSDOF 7
ENDMDL
MODEL 7
REMARK VINA RESULT:      -7.9      1.561      1.948
REMARK  Name = 449392
REMARK  7 active torsions:
REMARK  status: ('A' for Active; 'I' for Inactive)
REMARK    1  A    between atoms: C_2  and  O_15
REMARK    2  A    between atoms: C_4  and  C_22
REMARK    3  A    between atoms: C_5  and  N_8
REMARK    4  A    between atoms: O_15  and  P_16
REMARK    5  A    between atoms: P_16  and  O_18
REMARK    6  A    between atoms: P_16  and  O_20
REMARK    7  A    between atoms: C_22  and  O_23
REMARK                            x       y       z     vdW  Elec       q    Type
REMARK                         _______ _______ _______ _____ _____    ______ ____
ROOT
ATOM      1  O   UNL     1      36.273 -25.472 -15.707  0.00  0.00    -0.335 OA
ATOM      2  C   UNL     1      37.823 -24.821 -14.036  0.00  0.00    +0.160 C 
ATOM      3  C   UNL     1      36.725 -23.785 -14.090  0.00  0.00    +0.084 C 
ATOM      4  C   UNL     1      37.207 -26.014 -14.754  0.00  0.00    +0.174 C 
ATOM      5  C   UNL     1      36.056 -24.083 -15.422  0.00  0.00    +0.202 C 
ENDROOT
BRANCH   5   8
ATOM      6  O   UNL     1      34.588 -23.188 -17.659  0.00  0.00    -0.252 OA
ATOM      7  O   UNL     1      30.654 -23.085 -15.257  0.00  0.00    -0.270 OA
ATOM      8  N   UNL     1      34.648 -23.815 -15.409  0.00  0.00    -0.219 N 
ATOM      9  N   UNL     1      32.630 -23.137 -16.461  0.00  0.00    -0.236 N 
ATOM     10  C   UNL     1      34.007 -23.368 -16.587  0.00  0.00    +0.315 C 
ATOM     11  C   UNL     1      33.921 -23.996 -14.240  0.00  0.00    +0.076 C 
ATOM     12  C   UNL     1      32.609 -23.771 -14.136  0.00  0.00    +0.074 C 
ATOM     13  C   UNL     1      31.861 -23.301 -15.320  0.00  0.00    +0.254 C 
ATOM     14  H   UNL     1      32.161 -22.824 -17.267  0.00  0.00    +0.159 HD
ENDBRANCH   5   8
BRANCH   2  15
ATOM     15  O   UNL     1      38.960 -24.354 -14.758  0.00  0.00    -0.273 OA
BRANCH  15  16
ATOM     16  P   UNL     1      40.293 -25.278 -14.790  0.00  0.00    +0.473 P 
ATOM     17  O   UNL     1      40.364 -26.321 -13.714  0.00  0.00    -0.227 OA
BRANCH  16  18
ATOM     18  O   UNL     1      41.502 -24.203 -14.793  0.00  0.00    -0.303 OA
ATOM     19  H   UNL     1      41.718 -23.962 -15.708  0.00  0.00    +0.222 HD
ENDBRANCH  16  18
BRANCH  16  20
ATOM     20  O   UNL     1      40.302 -25.852 -16.301  0.00  0.00    -0.303 OA
ATOM     21  H   UNL     1      39.907 -26.739 -16.313  0.00  0.00    +0.222 HD
ENDBRANCH  16  20
ENDBRANCH  15  16
ENDBRANCH   2  15
BRANCH   4  22
ATOM     22  C   UNL     1      36.438 -26.937 -13.818  0.00  0.00    +0.169 C 
BRANCH  22  23
ATOM     23  O   UNL     1      36.929 -26.764 -12.499  0.00  0.00    -0.379 OA
ATOM     24  H   UNL     1      36.299 -26.233 -11.986  0.00  0.00    +0.211 HD
ENDBRANCH  22  23
ENDBRANCH   4  22
TORSDOF 7
ENDMDL
MODEL 8
REMARK VINA RESULT:      -7.7      2.100      3.354
REMARK  Name = 449392
REMARK  7 active torsions:
REMARK  status: ('A' for Active; 'I' for Inactive)
REMARK    1  A    between atoms: C_2  and  O_15
REMARK    2  A    between atoms: C_4  and  C_22
REMARK    3  A    between atoms: C_5  and  N_8
REMARK    4  A    between atoms: O_15  and  P_16
REMARK    5  A    between atoms: P_16  and  O_18
REMARK    6  A    between atoms: P_16  and  O_20
REMARK    7  A    between atoms: C_22  and  O_23
REMARK                            x       y       z     vdW  Elec       q    Type
REMARK                         _______ _______ _______ _____ _____    ______ ____
ROOT
ATOM      1  O   UNL     1      36.891 -22.989 -14.295  0.00  0.00    -0.335 OA
ATOM      2  C   UNL     1      38.038 -24.800 -15.308  0.00  0.00    +0.160 C 
ATOM      3  C   UNL     1      36.609 -25.224 -15.062  0.00  0.00    +0.084 C 
ATOM      4  C   UNL     1      37.969 -23.282 -15.204  0.00  0.00    +0.174 C 
ATOM      5  C   UNL     1      36.120 -24.178 -14.075  0.00  0.00    +0.202 C 
ENDROOT
BRANCH   5   8
ATOM      6  O   UNL     1      34.318 -23.839 -11.929  0.00  0.00    -0.252 OA
ATOM      7  O   UNL     1      30.794 -23.020 -14.787  0.00  0.00    -0.270 OA
ATOM      8  N   UNL     1      34.727 -23.875 -14.229  0.00  0.00    -0.219 N 
ATOM      9  N   UNL     1      32.565 -23.432 -13.354  0.00  0.00    -0.236 N 
ATOM     10  C   UNL     1      33.908 -23.727 -13.087  0.00  0.00    +0.315 C 
ATOM     11  C   UNL     1      34.188 -23.730 -15.501  0.00  0.00    +0.076 C 
ATOM     12  C   UNL     1      32.905 -23.450 -15.739  0.00  0.00    +0.074 C 
ATOM     13  C   UNL     1      31.980 -23.278 -14.602  0.00  0.00    +0.254 C 
ATOM     14  H   UNL     1      31.974 -23.324 -12.575  0.00  0.00    +0.159 HD
ENDBRANCH   5   8
BRANCH   2  15
ATOM     15  O   UNL     1      38.877 -25.319 -14.279  0.00  0.00    -0.273 OA
BRANCH  15  16
ATOM     16  P   UNL     1      40.418 -25.676 -14.640  0.00  0.00    +0.473 P 
ATOM     17  O   UNL     1      40.998 -26.823 -13.865  0.00  0.00    -0.227 OA
BRANCH  16  18
ATOM     18  O   UNL     1      41.187 -24.264 -14.469  0.00  0.00    -0.303 OA
ATOM     19  H   UNL     1      42.117 -24.427 -14.247  0.00  0.00    +0.222 HD
ENDBRANCH  16  18
BRANCH  16  20
ATOM     20  O   UNL     1      40.376 -25.886 -16.242  0.00  0.00    -0.303 OA
ATOM     21  H   UNL     1      40.150 -26.808 -16.443  0.00  0.00    +0.222 HD
ENDBRANCH  16  20
ENDBRANCH  15  16
ENDBRANCH   2  15
BRANCH   4  22
ATOM     22  C   UNL     1      37.654 -22.611 -16.535  0.00  0.00    +0.169 C 
BRANCH  22  23
ATOM     23  O   UNL     1      37.461 -21.223 -16.313  0.00  0.00    -0.379 OA
ATOM     24  H   UNL     1      37.349 -20.773 -17.165  0.00  0.00    +0.211 HD
ENDBRANCH  22  23
ENDBRANCH   4  22
TORSDOF 7
ENDMDL
MODEL 9
REMARK VINA RESULT:      -7.7      2.994      4.625
REMARK  Name = 449392
REMARK  7 active torsions:
REMARK  status: ('A' for Active; 'I' for Inactive)
REMARK    1  A    between atoms: C_2  and  O_15
REMARK    2  A    between atoms: C_4  and  C_22
REMARK    3  A    between atoms: C_5  and  N_8
REMARK    4  A    between atoms: O_15  and  P_16
REMARK    5  A    between atoms: P_16  and  O_18
REMARK    6  A    between atoms: P_16  and  O_20
REMARK    7  A    between atoms: C_22  and  O_23
REMARK                            x       y       z     vdW  Elec       q    Type
REMARK                         _______ _______ _______ _____ _____    ______ ____
ROOT
ATOM      1  O   UNL     1      33.322 -23.435 -18.154  0.00  0.00    -0.335 OA
ATOM      2  C   UNL     1      34.452 -23.485 -16.071  0.00  0.00    +0.160 C 
ATOM      3  C   UNL     1      35.143 -22.476 -16.958  0.00  0.00    +0.084 C 
ATOM      4  C   UNL     1      33.103 -23.676 -16.751  0.00  0.00    +0.174 C 
ATOM      5  C   UNL     1      34.610 -22.830 -18.337  0.00  0.00    +0.202 C 
ENDROOT
BRANCH   5   8
ATOM      6  O   UNL     1      36.788 -21.389 -19.404  0.00  0.00    -0.252 OA
ATOM      7  O   UNL     1      33.997 -18.461 -21.613  0.00  0.00    -0.270 OA
ATOM      8  N   UNL     1      34.481 -21.688 -19.193  0.00  0.00    -0.219 N 
ATOM      9  N   UNL     1      35.397 -19.932 -20.503  0.00  0.00    -0.236 N 
ATOM     10  C   UNL     1      35.639 -21.035 -19.674  0.00  0.00    +0.315 C 
ATOM     11  C   UNL     1      33.219 -21.228 -19.547  0.00  0.00    +0.076 C 
ATOM     12  C   UNL     1      33.005 -20.174 -20.338  0.00  0.00    +0.074 C 
ATOM     13  C   UNL     1      34.160 -19.434 -20.883  0.00  0.00    +0.254 C 
ATOM     14  H   UNL     1      36.187 -19.459 -20.850  0.00  0.00    +0.159 HD
ENDBRANCH   5   8
BRANCH   2  15
ATOM     15  O   UNL     1      35.179 -24.712 -16.082  0.00  0.00    -0.273 OA
BRANCH  15  16
ATOM     16  P   UNL     1      35.955 -25.167 -14.732  0.00  0.00    +0.473 P 
ATOM     17  O   UNL     1      37.300 -24.533 -14.533  0.00  0.00    -0.227 OA
BRANCH  16  18
ATOM     18  O   UNL     1      35.955 -26.782 -14.819  0.00  0.00    -0.303 OA
ATOM     19  H   UNL     1      36.692 -27.076 -15.377  0.00  0.00    +0.222 HD
ENDBRANCH  16  18
BRANCH  16  20
ATOM     20  O   UNL     1      34.874 -24.858 -13.570  0.00  0.00    -0.303 OA
ATOM     21  H   UNL     1      35.337 -24.696 -12.732  0.00  0.00    +0.222 HD
ENDBRANCH  16  20
ENDBRANCH  15  16
ENDBRANCH   2  15
BRANCH   4  22
ATOM     22  C   UNL     1      32.050 -22.688 -16.266  0.00  0.00    +0.169 C 
BRANCH  22  23
ATOM     23  O   UNL     1      31.042 -22.570 -17.257  0.00  0.00    -0.379 OA
ATOM     24  H   UNL     1      31.378 -22.040 -17.997  0.00  0.00    +0.211 HD
ENDBRANCH  22  23
ENDBRANCH   4  22
TORSDOF 7
ENDMDL
