MODEL 1
REMARK VINA RESULT:     -10.1      0.000      0.000
REMARK  Name = 10178705
REMARK  5 active torsions:
REMARK  status: ('A' for Active; 'I' for Inactive)
REMARK    1  A    between atoms: N_4  and  C_25
REMARK    2  A    between atoms: C_7  and  N_14
REMARK    3  A    between atoms: C_10  and  C_29
REMARK    4  A    between atoms: C_15  and  N_21
REMARK    5  A    between atoms: C_29  and  O_30
REMARK                            x       y       z     vdW  Elec       q    Type
REMARK                         _______ _______ _______ _____ _____    ______ ____
ROOT
ATOM      1 CL   UNL     1      34.383 -16.714 -20.385  0.00  0.00    -0.080 Cl
ATOM      2  F   UNL     1      35.129 -19.984 -24.097  0.00  0.00    -0.203 F 
ATOM      3  O   UNL     1      33.838 -15.884 -26.711  0.00  0.00    -0.286 OA
ATOM      4  N   UNL     1      33.705 -14.740 -22.800  0.00  0.00    -0.287 N 
ATOM      5  C   UNL     1      34.071 -16.084 -23.100  0.00  0.00    +0.067 C 
ATOM      6  C   UNL     1      33.407 -13.869 -23.831  0.00  0.00    +0.075 C 
ATOM      7  C   UNL     1      34.741 -18.332 -22.436  0.00  0.00    +0.087 C 
ATOM      8  C   UNL     1      34.125 -16.507 -24.445  0.00  0.00    +0.056 C 
ATOM      9  C   UNL     1      34.386 -17.022 -22.103  0.00  0.00    +0.087 C 
ATOM     10  C   UNL     1      33.428 -14.167 -25.136  0.00  0.00    +0.129 C 
ATOM     11  C   UNL     1      33.800 -15.548 -25.534  0.00  0.00    +0.204 C 
ATOM     12  C   UNL     1      34.788 -18.729 -23.770  0.00  0.00    +0.154 C 
ATOM     13  C   UNL     1      34.481 -17.819 -24.777  0.00  0.00    +0.035 C 
ENDROOT
BRANCH   7  14
ATOM     14  N   UNL     1      35.061 -19.294 -21.464  0.00  0.00    -0.307 N 
ATOM     15  C   UNL     1      34.147 -21.291 -20.239  0.00  0.00    -0.046 C 
ATOM     16  C   UNL     1      33.909 -19.860 -20.749  0.00  0.00    +0.069 C 
ATOM     17  C   UNL     1      36.349 -19.182 -20.775  0.00  0.00    +0.091 C 
ATOM     18  C   UNL     1      35.110 -21.333 -19.045  0.00  0.00    -0.020 C 
ATOM     19  C   UNL     1      37.007 -20.551 -20.648  0.00  0.00    +0.021 C 
ATOM     20  C   UNL     1      36.593 -21.342 -19.412  0.00  0.00    -0.000 C 
BRANCH  15  21
ATOM     21  N   UNL     1      32.843 -21.818 -19.808  0.00  0.00    +0.383 N 
ATOM     22  H   UNL     1      32.204 -21.834 -20.603  0.00  0.00    -0.089 HD
ATOM     23  H   UNL     1      32.461 -21.220 -19.075  0.00  0.00    -0.089 HD
ATOM     24  H   UNL     1      32.962 -22.765 -19.447  0.00  0.00    -0.089 HD
ENDBRANCH  15  21
ENDBRANCH   7  14
BRANCH   4  25
ATOM     25  C   UNL     1      33.600 -14.136 -21.452  0.00  0.00    +0.077 C 
ATOM     26  C   UNL     1      32.428 -14.425 -20.576  0.00  0.00    +0.022 C 
ATOM     27  C   UNL     1      32.602 -13.061 -21.176  0.00  0.00    +0.022 C 
ENDBRANCH   4  25
BRANCH  10  29
ATOM     28  O   UNL     1      33.567 -11.999 -26.102  0.00  0.00    -0.245 OA
ATOM     29  C   UNL     1      33.082 -13.117 -26.096  0.00  0.00    +0.342 C 
BRANCH  29  30
ATOM     30  O   UNL     1      32.153 -13.580 -26.960  0.00  0.00    -0.477 OA
ATOM     31  H   UNL     1      31.242 -13.507 -26.750  0.00  0.00    +0.295 HD
ENDBRANCH  29  30
ENDBRANCH  10  29
TORSDOF 5
ENDMDL
MODEL 2
REMARK VINA RESULT:      -9.5      4.715      7.085
REMARK  Name = 10178705
REMARK  5 active torsions:
REMARK  status: ('A' for Active; 'I' for Inactive)
REMARK    1  A    between atoms: N_4  and  C_25
REMARK    2  A    between atoms: C_7  and  N_14
REMARK    3  A    between atoms: C_10  and  C_29
REMARK    4  A    between atoms: C_15  and  N_21
REMARK    5  A    between atoms: C_29  and  O_30
REMARK                            x       y       z     vdW  Elec       q    Type
REMARK                         _______ _______ _______ _____ _____    ______ ____
ROOT
ATOM      1 CL   UNL     1      31.962 -13.151 -22.197  0.00  0.00    -0.080 Cl
ATOM      2  F   UNL     1      34.917 -11.585 -25.918  0.00  0.00    -0.203 F 
ATOM      3  O   UNL     1      33.832  -7.209 -23.685  0.00  0.00    -0.286 OA
ATOM      4  N   UNL     1      31.857 -10.035 -21.509  0.00  0.00    -0.287 N 
ATOM      5  C   UNL     1      32.629 -10.461 -22.628  0.00  0.00    +0.067 C 
ATOM      6  C   UNL     1      31.797  -8.691 -21.194  0.00  0.00    +0.075 C 
ATOM      7  C   UNL     1      33.501 -12.189 -24.110  0.00  0.00    +0.087 C 
ATOM      8  C   UNL     1      33.322  -9.504 -23.399  0.00  0.00    +0.056 C 
ATOM      9  C   UNL     1      32.733 -11.810 -23.005  0.00  0.00    +0.087 C 
ATOM     10  C   UNL     1      32.415  -7.706 -21.856  0.00  0.00    +0.129 C 
ATOM     11  C   UNL     1      33.241  -8.064 -23.037  0.00  0.00    +0.204 C 
ATOM     12  C   UNL     1      34.177 -11.229 -24.858  0.00  0.00    +0.154 C 
ATOM     13  C   UNL     1      34.091  -9.886 -24.505  0.00  0.00    +0.035 C 
ENDROOT
BRANCH   7  14
ATOM     14  N   UNL     1      33.626 -13.528 -24.514  0.00  0.00    -0.307 N 
ATOM     15  C   UNL     1      34.128 -15.842 -23.668  0.00  0.00    -0.046 C 
ATOM     16  C   UNL     1      34.504 -14.351 -23.672  0.00  0.00    +0.069 C 
ATOM     17  C   UNL     1      33.508 -13.836 -25.943  0.00  0.00    +0.091 C 
ATOM     18  C   UNL     1      34.482 -16.537 -24.990  0.00  0.00    -0.020 C 
ATOM     19  C   UNL     1      32.660 -15.085 -26.151  0.00  0.00    +0.021 C 
ATOM     20  C   UNL     1      33.436 -16.395 -26.094  0.00  0.00    -0.000 C 
BRANCH  15  21
ATOM     21  N   UNL     1      34.894 -16.478 -22.585  0.00  0.00    +0.383 N 
ATOM     22  H   UNL     1      34.888 -17.490 -22.714  0.00  0.00    -0.089 HD
ATOM     23  H   UNL     1      34.468 -16.247 -21.687  0.00  0.00    -0.089 HD
ATOM     24  H   UNL     1      35.855 -16.137 -22.604  0.00  0.00    -0.089 HD
ENDBRANCH  15  21
ENDBRANCH   7  14
BRANCH   4  25
ATOM     25  C   UNL     1      31.072 -10.902 -20.599  0.00  0.00    +0.077 C 
ATOM     26  C   UNL     1      30.712 -10.441 -19.228  0.00  0.00    +0.022 C 
ATOM     27  C   UNL     1      31.714 -11.541 -19.414  0.00  0.00    +0.022 C 
ENDBRANCH   4  25
BRANCH  10  29
ATOM     28  O   UNL     1      32.364  -5.979 -20.222  0.00  0.00    -0.245 OA
ATOM     29  C   UNL     1      32.241  -6.331 -21.382  0.00  0.00    +0.342 C 
BRANCH  29  30
ATOM     30  O   UNL     1      31.925  -5.529 -22.422  0.00  0.00    -0.477 OA
ATOM     31  H   UNL     1      32.119  -4.613 -22.381  0.00  0.00    +0.295 HD
ENDBRANCH  29  30
ENDBRANCH  10  29
TORSDOF 5
ENDMDL
MODEL 3
REMARK VINA RESULT:      -9.2      6.151      9.137
REMARK  Name = 10178705
REMARK  5 active torsions:
REMARK  status: ('A' for Active; 'I' for Inactive)
REMARK    1  A    between atoms: N_4  and  C_25
REMARK    2  A    between atoms: C_7  and  N_14
REMARK    3  A    between atoms: C_10  and  C_29
REMARK    4  A    between atoms: C_15  and  N_21
REMARK    5  A    between atoms: C_29  and  O_30
REMARK                            x       y       z     vdW  Elec       q    Type
REMARK                         _______ _______ _______ _____ _____    ______ ____
ROOT
ATOM      1 CL   UNL     1      34.056 -24.307 -15.016  0.00  0.00    -0.080 Cl
ATOM      2  F   UNL     1      38.681 -22.687 -16.021  0.00  0.00    -0.203 F 
ATOM      3  O   UNL     1      36.111 -20.571 -19.794  0.00  0.00    -0.286 OA
ATOM      4  N   UNL     1      33.333 -22.629 -17.634  0.00  0.00    -0.287 N 
ATOM      5  C   UNL     1      34.689 -22.663 -17.198  0.00  0.00    +0.067 C 
ATOM      6  C   UNL     1      32.998 -21.909 -18.765  0.00  0.00    +0.075 C 
ATOM      7  C   UNL     1      36.439 -23.384 -15.663  0.00  0.00    +0.087 C 
ATOM      8  C   UNL     1      35.671 -21.960 -17.928  0.00  0.00    +0.056 C 
ATOM      9  C   UNL     1      35.099 -23.374 -16.059  0.00  0.00    +0.087 C 
ATOM     10  C   UNL     1      33.849 -21.209 -19.525  0.00  0.00    +0.129 C 
ATOM     11  C   UNL     1      35.283 -21.192 -19.140  0.00  0.00    +0.204 C 
ATOM     12  C   UNL     1      37.394 -22.684 -16.396  0.00  0.00    +0.154 C 
ATOM     13  C   UNL     1      37.013 -21.970 -17.529  0.00  0.00    +0.035 C 
ENDROOT
BRANCH   7  14
ATOM     14  N   UNL     1      36.883 -24.085 -14.530  0.00  0.00    -0.307 N 
ATOM     15  C   UNL     1      36.966 -23.995 -12.018  0.00  0.00    -0.046 C 
ATOM     16  C   UNL     1      37.154 -23.251 -13.351  0.00  0.00    +0.069 C 
ATOM     17  C   UNL     1      37.657 -25.313 -14.732  0.00  0.00    +0.091 C 
ATOM     18  C   UNL     1      38.086 -25.010 -11.753  0.00  0.00    -0.020 C 
ATOM     19  C   UNL     1      37.197 -26.399 -13.767  0.00  0.00    +0.021 C 
ATOM     20  C   UNL     1      37.888 -26.375 -12.409  0.00  0.00    -0.000 C 
BRANCH  15  21
ATOM     21  N   UNL     1      36.990 -22.982 -10.951  0.00  0.00    +0.383 N 
ATOM     22  H   UNL     1      37.936 -22.610 -10.858  0.00  0.00    -0.089 HD
ATOM     23  H   UNL     1      36.704 -23.410 -10.071  0.00  0.00    -0.089 HD
ATOM     24  H   UNL     1      36.348 -22.225 -11.188  0.00  0.00    -0.089 HD
ENDBRANCH  15  21
ENDBRANCH   7  14
BRANCH   4  25
ATOM     25  C   UNL     1      32.183 -23.307 -16.989  0.00  0.00    +0.077 C 
ATOM     26  C   UNL     1      30.823 -22.696 -17.020  0.00  0.00    +0.022 C 
ATOM     27  C   UNL     1      31.589 -22.766 -15.732  0.00  0.00    +0.022 C 
ENDBRANCH   4  25
BRANCH  10  29
ATOM     28  O   UNL     1      32.141 -20.453 -20.996  0.00  0.00    -0.245 OA
ATOM     29  C   UNL     1      33.320 -20.503 -20.694  0.00  0.00    +0.342 C 
BRANCH  29  30
ATOM     30  O   UNL     1      34.335 -19.925 -21.372  0.00  0.00    -0.477 OA
ATOM     31  H   UNL     1      35.150 -19.757 -20.941  0.00  0.00    +0.295 HD
ENDBRANCH  29  30
ENDBRANCH  10  29
TORSDOF 5
ENDMDL
MODEL 4
REMARK VINA RESULT:      -9.1      8.142     11.021
REMARK  Name = 10178705
REMARK  5 active torsions:
REMARK  status: ('A' for Active; 'I' for Inactive)
REMARK    1  A    between atoms: N_4  and  C_25
REMARK    2  A    between atoms: C_7  and  N_14
REMARK    3  A    between atoms: C_10  and  C_29
REMARK    4  A    between atoms: C_15  and  N_21
REMARK    5  A    between atoms: C_29  and  O_30
REMARK                            x       y       z     vdW  Elec       q    Type
REMARK                         _______ _______ _______ _____ _____    ______ ____
ROOT
ATOM      1 CL   UNL     1      35.695 -22.896 -16.207  0.00  0.00    -0.080 Cl
ATOM      2  F   UNL     1      34.007 -25.023 -12.005  0.00  0.00    -0.203 F 
ATOM      3  O   UNL     1      29.677 -24.156 -14.415  0.00  0.00    -0.286 OA
ATOM      4  N   UNL     1      32.584 -22.766 -16.913  0.00  0.00    -0.287 N 
ATOM      5  C   UNL     1      32.978 -23.335 -15.668  0.00  0.00    +0.067 C 
ATOM      6  C   UNL     1      31.243 -22.699 -17.238  0.00  0.00    +0.075 C 
ATOM      7  C   UNL     1      34.670 -24.001 -14.043  0.00  0.00    +0.087 C 
ATOM      8  C   UNL     1      31.992 -23.824 -14.784  0.00  0.00    +0.056 C 
ATOM      9  C   UNL     1      34.322 -23.435 -15.273  0.00  0.00    +0.087 C 
ATOM     10  C   UNL     1      30.232 -23.132 -16.475  0.00  0.00    +0.129 C 
ATOM     11  C   UNL     1      30.556 -23.741 -15.160  0.00  0.00    +0.204 C 
ATOM     12  C   UNL     1      33.682 -24.477 -13.185  0.00  0.00    +0.154 C 
ATOM     13  C   UNL     1      32.342 -24.392 -13.552  0.00  0.00    +0.035 C 
ENDROOT
BRANCH   7  14
ATOM     14  N   UNL     1      36.003 -24.115 -13.618  0.00  0.00    -0.307 N 
ATOM     15  C   UNL     1      38.281 -24.898 -14.342  0.00  0.00    -0.046 C 
ATOM     16  C   UNL     1      36.772 -25.185 -14.268  0.00  0.00    +0.069 C 
ATOM     17  C   UNL     1      36.328 -23.734 -12.241  0.00  0.00    +0.091 C 
ATOM     18  C   UNL     1      38.966 -25.020 -12.974  0.00  0.00    -0.020 C 
ATOM     19  C   UNL     1      37.622 -22.929 -12.201  0.00  0.00    +0.021 C 
ATOM     20  C   UNL     1      38.889 -23.770 -12.100  0.00  0.00    -0.000 C 
BRANCH  15  21
ATOM     21  N   UNL     1      38.867 -25.896 -15.250  0.00  0.00    +0.383 N 
ATOM     22  H   UNL     1      38.191 -26.643 -15.413  0.00  0.00    -0.089 HD
ATOM     23  H   UNL     1      39.710 -26.285 -14.828  0.00  0.00    -0.089 HD
ATOM     24  H   UNL     1      39.103 -25.450 -16.136  0.00  0.00    -0.089 HD
ENDBRANCH  15  21
ENDBRANCH   7  14
BRANCH   4  25
ATOM     25  C   UNL     1      33.484 -22.208 -17.950  0.00  0.00    +0.077 C 
ATOM     26  C   UNL     1      32.930 -21.631 -19.209  0.00  0.00    +0.022 C 
ATOM     27  C   UNL     1      33.690 -22.924 -19.243  0.00  0.00    +0.022 C 
ENDBRANCH   4  25
BRANCH  10  29
ATOM     28  O   UNL     1      28.308 -21.912 -17.154  0.00  0.00    -0.245 OA
ATOM     29  C   UNL     1      28.865 -22.981 -16.977  0.00  0.00    +0.342 C 
BRANCH  29  30
ATOM     30  O   UNL     1      28.329 -24.199 -17.208  0.00  0.00    -0.477 OA
ATOM     31  H   UNL     1      27.398 -24.303 -17.236  0.00  0.00    +0.295 HD
ENDBRANCH  29  30
ENDBRANCH  10  29
TORSDOF 5
ENDMDL
MODEL 5
REMARK VINA RESULT:      -8.6      4.880      7.512
REMARK  Name = 10178705
REMARK  5 active torsions:
REMARK  status: ('A' for Active; 'I' for Inactive)
REMARK    1  A    between atoms: N_4  and  C_25
REMARK    2  A    between atoms: C_7  and  N_14
REMARK    3  A    between atoms: C_10  and  C_29
REMARK    4  A    between atoms: C_15  and  N_21
REMARK    5  A    between atoms: C_29  and  O_30
REMARK                            x       y       z     vdW  Elec       q    Type
REMARK                         _______ _______ _______ _____ _____    ______ ____
ROOT
ATOM      1 CL   UNL     1      34.339 -11.224 -24.962  0.00  0.00    -0.080 Cl
ATOM      2  F   UNL     1      31.778 -14.031 -21.709  0.00  0.00    -0.203 F 
ATOM      3  O   UNL     1      31.158  -9.464 -19.690  0.00  0.00    -0.286 OA
ATOM      4  N   UNL     1      33.431  -8.859 -23.020  0.00  0.00    -0.287 N 
ATOM      5  C   UNL     1      33.025 -10.189 -22.711  0.00  0.00    +0.067 C 
ATOM      6  C   UNL     1      33.050  -7.819 -22.192  0.00  0.00    +0.075 C 
ATOM      7  C   UNL     1      32.960 -12.582 -23.172  0.00  0.00    +0.087 C 
ATOM      8  C   UNL     1      32.238 -10.427 -21.564  0.00  0.00    +0.056 C 
ATOM      9  C   UNL     1      33.377 -11.291 -23.507  0.00  0.00    +0.087 C 
ATOM     10  C   UNL     1      32.307  -7.936 -21.085  0.00  0.00    +0.129 C 
ATOM     11  C   UNL     1      31.841  -9.291 -20.691  0.00  0.00    +0.204 C 
ATOM     12  C   UNL     1      32.183 -12.796 -22.036  0.00  0.00    +0.154 C 
ATOM     13  C   UNL     1      31.820 -11.721 -21.230  0.00  0.00    +0.035 C 
ENDROOT
BRANCH   7  14
ATOM     14  N   UNL     1      33.294 -13.704 -23.946  0.00  0.00    -0.307 N 
ATOM     15  C   UNL     1      34.219 -16.039 -23.803  0.00  0.00    -0.046 C 
ATOM     16  C   UNL     1      34.334 -14.568 -23.370  0.00  0.00    +0.069 C 
ATOM     17  C   UNL     1      33.171 -13.605 -25.403  0.00  0.00    +0.091 C 
ATOM     18  C   UNL     1      34.631 -16.251 -25.266  0.00  0.00    -0.020 C 
ATOM     19  C   UNL     1      32.541 -14.870 -25.973  0.00  0.00    +0.021 C 
ATOM     20  C   UNL     1      33.531 -15.984 -26.291  0.00  0.00    -0.000 C 
BRANCH  15  21
ATOM     21  N   UNL     1      35.126 -16.814 -22.943  0.00  0.00    +0.383 N 
ATOM     22  H   UNL     1      34.650 -17.050 -22.072  0.00  0.00    -0.089 HD
ATOM     23  H   UNL     1      35.956 -16.258 -22.737  0.00  0.00    -0.089 HD
ATOM     24  H   UNL     1      35.400 -17.671 -23.424  0.00  0.00    -0.089 HD
ENDBRANCH  15  21
ENDBRANCH   7  14
BRANCH   4  25
ATOM     25  C   UNL     1      34.254  -8.435 -24.177  0.00  0.00    +0.077 C 
ATOM     26  C   UNL     1      35.302  -7.385 -24.023  0.00  0.00    +0.022 C 
ATOM     27  C   UNL     1      34.054  -7.095 -24.803  0.00  0.00    +0.022 C 
ENDBRANCH   4  25
BRANCH  10  29
ATOM     28  O   UNL     1      31.214  -5.863 -20.685  0.00  0.00    -0.245 OA
ATOM     29  C   UNL     1      31.995  -6.725 -20.323  0.00  0.00    +0.342 C 
BRANCH  29  30
ATOM     30  O   UNL     1      32.704  -6.717 -19.173  0.00  0.00    -0.477 OA
ATOM     31  H   UNL     1      33.634  -6.612 -19.198  0.00  0.00    +0.295 HD
ENDBRANCH  29  30
ENDBRANCH  10  29
TORSDOF 5
ENDMDL
MODEL 6
REMARK VINA RESULT:      -8.2      4.927      9.283
REMARK  Name = 10178705
REMARK  5 active torsions:
REMARK  status: ('A' for Active; 'I' for Inactive)
REMARK    1  A    between atoms: N_4  and  C_25
REMARK    2  A    between atoms: C_7  and  N_14
REMARK    3  A    between atoms: C_10  and  C_29
REMARK    4  A    between atoms: C_15  and  N_21
REMARK    5  A    between atoms: C_29  and  O_30
REMARK                            x       y       z     vdW  Elec       q    Type
REMARK                         _______ _______ _______ _____ _____    ______ ____
ROOT
ATOM      1 CL   UNL     1      33.210 -11.331 -24.867  0.00  0.00    -0.080 Cl
ATOM      2  F   UNL     1      31.527  -9.849 -20.395  0.00  0.00    -0.203 F 
ATOM      3  O   UNL     1      32.175 -14.769 -19.564  0.00  0.00    -0.286 OA
ATOM      4  N   UNL     1      33.290 -14.186 -23.442  0.00  0.00    -0.287 N 
ATOM      5  C   UNL     1      32.844 -13.061 -22.690  0.00  0.00    +0.067 C 
ATOM      6  C   UNL     1      33.331 -15.432 -22.845  0.00  0.00    +0.075 C 
ATOM      7  C   UNL     1      32.333 -10.688 -22.465  0.00  0.00    +0.087 C 
ATOM      8  C   UNL     1      32.452 -13.235 -21.346  0.00  0.00    +0.056 C 
ATOM      9  C   UNL     1      32.776 -11.768 -23.233  0.00  0.00    +0.087 C 
ATOM     10  C   UNL     1      32.983 -15.704 -21.581  0.00  0.00    +0.129 C 
ATOM     11  C   UNL     1      32.508 -14.586 -20.728  0.00  0.00    +0.204 C 
ATOM     12  C   UNL     1      31.951 -10.880 -21.139  0.00  0.00    +0.154 C 
ATOM     13  C   UNL     1      32.009 -12.151 -20.576  0.00  0.00    +0.035 C 
ENDROOT
BRANCH   7  14
ATOM     14  N   UNL     1      32.253  -9.383 -22.977  0.00  0.00    -0.307 N 
ATOM     15  C   UNL     1      33.635  -7.515 -23.937  0.00  0.00    -0.046 C 
ATOM     16  C   UNL     1      33.482  -8.589 -22.848  0.00  0.00    +0.069 C 
ATOM     17  C   UNL     1      30.954  -8.705 -22.947  0.00  0.00    +0.091 C 
ATOM     18  C   UNL     1      32.667  -6.340 -23.739  0.00  0.00    -0.020 C 
ATOM     19  C   UNL     1      30.705  -7.970 -24.259  0.00  0.00    +0.021 C 
ATOM     20  C   UNL     1      31.267  -6.554 -24.310  0.00  0.00    -0.000 C 
BRANCH  15  21
ATOM     21  N   UNL     1      35.013  -7.006 -23.852  0.00  0.00    +0.383 N 
ATOM     22  H   UNL     1      35.034  -6.032 -24.153  0.00  0.00    -0.089 HD
ATOM     23  H   UNL     1      35.618  -7.562 -24.456  0.00  0.00    -0.089 HD
ATOM     24  H   UNL     1      35.340  -7.072 -22.888  0.00  0.00    -0.089 HD
ENDBRANCH  15  21
ENDBRANCH   7  14
BRANCH   4  25
ATOM     25  C   UNL     1      33.734 -14.182 -24.855  0.00  0.00    +0.077 C 
ATOM     26  C   UNL     1      32.758 -14.398 -25.962  0.00  0.00    +0.022 C 
ATOM     27  C   UNL     1      33.780 -15.448 -25.643  0.00  0.00    +0.022 C 
ENDBRANCH   4  25
BRANCH  10  29
ATOM     28  O   UNL     1      34.094 -17.772 -21.199  0.00  0.00    -0.245 OA
ATOM     29  C   UNL     1      33.090 -17.087 -21.111  0.00  0.00    +0.342 C 
BRANCH  29  30
ATOM     30  O   UNL     1      31.914 -17.475 -20.573  0.00  0.00    -0.477 OA
ATOM     31  H   UNL     1      31.895 -17.858 -19.718  0.00  0.00    +0.295 HD
ENDBRANCH  29  30
ENDBRANCH  10  29
TORSDOF 5
ENDMDL
MODEL 7
REMARK VINA RESULT:      -8.0      3.388      5.033
REMARK  Name = 10178705
REMARK  5 active torsions:
REMARK  status: ('A' for Active; 'I' for Inactive)
REMARK    1  A    between atoms: N_4  and  C_25
REMARK    2  A    between atoms: C_7  and  N_14
REMARK    3  A    between atoms: C_10  and  C_29
REMARK    4  A    between atoms: C_15  and  N_21
REMARK    5  A    between atoms: C_29  and  O_30
REMARK                            x       y       z     vdW  Elec       q    Type
REMARK                         _______ _______ _______ _____ _____    ______ ____
ROOT
ATOM      1 CL   UNL     1      34.894 -14.626 -24.192  0.00  0.00    -0.080 Cl
ATOM      2  F   UNL     1      32.265 -15.872 -20.122  0.00  0.00    -0.203 F 
ATOM      3  O   UNL     1      30.893 -11.064 -20.682  0.00  0.00    -0.286 OA
ATOM      4  N   UNL     1      33.490 -11.795 -23.739  0.00  0.00    -0.287 N 
ATOM      5  C   UNL     1      33.198 -12.854 -22.832  0.00  0.00    +0.067 C 
ATOM      6  C   UNL     1      32.894 -10.561 -23.561  0.00  0.00    +0.075 C 
ATOM      7  C   UNL     1      33.456 -15.147 -22.043  0.00  0.00    +0.087 C 
ATOM      8  C   UNL     1      32.302 -12.629 -21.765  0.00  0.00    +0.056 C 
ATOM      9  C   UNL     1      33.767 -14.132 -22.953  0.00  0.00    +0.087 C 
ATOM     10  C   UNL     1      32.033 -10.243 -22.586  0.00  0.00    +0.129 C 
ATOM     11  C   UNL     1      31.674 -11.292 -21.597  0.00  0.00    +0.204 C 
ATOM     12  C   UNL     1      32.570 -14.904 -20.997  0.00  0.00    +0.154 C 
ATOM     13  C   UNL     1      31.991 -13.646 -20.855  0.00  0.00    +0.035 C 
ENDROOT
BRANCH   7  14
ATOM     14  N   UNL     1      34.008 -16.434 -22.136  0.00  0.00    -0.307 N 
ATOM     15  C   UNL     1      34.809 -18.163 -23.777  0.00  0.00    -0.046 C 
ATOM     16  C   UNL     1      33.725 -17.143 -23.391  0.00  0.00    +0.069 C 
ATOM     17  C   UNL     1      34.182 -17.205 -20.901  0.00  0.00    +0.091 C 
ATOM     18  C   UNL     1      34.782 -19.410 -22.884  0.00  0.00    -0.020 C 
ATOM     19  C   UNL     1      35.535 -17.907 -20.896  0.00  0.00    +0.021 C 
ATOM     20  C   UNL     1      35.541 -19.276 -21.566  0.00  0.00    -0.000 C 
BRANCH  15  21
ATOM     21  N   UNL     1      34.540 -18.574 -25.164  0.00  0.00    +0.383 N 
ATOM     22  H   UNL     1      35.377 -19.004 -25.558  0.00  0.00    -0.089 HD
ATOM     23  H   UNL     1      34.285 -17.756 -25.717  0.00  0.00    -0.089 HD
ATOM     24  H   UNL     1      33.774 -19.247 -25.176  0.00  0.00    -0.089 HD
ENDBRANCH  15  21
ENDBRANCH   7  14
BRANCH   4  25
ATOM     25  C   UNL     1      34.402 -11.860 -24.905  0.00  0.00    +0.077 C 
ATOM     26  C   UNL     1      34.833 -10.617 -25.606  0.00  0.00    +0.022 C 
ATOM     27  C   UNL     1      33.898 -11.576 -26.281  0.00  0.00    +0.022 C 
ENDBRANCH   4  25
BRANCH  10  29
ATOM     28  O   UNL     1      30.883  -8.354 -23.458  0.00  0.00    -0.245 OA
ATOM     29  C   UNL     1      31.496  -8.882 -22.547  0.00  0.00    +0.342 C 
BRANCH  29  30
ATOM     30  O   UNL     1      31.786  -8.313 -21.357  0.00  0.00    -0.477 OA
ATOM     31  H   UNL     1      31.250  -8.493 -20.609  0.00  0.00    +0.295 HD
ENDBRANCH  29  30
ENDBRANCH  10  29
TORSDOF 5
ENDMDL
MODEL 8
REMARK VINA RESULT:      -7.9      4.811      8.913
REMARK  Name = 10178705
REMARK  5 active torsions:
REMARK  status: ('A' for Active; 'I' for Inactive)
REMARK    1  A    between atoms: N_4  and  C_25
REMARK    2  A    between atoms: C_7  and  N_14
REMARK    3  A    between atoms: C_10  and  C_29
REMARK    4  A    between atoms: C_15  and  N_21
REMARK    5  A    between atoms: C_29  and  O_30
REMARK                            x       y       z     vdW  Elec       q    Type
REMARK                         _______ _______ _______ _____ _____    ______ ____
ROOT
ATOM      1 CL   UNL     1      32.974 -10.069 -24.737  0.00  0.00    -0.080 Cl
ATOM      2  F   UNL     1      31.527 -11.215 -20.088  0.00  0.00    -0.203 F 
ATOM      3  O   UNL     1      32.978 -15.735 -21.753  0.00  0.00    -0.286 OA
ATOM      4  N   UNL     1      33.615 -13.193 -24.876  0.00  0.00    -0.287 N 
ATOM      5  C   UNL     1      33.081 -12.659 -23.668  0.00  0.00    +0.067 C 
ATOM      6  C   UNL     1      33.899 -14.543 -24.959  0.00  0.00    +0.075 C 
ATOM      7  C   UNL     1      32.246 -10.812 -22.314  0.00  0.00    +0.087 C 
ATOM      8  C   UNL     1      32.850 -13.517 -22.572  0.00  0.00    +0.056 C 
ATOM      9  C   UNL     1      32.769 -11.299 -23.515  0.00  0.00    +0.087 C 
ATOM     10  C   UNL     1      33.719 -15.439 -23.981  0.00  0.00    +0.129 C 
ATOM     11  C   UNL     1      33.166 -14.965 -22.687  0.00  0.00    +0.204 C 
ATOM     12  C   UNL     1      32.026 -11.675 -21.244  0.00  0.00    +0.154 C 
ATOM     13  C   UNL     1      32.327 -13.028 -21.368  0.00  0.00    +0.035 C 
ENDROOT
BRANCH   7  14
ATOM     14  N   UNL     1      31.923  -9.458 -22.129  0.00  0.00    -0.307 N 
ATOM     15  C   UNL     1      32.564  -7.400 -20.833  0.00  0.00    -0.046 C 
ATOM     16  C   UNL     1      32.276  -8.910 -20.812  0.00  0.00    +0.069 C 
ATOM     17  C   UNL     1      30.763  -8.917 -22.842  0.00  0.00    +0.091 C 
ATOM     18  C   UNL     1      31.289  -6.565 -21.014  0.00  0.00    -0.020 C 
ATOM     19  C   UNL     1      31.083  -7.543 -23.418  0.00  0.00    +0.021 C 
ATOM     20  C   UNL     1      30.838  -6.382 -22.461  0.00  0.00    -0.000 C 
BRANCH  15  21
ATOM     21  N   UNL     1      33.169  -7.057 -19.537  0.00  0.00    +0.383 N 
ATOM     22  H   UNL     1      34.178  -6.960 -19.649  0.00  0.00    -0.089 HD
ATOM     23  H   UNL     1      32.971  -7.798 -18.864  0.00  0.00    -0.089 HD
ATOM     24  H   UNL     1      32.776  -6.178 -19.201  0.00  0.00    -0.089 HD
ENDBRANCH  15  21
ENDBRANCH   7  14
BRANCH   4  25
ATOM     25  C   UNL     1      33.915 -12.438 -26.116  0.00  0.00    +0.077 C 
ATOM     26  C   UNL     1      33.005 -12.514 -27.294  0.00  0.00    +0.022 C 
ATOM     27  C   UNL     1      34.363 -13.148 -27.349  0.00  0.00    +0.022 C 
ENDBRANCH   4  25
BRANCH  10  29
ATOM     28  O   UNL     1      33.904 -17.406 -25.304  0.00  0.00    -0.245 OA
ATOM     29  C   UNL     1      34.075 -16.836 -24.241  0.00  0.00    +0.342 C 
BRANCH  29  30
ATOM     30  O   UNL     1      34.614 -17.381 -23.130  0.00  0.00    -0.477 OA
ATOM     31  H   UNL     1      34.107 -17.967 -22.603  0.00  0.00    +0.295 HD
ENDBRANCH  29  30
ENDBRANCH  10  29
TORSDOF 5
ENDMDL
MODEL 9
REMARK VINA RESULT:      -7.8      7.436     11.267
REMARK  Name = 10178705
REMARK  5 active torsions:
REMARK  status: ('A' for Active; 'I' for Inactive)
REMARK    1  A    between atoms: N_4  and  C_25
REMARK    2  A    between atoms: C_7  and  N_14
REMARK    3  A    between atoms: C_10  and  C_29
REMARK    4  A    between atoms: C_15  and  N_21
REMARK    5  A    between atoms: C_29  and  O_30
REMARK                            x       y       z     vdW  Elec       q    Type
REMARK                         _______ _______ _______ _____ _____    ______ ____
ROOT
ATOM      1 CL   UNL     1      33.292 -22.799 -17.514  0.00  0.00    -0.080 Cl
ATOM      2  F   UNL     1      38.017 -21.156 -17.490  0.00  0.00    -0.203 F 
ATOM      3  O   UNL     1      37.851 -23.580 -13.084  0.00  0.00    -0.286 OA
ATOM      4  N   UNL     1      34.129 -24.024 -14.687  0.00  0.00    -0.287 N 
ATOM      5  C   UNL     1      35.099 -23.287 -15.425  0.00  0.00    +0.067 C 
ATOM      6  C   UNL     1      34.469 -24.562 -13.460  0.00  0.00    +0.075 C 
ATOM      7  C   UNL     1      35.800 -21.996 -17.371  0.00  0.00    +0.087 C 
ATOM      8  C   UNL     1      36.395 -23.117 -14.894  0.00  0.00    +0.056 C 
ATOM      9  C   UNL     1      34.821 -22.712 -16.676  0.00  0.00    +0.087 C 
ATOM     10  C   UNL     1      35.666 -24.461 -12.869  0.00  0.00    +0.129 C 
ATOM     11  C   UNL     1      36.735 -23.708 -13.572  0.00  0.00    +0.204 C 
ATOM     12  C   UNL     1      37.073 -21.840 -16.829  0.00  0.00    +0.154 C 
ATOM     13  C   UNL     1      37.375 -22.400 -15.591  0.00  0.00    +0.035 C 
ENDROOT
BRANCH   7  14
ATOM     14  N   UNL     1      35.555 -21.409 -18.623  0.00  0.00    -0.307 N 
ATOM     15  C   UNL     1      33.755 -20.358 -20.030  0.00  0.00    -0.046 C 
ATOM     16  C   UNL     1      34.166 -21.506 -19.092  0.00  0.00    +0.069 C 
ATOM     17  C   UNL     1      36.643 -21.387 -19.604  0.00  0.00    +0.091 C 
ATOM     18  C   UNL     1      34.399 -20.479 -21.418  0.00  0.00    -0.020 C 
ATOM     19  C   UNL     1      36.707 -20.033 -20.300  0.00  0.00    +0.021 C 
ATOM     20  C   UNL     1      35.811 -19.907 -21.526  0.00  0.00    -0.000 C 
BRANCH  15  21
ATOM     21  N   UNL     1      32.294 -20.429 -20.184  0.00  0.00    +0.383 N 
ATOM     22  H   UNL     1      31.851 -20.308 -19.273  0.00  0.00    -0.089 HD
ATOM     23  H   UNL     1      32.036 -21.337 -20.570  0.00  0.00    -0.089 HD
ATOM     24  H   UNL     1      31.983 -19.690 -20.814  0.00  0.00    -0.089 HD
ENDBRANCH  15  21
ENDBRANCH   7  14
BRANCH   4  25
ATOM     25  C   UNL     1      32.730 -24.294 -15.095  0.00  0.00    +0.077 C 
ATOM     26  C   UNL     1      31.601 -23.510 -14.517  0.00  0.00    +0.022 C 
ATOM     27  C   UNL     1      31.778 -24.955 -14.156  0.00  0.00    +0.022 C 
ENDBRANCH   4  25
BRANCH  10  29
ATOM     28  O   UNL     1      35.215 -24.819 -10.562  0.00  0.00    -0.245 OA
ATOM     29  C   UNL     1      35.853 -25.095 -11.562  0.00  0.00    +0.342 C 
BRANCH  29  30
ATOM     30  O   UNL     1      36.833 -26.021 -11.644  0.00  0.00    -0.477 OA
ATOM     31  H   UNL     1      36.718 -26.778 -12.184  0.00  0.00    +0.295 HD
ENDBRANCH  29  30
ENDBRANCH  10  29
TORSDOF 5
ENDMDL
