MODEL 1
REMARK VINA RESULT:      -7.5      0.000      0.000
REMARK  Name = 9880
REMARK  3 active torsions:
REMARK  status: ('A' for Active; 'I' for Inactive)
REMARK    1  A    between atoms: C_13  and  C_24
REMARK    2  A    between atoms: C_13  and  O_26
REMARK    3  A    between atoms: O_26  and  C_28
REMARK                            x       y       z     vdW  Elec       q    Type
REMARK                         _______ _______ _______ _____ _____    ______ ____
ROOT
ATOM      1 CL   UNL     1      32.446 -21.473 -18.991  0.00  0.00    -0.083 Cl
ATOM      2  O   UNL     1      27.840 -21.838 -16.567  0.00  0.00    -0.291 OA
ATOM      3  C   UNL     1      31.389 -23.957 -15.800  0.00  0.00    +0.020 C 
ATOM      4  C   UNL     1      32.765 -23.827 -15.057  0.00  0.00    +0.008 C 
ATOM      5  C   UNL     1      30.263 -23.971 -14.769  0.00  0.00    +0.011 C 
ATOM      6  C   UNL     1      35.522 -24.607 -14.156  0.00  0.00    +0.040 C 
ATOM      7  C   UNL     1      35.241 -23.565 -15.272  0.00  0.00    +0.008 C 
ATOM      8  C   UNL     1      33.959 -23.878 -16.056  0.00  0.00    +0.023 C 
ATOM      9  C   UNL     1      29.003 -23.206 -15.051  0.00  0.00    +0.062 C 
ATOM     10  C   UNL     1      29.912 -22.769 -13.928  0.00  0.00    +0.008 C 
ATOM     11  C   UNL     1      32.990 -24.814 -13.882  0.00  0.00    +0.001 C 
ATOM     12  C   UNL     1      34.340 -24.579 -13.172  0.00  0.00    +0.004 C 
ATOM     13  C   UNL     1      36.875 -24.059 -13.633  0.00  0.00    +0.186 C 
ATOM     14  C   UNL     1      36.573 -23.485 -16.017  0.00  0.00    +0.004 C 
ATOM     15  C   UNL     1      31.285 -22.800 -16.831  0.00  0.00    -0.010 C 
ATOM     16  C   UNL     1      37.638 -23.650 -14.913  0.00  0.00    +0.047 C 
ATOM     17  C   UNL     1      31.277 -25.290 -16.589  0.00  0.00    +0.004 C 
ATOM     18  C   UNL     1      33.724 -22.960 -17.225  0.00  0.00    -0.015 C 
ATOM     19  C   UNL     1      35.704 -26.055 -14.694  0.00  0.00    +0.004 C 
ATOM     20  C   UNL     1      28.903 -22.358 -16.252  0.00  0.00    +0.172 C 
ATOM     21  C   UNL     1      32.518 -22.476 -17.568  0.00  0.00    +0.049 C 
ATOM     22  C   UNL     1      30.141 -22.116 -17.028  0.00  0.00    +0.034 C 
ENDROOT
BRANCH  13  24
ATOM     23  O   UNL     1      37.140 -25.540 -11.781  0.00  0.00    -0.292 OA
ATOM     24  C   UNL     1      37.646 -25.011 -12.770  0.00  0.00    +0.187 C 
ATOM     25  C   UNL     1      39.068 -25.292 -13.174  0.00  0.00    +0.076 C 
ENDBRANCH  13  24
BRANCH  13  26
ATOM     26  O   UNL     1      36.679 -22.914 -12.809  0.00  0.00    -0.449 OA
BRANCH  26  28
ATOM     27  O   UNL     1      38.636 -22.621 -11.616  0.00  0.00    -0.250 OA
ATOM     28  C   UNL     1      37.439 -22.865 -11.674  0.00  0.00    +0.318 C 
ATOM     29  C   UNL     1      36.583 -23.155 -10.478  0.00  0.00    +0.121 C 
ENDBRANCH  26  28
ENDBRANCH  13  26
TORSDOF 3
ENDMDL
MODEL 2
REMARK VINA RESULT:      -7.0      4.947      7.788
REMARK  Name = 9880
REMARK  3 active torsions:
REMARK  status: ('A' for Active; 'I' for Inactive)
REMARK    1  A    between atoms: C_13  and  C_24
REMARK    2  A    between atoms: C_13  and  O_26
REMARK    3  A    between atoms: O_26  and  C_28
REMARK                            x       y       z     vdW  Elec       q    Type
REMARK                         _______ _______ _______ _____ _____    ______ ____
ROOT
ATOM      1 CL   UNL     1      30.425 -22.717 -16.711  0.00  0.00    -0.083 Cl
ATOM      2  O   UNL     1      33.864 -24.084 -13.032  0.00  0.00    -0.291 OA
ATOM      3  C   UNL     1      34.570 -23.125 -17.064  0.00  0.00    +0.020 C 
ATOM      4  C   UNL     1      34.752 -21.897 -18.024  0.00  0.00    +0.008 C 
ATOM      5  C   UNL     1      35.739 -23.170 -16.081  0.00  0.00    +0.011 C 
ATOM      6  C   UNL     1      35.134 -20.428 -20.616  0.00  0.00    +0.040 C 
ATOM      7  C   UNL     1      33.776 -20.522 -19.869  0.00  0.00    +0.008 C 
ATOM      8  C   UNL     1      33.623 -21.839 -19.096  0.00  0.00    +0.023 C 
ATOM      9  C   UNL     1      35.474 -23.507 -14.644  0.00  0.00    +0.062 C 
ATOM     10  C   UNL     1      35.950 -22.124 -15.016  0.00  0.00    +0.008 C 
ATOM     11  C   UNL     1      36.147 -21.764 -18.688  0.00  0.00    +0.001 C 
ATOM     12  C   UNL     1      36.258 -20.502 -19.568  0.00  0.00    +0.004 C 
ATOM     13  C   UNL     1      34.937 -19.065 -21.328  0.00  0.00    +0.186 C 
ATOM     14  C   UNL     1      32.758 -20.167 -20.951  0.00  0.00    +0.004 C 
ATOM     15  C   UNL     1      33.180 -23.003 -16.383  0.00  0.00    -0.010 C 
ATOM     16  C   UNL     1      33.468 -19.097 -21.807  0.00  0.00    +0.047 C 
ATOM     17  C   UNL     1      34.593 -24.474 -17.833  0.00  0.00    +0.004 C 
ATOM     18  C   UNL     1      32.270 -22.018 -18.463  0.00  0.00    -0.015 C 
ATOM     19  C   UNL     1      35.341 -21.555 -21.667  0.00  0.00    +0.004 C 
ATOM     20  C   UNL     1      34.091 -23.676 -14.164  0.00  0.00    +0.172 C 
ATOM     21  C   UNL     1      32.076 -22.541 -17.241  0.00  0.00    +0.049 C 
ATOM     22  C   UNL     1      32.993 -23.285 -15.078  0.00  0.00    +0.034 C 
ENDROOT
BRANCH  13  24
ATOM     23  O   UNL     1      37.108 -18.634 -22.218  0.00  0.00    -0.292 OA
ATOM     24  C   UNL     1      35.908 -18.789 -22.437  0.00  0.00    +0.187 C 
ATOM     25  C   UNL     1      35.344 -18.717 -23.829  0.00  0.00    +0.076 C 
ENDBRANCH  13  24
BRANCH  13  26
ATOM     26  O   UNL     1      35.119 -17.982 -20.421  0.00  0.00    -0.449 OA
BRANCH  26  28
ATOM     27  O   UNL     1      35.350 -16.022 -21.624  0.00  0.00    -0.250 OA
ATOM     28  C   UNL     1      34.719 -16.756 -20.875  0.00  0.00    +0.318 C 
ATOM     29  C   UNL     1      33.368 -16.425 -20.318  0.00  0.00    +0.121 C 
ENDBRANCH  26  28
ENDBRANCH  13  26
TORSDOF 3
ENDMDL
MODEL 3
REMARK VINA RESULT:      -6.8      5.984      9.338
REMARK  Name = 9880
REMARK  3 active torsions:
REMARK  status: ('A' for Active; 'I' for Inactive)
REMARK    1  A    between atoms: C_13  and  C_24
REMARK    2  A    between atoms: C_13  and  O_26
REMARK    3  A    between atoms: O_26  and  C_28
REMARK                            x       y       z     vdW  Elec       q    Type
REMARK                         _______ _______ _______ _____ _____    ______ ____
ROOT
ATOM      1 CL   UNL     1      31.616 -22.416 -17.574  0.00  0.00    -0.083 Cl
ATOM      2  O   UNL     1      36.011 -23.822 -15.137  0.00  0.00    -0.291 OA
ATOM      3  C   UNL     1      35.560 -21.962 -18.880  0.00  0.00    +0.020 C 
ATOM      4  C   UNL     1      35.332 -20.555 -19.538  0.00  0.00    +0.008 C 
ATOM      5  C   UNL     1      36.931 -21.984 -18.207  0.00  0.00    +0.011 C 
ATOM      6  C   UNL     1      34.858 -18.553 -21.725  0.00  0.00    +0.040 C 
ATOM      7  C   UNL     1      33.753 -19.047 -20.753  0.00  0.00    +0.008 C 
ATOM      8  C   UNL     1      33.975 -20.497 -20.302  0.00  0.00    +0.023 C 
ATOM      9  C   UNL     1      37.078 -22.645 -16.869  0.00  0.00    +0.062 C 
ATOM     10  C   UNL     1      37.256 -21.151 -16.992  0.00  0.00    +0.008 C 
ATOM     11  C   UNL     1      36.488 -20.035 -20.430  0.00  0.00    +0.001 C 
ATOM     12  C   UNL     1      36.206 -18.624 -20.987  0.00  0.00    +0.004 C 
ATOM     13  C   UNL     1      34.308 -17.137 -22.035  0.00  0.00    +0.186 C 
ATOM     14  C   UNL     1      32.460 -18.680 -21.480  0.00  0.00    +0.004 C 
ATOM     15  C   UNL     1      34.379 -22.241 -17.913  0.00  0.00    -0.010 C 
ATOM     16  C   UNL     1      32.785 -17.347 -22.186  0.00  0.00    +0.047 C 
ATOM     17  C   UNL     1      35.574 -23.102 -19.935  0.00  0.00    +0.004 C 
ATOM     18  C   UNL     1      32.858 -21.048 -19.458  0.00  0.00    -0.015 C 
ATOM     19  C   UNL     1      34.948 -19.389 -23.034  0.00  0.00    +0.004 C 
ATOM     20  C   UNL     1      35.893 -23.161 -16.161  0.00  0.00    +0.172 C 
ATOM     21  C   UNL     1      33.045 -21.832 -18.383  0.00  0.00    +0.049 C 
ATOM     22  C   UNL     1      34.560 -22.808 -16.703  0.00  0.00    +0.034 C 
ENDROOT
BRANCH  13  24
ATOM     23  O   UNL     1      36.117 -16.154 -23.241  0.00  0.00    -0.292 OA
ATOM     24  C   UNL     1      34.929 -16.469 -23.225  0.00  0.00    +0.187 C 
ATOM     25  C   UNL     1      34.028 -16.208 -24.401  0.00  0.00    +0.076 C 
ENDBRANCH  13  24
BRANCH  13  26
ATOM     26  O   UNL     1      34.562 -16.243 -20.956  0.00  0.00    -0.449 OA
BRANCH  26  28
ATOM     27  O   UNL     1      34.096 -14.085 -21.641  0.00  0.00    -0.250 OA
ATOM     28  C   UNL     1      33.845 -15.079 -20.971  0.00  0.00    +0.318 C 
ATOM     29  C   UNL     1      32.681 -15.187 -20.034  0.00  0.00    +0.121 C 
ENDBRANCH  26  28
ENDBRANCH  13  26
TORSDOF 3
ENDMDL
MODEL 4
REMARK VINA RESULT:      -5.4      2.253      7.327
REMARK  Name = 9880
REMARK  3 active torsions:
REMARK  status: ('A' for Active; 'I' for Inactive)
REMARK    1  A    between atoms: C_13  and  C_24
REMARK    2  A    between atoms: C_13  and  O_26
REMARK    3  A    between atoms: O_26  and  C_28
REMARK                            x       y       z     vdW  Elec       q    Type
REMARK                         _______ _______ _______ _____ _____    ______ ____
ROOT
ATOM      1 CL   UNL     1      38.119 -22.664 -17.214  0.00  0.00    -0.083 Cl
ATOM      2  O   UNL     1      40.389 -25.991 -13.896  0.00  0.00    -0.291 OA
ATOM      3  C   UNL     1      36.634 -24.123 -13.590  0.00  0.00    +0.020 C 
ATOM      4  C   UNL     1      35.150 -24.252 -14.085  0.00  0.00    +0.008 C 
ATOM      5  C   UNL     1      36.965 -25.309 -12.686  0.00  0.00    +0.011 C 
ATOM      6  C   UNL     1      32.264 -23.502 -14.441  0.00  0.00    +0.040 C 
ATOM      7  C   UNL     1      33.345 -23.323 -15.542  0.00  0.00    +0.008 C 
ATOM      8  C   UNL     1      34.733 -23.030 -14.957  0.00  0.00    +0.023 C 
ATOM      9  C   UNL     1      38.305 -25.971 -12.809  0.00  0.00    +0.062 C 
ATOM     10  C   UNL     1      37.057 -26.725 -13.198  0.00  0.00    +0.008 C 
ATOM     11  C   UNL     1      34.095 -24.525 -12.983  0.00  0.00    +0.001 C 
ATOM     12  C   UNL     1      32.675 -24.695 -13.562  0.00  0.00    +0.004 C 
ATOM     13  C   UNL     1      31.017 -23.698 -15.341  0.00  0.00    +0.186 C 
ATOM     14  C   UNL     1      32.707 -22.315 -16.496  0.00  0.00    +0.004 C 
ATOM     15  C   UNL     1      37.552 -24.008 -14.837  0.00  0.00    -0.010 C 
ATOM     16  C   UNL     1      31.206 -22.670 -16.479  0.00  0.00    +0.047 C 
ATOM     17  C   UNL     1      36.854 -22.847 -12.734  0.00  0.00    +0.004 C 
ATOM     18  C   UNL     1      35.778 -22.729 -15.998  0.00  0.00    -0.015 C 
ATOM     19  C   UNL     1      32.083 -22.244 -13.544  0.00  0.00    +0.004 C 
ATOM     20  C   UNL     1      39.243 -25.558 -13.868  0.00  0.00    +0.172 C 
ATOM     21  C   UNL     1      37.045 -23.172 -15.939  0.00  0.00    +0.049 C 
ATOM     22  C   UNL     1      38.735 -24.647 -14.919  0.00  0.00    +0.034 C 
ENDROOT
BRANCH  13  24
ATOM     23  O   UNL     1      29.411 -24.256 -13.667  0.00  0.00    -0.292 OA
ATOM     24  C   UNL     1      29.703 -23.553 -14.633  0.00  0.00    +0.187 C 
ATOM     25  C   UNL     1      28.762 -22.504 -15.159  0.00  0.00    +0.076 C 
ENDBRANCH  13  24
BRANCH  13  26
ATOM     26  O   UNL     1      30.981 -25.013 -15.886  0.00  0.00    -0.449 OA
BRANCH  26  28
ATOM     27  O   UNL     1      29.467 -26.556 -15.070  0.00  0.00    -0.250 OA
ATOM     28  C   UNL     1      29.771 -25.646 -15.829  0.00  0.00    +0.318 C 
ATOM     29  C   UNL     1      28.843 -25.056 -16.848  0.00  0.00    +0.121 C 
ENDBRANCH  26  28
ENDBRANCH  13  26
TORSDOF 3
ENDMDL
