MODEL 1
REMARK VINA RESULT:      -6.2      0.000      0.000
REMARK  Name = 2969
REMARK  8 active torsions:
REMARK  status: ('A' for Active; 'I' for Inactive)
REMARK    1  A    between atoms: C_1  and  C_2
REMARK    2  A    between atoms: C_1  and  C_8
REMARK    3  A    between atoms: C_3  and  C_4
REMARK    4  A    between atoms: C_4  and  C_5
REMARK    5  A    between atoms: C_5  and  C_6
REMARK    6  A    between atoms: C_8  and  C_9
REMARK    7  A    between atoms: C_9  and  C_11
REMARK    8  A    between atoms: C_11  and  O_12
REMARK                            x       y       z     vdW  Elec       q    Type
REMARK                         _______ _______ _______ _____ _____    ______ ____
ROOT
ATOM      1  C   UNL     1      31.885 -23.604 -15.866  0.00  0.00    +0.026 C 
ENDROOT
BRANCH   1   2
ATOM      2  C   UNL     1      33.240 -23.206 -16.459  0.00  0.00    -0.031 C 
ATOM      3  C   UNL     1      33.227 -22.794 -17.935  0.00  0.00    -0.031 C 
BRANCH   3   4
ATOM      4  C   UNL     1      34.590 -22.450 -18.543  0.00  0.00    +0.026 C 
BRANCH   4   5
ATOM      5  C   UNL     1      34.511 -21.411 -19.663  0.00  0.00    +0.005 C 
BRANCH   5   6
ATOM      6  C   UNL     1      33.094 -20.850 -19.797  0.00  0.00    +0.000 C 
ATOM      7  C   UNL     1      33.046 -19.685 -20.771  0.00  0.00    +0.000 C 
ENDBRANCH   5   6
ENDBRANCH   4   5
ENDBRANCH   3   4
ENDBRANCH   1   2
BRANCH   1   8
ATOM      8  C   UNL     1      30.705 -22.853 -16.493  0.00  0.00    +0.016 C 
BRANCH   8   9
ATOM      9  C   UNL     1      29.357 -23.339 -15.959  0.00  0.00    +0.110 C 
BRANCH   9  11
ATOM     10  O   UNL     1      27.608 -23.863 -17.573  0.00  0.00    -0.250 OA
ATOM     11  C   UNL     1      28.202 -23.041 -16.890  0.00  0.00    +0.314 C 
BRANCH  11  12
ATOM     12  O   UNL     1      27.873 -21.722 -16.864  0.00  0.00    -0.480 OA
ATOM     13  H   UNL     1      27.401 -21.371 -16.136  0.00  0.00    +0.295 HD
ENDBRANCH  11  12
ENDBRANCH   9  11
ENDBRANCH   8   9
ENDBRANCH   1   8
TORSDOF 8
ENDMDL
MODEL 2
REMARK VINA RESULT:      -6.2      5.892      8.212
REMARK  Name = 2969
REMARK  8 active torsions:
REMARK  status: ('A' for Active; 'I' for Inactive)
REMARK    1  A    between atoms: C_1  and  C_2
REMARK    2  A    between atoms: C_1  and  C_8
REMARK    3  A    between atoms: C_3  and  C_4
REMARK    4  A    between atoms: C_4  and  C_5
REMARK    5  A    between atoms: C_5  and  C_6
REMARK    6  A    between atoms: C_8  and  C_9
REMARK    7  A    between atoms: C_9  and  C_11
REMARK    8  A    between atoms: C_11  and  O_12
REMARK                            x       y       z     vdW  Elec       q    Type
REMARK                         _______ _______ _______ _____ _____    ______ ____
ROOT
ATOM      1  C   UNL     1      34.279 -18.657 -21.893  0.00  0.00    +0.026 C 
ENDROOT
BRANCH   1   2
ATOM      2  C   UNL     1      34.401 -19.855 -20.946  0.00  0.00    -0.031 C 
ATOM      3  C   UNL     1      33.094 -20.333 -20.303  0.00  0.00    -0.031 C 
BRANCH   3   4
ATOM      4  C   UNL     1      33.225 -21.495 -19.314  0.00  0.00    +0.026 C 
BRANCH   4   5
ATOM      5  C   UNL     1      34.545 -22.258 -19.446  0.00  0.00    +0.005 C 
BRANCH   5   6
ATOM      6  C   UNL     1      35.362 -22.176 -18.156  0.00  0.00    +0.000 C 
ATOM      7  C   UNL     1      36.701 -21.496 -18.387  0.00  0.00    +0.000 C 
ENDBRANCH   5   6
ENDBRANCH   4   5
ENDBRANCH   3   4
ENDBRANCH   1   2
BRANCH   1   8
ATOM      8  C   UNL     1      35.371 -18.620 -22.968  0.00  0.00    +0.016 C 
BRANCH   8   9
ATOM      9  C   UNL     1      34.802 -18.393 -24.369  0.00  0.00    +0.110 C 
BRANCH   9  11
ATOM     10  O   UNL     1      34.444 -16.507 -25.869  0.00  0.00    -0.250 OA
ATOM     11  C   UNL     1      34.923 -16.961 -24.839  0.00  0.00    +0.314 C 
BRANCH  11  12
ATOM     12  O   UNL     1      35.625 -16.206 -23.952  0.00  0.00    -0.480 OA
ATOM     13  H   UNL     1      35.368 -16.181 -23.052  0.00  0.00    +0.295 HD
ENDBRANCH  11  12
ENDBRANCH   9  11
ENDBRANCH   8   9
ENDBRANCH   1   8
TORSDOF 8
ENDMDL
MODEL 3
REMARK VINA RESULT:      -6.1      4.667      6.460
REMARK  Name = 2969
REMARK  8 active torsions:
REMARK  status: ('A' for Active; 'I' for Inactive)
REMARK    1  A    between atoms: C_1  and  C_2
REMARK    2  A    between atoms: C_1  and  C_8
REMARK    3  A    between atoms: C_3  and  C_4
REMARK    4  A    between atoms: C_4  and  C_5
REMARK    5  A    between atoms: C_5  and  C_6
REMARK    6  A    between atoms: C_8  and  C_9
REMARK    7  A    between atoms: C_9  and  C_11
REMARK    8  A    between atoms: C_11  and  O_12
REMARK                            x       y       z     vdW  Elec       q    Type
REMARK                         _______ _______ _______ _____ _____    ______ ____
ROOT
ATOM      1  C   UNL     1      33.048 -20.327 -20.216  0.00  0.00    +0.026 C 
ENDROOT
BRANCH   1   2
ATOM      2  C   UNL     1      34.099 -19.856 -21.225  0.00  0.00    -0.031 C 
ATOM      3  C   UNL     1      34.255 -18.338 -21.366  0.00  0.00    -0.031 C 
BRANCH   3   4
ATOM      4  C   UNL     1      35.267 -17.867 -22.415  0.00  0.00    +0.026 C 
BRANCH   4   5
ATOM      5  C   UNL     1      35.400 -18.824 -23.601  0.00  0.00    +0.005 C 
BRANCH   5   6
ATOM      6  C   UNL     1      34.464 -18.423 -24.743  0.00  0.00    +0.000 C 
ATOM      7  C   UNL     1      34.657 -16.968 -25.137  0.00  0.00    +0.000 C 
ENDBRANCH   5   6
ENDBRANCH   4   5
ENDBRANCH   3   4
ENDBRANCH   1   2
BRANCH   1   8
ATOM      8  C   UNL     1      33.498 -21.540 -19.393  0.00  0.00    +0.016 C 
BRANCH   8   9
ATOM      9  C   UNL     1      34.941 -21.946 -19.697  0.00  0.00    +0.110 C 
BRANCH   9  11
ATOM     10  O   UNL     1      35.922 -22.469 -17.529  0.00  0.00    -0.250 OA
ATOM     11  C   UNL     1      35.875 -21.758 -18.523  0.00  0.00    +0.314 C 
BRANCH  11  12
ATOM     12  O   UNL     1      36.698 -20.691 -18.710  0.00  0.00    -0.480 OA
ATOM     13  H   UNL     1      36.450 -19.847 -18.390  0.00  0.00    +0.295 HD
ENDBRANCH  11  12
ENDBRANCH   9  11
ENDBRANCH   8   9
ENDBRANCH   1   8
TORSDOF 8
ENDMDL
MODEL 4
REMARK VINA RESULT:      -6.0      5.167      7.841
REMARK  Name = 2969
REMARK  8 active torsions:
REMARK  status: ('A' for Active; 'I' for Inactive)
REMARK    1  A    between atoms: C_1  and  C_2
REMARK    2  A    between atoms: C_1  and  C_8
REMARK    3  A    between atoms: C_3  and  C_4
REMARK    4  A    between atoms: C_4  and  C_5
REMARK    5  A    between atoms: C_5  and  C_6
REMARK    6  A    between atoms: C_8  and  C_9
REMARK    7  A    between atoms: C_9  and  C_11
REMARK    8  A    between atoms: C_11  and  O_12
REMARK                            x       y       z     vdW  Elec       q    Type
REMARK                         _______ _______ _______ _____ _____    ______ ____
ROOT
ATOM      1  C   UNL     1      33.983 -18.983 -21.598  0.00  0.00    +0.026 C 
ENDROOT
BRANCH   1   2
ATOM      2  C   UNL     1      33.853 -20.148 -20.612  0.00  0.00    -0.031 C 
ATOM      3  C   UNL     1      35.171 -20.754 -20.117  0.00  0.00    -0.031 C 
BRANCH   3   4
ATOM      4  C   UNL     1      35.039 -21.954 -19.175  0.00  0.00    +0.026 C 
BRANCH   4   5
ATOM      5  C   UNL     1      33.593 -22.258 -18.777  0.00  0.00    +0.005 C 
BRANCH   5   6
ATOM      6  C   UNL     1      33.537 -23.135 -17.525  0.00  0.00    +0.000 C 
ATOM      7  C   UNL     1      32.165 -23.089 -16.874  0.00  0.00    +0.000 C 
ENDBRANCH   5   6
ENDBRANCH   4   5
ENDBRANCH   3   4
ENDBRANCH   1   2
BRANCH   1   8
ATOM      8  C   UNL     1      35.183 -19.119 -22.542  0.00  0.00    +0.016 C 
BRANCH   8   9
ATOM      9  C   UNL     1      34.769 -19.110 -24.014  0.00  0.00    +0.110 C 
BRANCH   9  11
ATOM     10  O   UNL     1      34.292 -17.413 -25.696  0.00  0.00    -0.250 OA
ATOM     11  C   UNL     1      34.822 -17.735 -24.642  0.00  0.00    +0.314 C 
BRANCH  11  12
ATOM     12  O   UNL     1      35.525 -16.865 -23.870  0.00  0.00    -0.480 OA
ATOM     13  H   UNL     1      35.720 -17.080 -22.979  0.00  0.00    +0.295 HD
ENDBRANCH  11  12
ENDBRANCH   9  11
ENDBRANCH   8   9
ENDBRANCH   1   8
TORSDOF 8
ENDMDL
MODEL 5
REMARK VINA RESULT:      -6.0      6.067      8.985
REMARK  Name = 2969
REMARK  8 active torsions:
REMARK  status: ('A' for Active; 'I' for Inactive)
REMARK    1  A    between atoms: C_1  and  C_2
REMARK    2  A    between atoms: C_1  and  C_8
REMARK    3  A    between atoms: C_3  and  C_4
REMARK    4  A    between atoms: C_4  and  C_5
REMARK    5  A    between atoms: C_5  and  C_6
REMARK    6  A    between atoms: C_8  and  C_9
REMARK    7  A    between atoms: C_9  and  C_11
REMARK    8  A    between atoms: C_11  and  O_12
REMARK                            x       y       z     vdW  Elec       q    Type
REMARK                         _______ _______ _______ _____ _____    ______ ____
ROOT
ATOM      1  C   UNL     1      34.350 -15.612 -21.787  0.00  0.00    +0.026 C 
ENDROOT
BRANCH   1   2
ATOM      2  C   UNL     1      34.251 -16.989 -21.122  0.00  0.00    -0.031 C 
ATOM      3  C   UNL     1      34.894 -18.148 -21.891  0.00  0.00    -0.031 C 
BRANCH   3   4
ATOM      4  C   UNL     1      34.746 -19.533 -21.253  0.00  0.00    +0.026 C 
BRANCH   4   5
ATOM      5  C   UNL     1      33.297 -19.899 -20.926  0.00  0.00    +0.005 C 
BRANCH   5   6
ATOM      6  C   UNL     1      33.225 -20.881 -19.756  0.00  0.00    +0.000 C 
ATOM      7  C   UNL     1      34.555 -21.583 -19.535  0.00  0.00    +0.000 C 
ENDBRANCH   5   6
ENDBRANCH   4   5
ENDBRANCH   3   4
ENDBRANCH   1   2
BRANCH   1   8
ATOM      8  C   UNL     1      34.873 -15.670 -23.227  0.00  0.00    +0.016 C 
BRANCH   8   9
ATOM      9  C   UNL     1      33.791 -15.329 -24.252  0.00  0.00    +0.110 C 
BRANCH   9  11
ATOM     10  O   UNL     1      34.569 -17.165 -25.653  0.00  0.00    -0.250 OA
ATOM     11  C   UNL     1      33.866 -16.175 -25.504  0.00  0.00    +0.314 C 
BRANCH  11  12
ATOM     12  O   UNL     1      33.024 -15.713 -26.466  0.00  0.00    -0.480 OA
ATOM     13  H   UNL     1      32.128 -15.983 -26.474  0.00  0.00    +0.295 HD
ENDBRANCH  11  12
ENDBRANCH   9  11
ENDBRANCH   8   9
ENDBRANCH   1   8
TORSDOF 8
ENDMDL
MODEL 6
REMARK VINA RESULT:      -5.9      4.056      6.592
REMARK  Name = 2969
REMARK  8 active torsions:
REMARK  status: ('A' for Active; 'I' for Inactive)
REMARK    1  A    between atoms: C_1  and  C_2
REMARK    2  A    between atoms: C_1  and  C_8
REMARK    3  A    between atoms: C_3  and  C_4
REMARK    4  A    between atoms: C_4  and  C_5
REMARK    5  A    between atoms: C_5  and  C_6
REMARK    6  A    between atoms: C_8  and  C_9
REMARK    7  A    between atoms: C_9  and  C_11
REMARK    8  A    between atoms: C_11  and  O_12
REMARK                            x       y       z     vdW  Elec       q    Type
REMARK                         _______ _______ _______ _____ _____    ______ ____
ROOT
ATOM      1  C   UNL     1      34.910 -19.488 -21.634  0.00  0.00    +0.026 C 
ENDROOT
BRANCH   1   2
ATOM      2  C   UNL     1      34.579 -18.028 -21.310  0.00  0.00    -0.031 C 
ATOM      3  C   UNL     1      34.970 -17.003 -22.379  0.00  0.00    -0.031 C 
BRANCH   3   4
ATOM      4  C   UNL     1      34.689 -15.538 -22.031  0.00  0.00    +0.026 C 
BRANCH   4   5
ATOM      5  C   UNL     1      34.293 -15.327 -20.568  0.00  0.00    +0.005 C 
BRANCH   5   6
ATOM      6  C   UNL     1      32.854 -14.819 -20.453  0.00  0.00    +0.000 C 
ATOM      7  C   UNL     1      32.376 -14.201 -21.756  0.00  0.00    +0.000 C 
ENDBRANCH   5   6
ENDBRANCH   4   5
ENDBRANCH   3   4
ENDBRANCH   1   2
BRANCH   1   8
ATOM      8  C   UNL     1      34.957 -20.389 -20.395  0.00  0.00    +0.016 C 
BRANCH   8   9
ATOM      9  C   UNL     1      33.563 -20.807 -19.925  0.00  0.00    +0.110 C 
BRANCH   9  11
ATOM     10  O   UNL     1      34.462 -22.928 -19.130  0.00  0.00    -0.250 OA
ATOM     11  C   UNL     1      33.558 -22.103 -19.146  0.00  0.00    +0.314 C 
BRANCH  11  12
ATOM     12  O   UNL     1      32.414 -22.244 -18.425  0.00  0.00    -0.480 OA
ATOM     13  H   UNL     1      31.825 -22.946 -18.615  0.00  0.00    +0.295 HD
ENDBRANCH  11  12
ENDBRANCH   9  11
ENDBRANCH   8   9
ENDBRANCH   1   8
TORSDOF 8
ENDMDL
MODEL 7
REMARK VINA RESULT:      -5.9      3.413      5.537
REMARK  Name = 2969
REMARK  8 active torsions:
REMARK  status: ('A' for Active; 'I' for Inactive)
REMARK    1  A    between atoms: C_1  and  C_2
REMARK    2  A    between atoms: C_1  and  C_8
REMARK    3  A    between atoms: C_3  and  C_4
REMARK    4  A    between atoms: C_4  and  C_5
REMARK    5  A    between atoms: C_5  and  C_6
REMARK    6  A    between atoms: C_8  and  C_9
REMARK    7  A    between atoms: C_9  and  C_11
REMARK    8  A    between atoms: C_11  and  O_12
REMARK                            x       y       z     vdW  Elec       q    Type
REMARK                         _______ _______ _______ _____ _____    ______ ____
ROOT
ATOM      1  C   UNL     1      33.305 -20.437 -20.292  0.00  0.00    +0.026 C 
ENDROOT
BRANCH   1   2
ATOM      2  C   UNL     1      33.862 -19.321 -21.182  0.00  0.00    -0.031 C 
ATOM      3  C   UNL     1      35.372 -19.364 -21.439  0.00  0.00    -0.031 C 
BRANCH   3   4
ATOM      4  C   UNL     1      35.936 -18.217 -22.283  0.00  0.00    +0.026 C 
BRANCH   4   5
ATOM      5  C   UNL     1      34.854 -17.331 -22.903  0.00  0.00    +0.005 C 
BRANCH   5   6
ATOM      6  C   UNL     1      34.867 -17.429 -24.430  0.00  0.00    +0.000 C 
ATOM      7  C   UNL     1      34.388 -18.790 -24.905  0.00  0.00    +0.000 C 
ENDBRANCH   5   6
ENDBRANCH   4   5
ENDBRANCH   3   4
ENDBRANCH   1   2
BRANCH   1   8
ATOM      8  C   UNL     1      34.396 -21.241 -19.574  0.00  0.00    +0.016 C 
BRANCH   8   9
ATOM      9  C   UNL     1      34.004 -22.707 -19.379  0.00  0.00    +0.110 C 
BRANCH   9  11
ATOM     10  O   UNL     1      34.178 -23.489 -17.078  0.00  0.00    -0.250 OA
ATOM     11  C   UNL     1      33.508 -23.011 -17.983  0.00  0.00    +0.314 C 
BRANCH  11  12
ATOM     12  O   UNL     1      32.202 -22.665 -17.834  0.00  0.00    -0.480 OA
ATOM     13  H   UNL     1      31.659 -23.133 -17.232  0.00  0.00    +0.295 HD
ENDBRANCH  11  12
ENDBRANCH   9  11
ENDBRANCH   8   9
ENDBRANCH   1   8
TORSDOF 8
ENDMDL
MODEL 8
REMARK VINA RESULT:      -5.9      3.869      6.381
REMARK  Name = 2969
REMARK  8 active torsions:
REMARK  status: ('A' for Active; 'I' for Inactive)
REMARK    1  A    between atoms: C_1  and  C_2
REMARK    2  A    between atoms: C_1  and  C_8
REMARK    3  A    between atoms: C_3  and  C_4
REMARK    4  A    between atoms: C_4  and  C_5
REMARK    5  A    between atoms: C_5  and  C_6
REMARK    6  A    between atoms: C_8  and  C_9
REMARK    7  A    between atoms: C_9  and  C_11
REMARK    8  A    between atoms: C_11  and  O_12
REMARK                            x       y       z     vdW  Elec       q    Type
REMARK                         _______ _______ _______ _____ _____    ______ ____
ROOT
ATOM      1  C   UNL     1      36.403 -19.872 -20.400  0.00  0.00    +0.026 C 
ENDROOT
BRANCH   1   2
ATOM      2  C   UNL     1      36.398 -18.743 -21.436  0.00  0.00    -0.031 C 
ATOM      3  C   UNL     1      35.032 -18.115 -21.731  0.00  0.00    -0.031 C 
BRANCH   3   4
ATOM      4  C   UNL     1      35.020 -17.025 -22.808  0.00  0.00    +0.026 C 
BRANCH   4   5
ATOM      5  C   UNL     1      34.663 -15.640 -22.264  0.00  0.00    +0.005 C 
BRANCH   5   6
ATOM      6  C   UNL     1      34.347 -15.697 -20.769  0.00  0.00    +0.000 C 
ATOM      7  C   UNL     1      33.001 -15.064 -20.459  0.00  0.00    +0.000 C 
ENDBRANCH   5   6
ENDBRANCH   4   5
ENDBRANCH   3   4
ENDBRANCH   1   2
BRANCH   1   8
ATOM      8  C   UNL     1      35.052 -20.586 -20.275  0.00  0.00    +0.016 C 
BRANCH   8   9
ATOM      9  C   UNL     1      35.098 -21.746 -19.279  0.00  0.00    +0.110 C 
BRANCH   9  11
ATOM     10  O   UNL     1      32.704 -22.016 -18.914  0.00  0.00    -0.250 OA
ATOM     11  C   UNL     1      33.792 -22.504 -19.185  0.00  0.00    +0.314 C 
BRANCH  11  12
ATOM     12  O   UNL     1      33.964 -23.823 -19.466  0.00  0.00    -0.480 OA
ATOM     13  H   UNL     1      33.235 -24.409 -19.428  0.00  0.00    +0.295 HD
ENDBRANCH  11  12
ENDBRANCH   9  11
ENDBRANCH   8   9
ENDBRANCH   1   8
TORSDOF 8
ENDMDL
MODEL 9
REMARK VINA RESULT:      -5.8      6.038      9.178
REMARK  Name = 2969
REMARK  8 active torsions:
REMARK  status: ('A' for Active; 'I' for Inactive)
REMARK    1  A    between atoms: C_1  and  C_2
REMARK    2  A    between atoms: C_1  and  C_8
REMARK    3  A    between atoms: C_3  and  C_4
REMARK    4  A    between atoms: C_4  and  C_5
REMARK    5  A    between atoms: C_5  and  C_6
REMARK    6  A    between atoms: C_8  and  C_9
REMARK    7  A    between atoms: C_9  and  C_11
REMARK    8  A    between atoms: C_11  and  O_12
REMARK                            x       y       z     vdW  Elec       q    Type
REMARK                         _______ _______ _______ _____ _____    ______ ____
ROOT
ATOM      1  C   UNL     1      34.899 -17.767 -24.500  0.00  0.00    +0.026 C 
ENDROOT
BRANCH   1   2
ATOM      2  C   UNL     1      34.880 -18.960 -23.539  0.00  0.00    -0.031 C 
ATOM      3  C   UNL     1      34.546 -18.634 -22.079  0.00  0.00    -0.031 C 
BRANCH   3   4
ATOM      4  C   UNL     1      34.582 -19.818 -21.108  0.00  0.00    +0.026 C 
BRANCH   4   5
ATOM      5  C   UNL     1      33.215 -20.152 -20.508  0.00  0.00    +0.005 C 
BRANCH   5   6
ATOM      6  C   UNL     1      33.313 -21.318 -19.522  0.00  0.00    +0.000 C 
ATOM      7  C   UNL     1      34.750 -21.778 -19.346  0.00  0.00    +0.000 C 
ENDBRANCH   5   6
ENDBRANCH   4   5
ENDBRANCH   3   4
ENDBRANCH   1   2
BRANCH   1   8
ATOM      8  C   UNL     1      34.963 -16.413 -23.786  0.00  0.00    +0.016 C 
BRANCH   8   9
ATOM      9  C   UNL     1      33.790 -15.503 -24.155  0.00  0.00    +0.110 C 
BRANCH   9  11
ATOM     10  O   UNL     1      33.654 -13.082 -24.388  0.00  0.00    -0.250 OA
ATOM     11  C   UNL     1      33.998 -14.063 -23.743  0.00  0.00    +0.314 C 
BRANCH  11  12
ATOM     12  O   UNL     1      34.607 -13.977 -22.531  0.00  0.00    -0.480 OA
ATOM     13  H   UNL     1      35.443 -14.376 -22.397  0.00  0.00    +0.295 HD
ENDBRANCH  11  12
ENDBRANCH   9  11
ENDBRANCH   8   9
ENDBRANCH   1   8
TORSDOF 8
ENDMDL
