MODEL 1
REMARK VINA RESULT:      -5.7      0.000      0.000
REMARK  Name = 10130120
REMARK  6 active torsions:
REMARK  status: ('A' for Active; 'I' for Inactive)
REMARK    1  A    between atoms: C_1  and  N_2
REMARK    2  A    between atoms: C_1  and  C_7
REMARK    3  A    between atoms: C_1  and  C_10
REMARK    4  A    between atoms: C_7  and  O_8
REMARK    5  A    between atoms: C_10  and  S_11
REMARK    6  A    between atoms: S_11  and  C_13
REMARK                            x       y       z     vdW  Elec       q    Type
REMARK                         _______ _______ _______ _____ _____    ______ ____
ROOT
ATOM      1  C   UNK     1      38.668 -24.916 -14.715  0.00  0.00    +0.047 C 
ENDROOT
BRANCH   1   2
ATOM      2  N   UNK     1      37.875 -26.027 -15.246  0.00  0.00    +0.389 N 
ATOM      3  H   UNK     1      36.940 -25.695 -15.483  0.00  0.00    -0.088 HD
ATOM      4  H   UNK     1      37.805 -26.763 -14.541  0.00  0.00    -0.088 HD
ATOM      5  H   UNK     1      38.327 -26.399 -16.081  0.00  0.00    -0.088 HD
ENDBRANCH   1   2
BRANCH   1   7
ATOM      6  O   UNK     1      41.034 -24.891 -14.215  0.00  0.00    -0.253 OA
ATOM      7  C   UNK     1      40.129 -25.237 -14.966  0.00  0.00    +0.294 C 
BRANCH   7   8
ATOM      8  O   UNK     1      40.351 -25.913 -16.120  0.00  0.00    -0.482 OA
ATOM      9  H   UNK     1      40.935 -26.645 -16.131  0.00  0.00    +0.295 HD
ENDBRANCH   7   8
ENDBRANCH   1   7
BRANCH   1  10
ATOM     10  C   UNK     1      38.364 -24.720 -13.229  0.00  0.00    +0.054 C 
BRANCH  10  11
ATOM     11  S   UNK     1      37.031 -25.820 -12.655  0.00  0.00    -0.079 S 
BRANCH  11  13
ATOM     12  O   UNK     1      35.320 -25.091 -10.775  0.00  0.00    -0.285 OA
ATOM     13  C   UNK     1      36.177 -24.727 -11.571  0.00  0.00    +0.199 C 
ATOM     14  C   UNK     1      36.602 -23.294 -11.720  0.00  0.00    +0.085 C 
ENDBRANCH  11  13
ENDBRANCH  10  11
ENDBRANCH   1  10
TORSDOF 6
ENDMDL
MODEL 2
REMARK VINA RESULT:      -5.5      1.500      1.619
REMARK  Name = 10130120
REMARK  6 active torsions:
REMARK  status: ('A' for Active; 'I' for Inactive)
REMARK    1  A    between atoms: C_1  and  N_2
REMARK    2  A    between atoms: C_1  and  C_7
REMARK    3  A    between atoms: C_1  and  C_10
REMARK    4  A    between atoms: C_7  and  O_8
REMARK    5  A    between atoms: C_10  and  S_11
REMARK    6  A    between atoms: S_11  and  C_13
REMARK                            x       y       z     vdW  Elec       q    Type
REMARK                         _______ _______ _______ _____ _____    ______ ____
ROOT
ATOM      1  C   UNK     1      38.680 -25.715 -14.505  0.00  0.00    +0.047 C 
ENDROOT
BRANCH   1   2
ATOM      2  N   UNK     1      37.967 -26.975 -14.282  0.00  0.00    +0.389 N 
ATOM      3  H   UNK     1      38.525 -27.579 -13.679  0.00  0.00    -0.088 HD
ATOM      4  H   UNK     1      37.811 -27.440 -15.177  0.00  0.00    -0.088 HD
ATOM      5  H   UNK     1      37.069 -26.784 -13.838  0.00  0.00    -0.088 HD
ENDBRANCH   1   2
BRANCH   1   7
ATOM      6  O   UNK     1      40.931 -26.377 -13.916  0.00  0.00    -0.253 OA
ATOM      7  C   UNK     1      40.131 -26.056 -14.788  0.00  0.00    +0.294 C 
BRANCH   7   8
ATOM      8  O   UNK     1      40.476 -25.939 -16.095  0.00  0.00    -0.482 OA
ATOM      9  H   UNK     1      41.358 -25.731 -16.331  0.00  0.00    +0.295 HD
ENDBRANCH   7   8
ENDBRANCH   1   7
BRANCH   1  10
ATOM     10  C   UNK     1      38.526 -24.804 -13.286  0.00  0.00    +0.054 C 
BRANCH  10  11
ATOM     11  S   UNK     1      37.125 -23.654 -13.468  0.00  0.00    -0.079 S 
BRANCH  11  13
ATOM     12  O   UNK     1      37.309 -22.462 -11.114  0.00  0.00    -0.285 OA
ATOM     13  C   UNK     1      36.765 -23.340 -11.774  0.00  0.00    +0.199 C 
ATOM     14  C   UNK     1      35.723 -24.262 -11.209  0.00  0.00    +0.085 C 
ENDBRANCH  11  13
ENDBRANCH  10  11
ENDBRANCH   1  10
TORSDOF 6
ENDMDL
MODEL 3
REMARK VINA RESULT:      -5.5      2.935      4.683
REMARK  Name = 10130120
REMARK  6 active torsions:
REMARK  status: ('A' for Active; 'I' for Inactive)
REMARK    1  A    between atoms: C_1  and  N_2
REMARK    2  A    between atoms: C_1  and  C_7
REMARK    3  A    between atoms: C_1  and  C_10
REMARK    4  A    between atoms: C_7  and  O_8
REMARK    5  A    between atoms: C_10  and  S_11
REMARK    6  A    between atoms: S_11  and  C_13
REMARK                            x       y       z     vdW  Elec       q    Type
REMARK                         _______ _______ _______ _____ _____    ______ ____
ROOT
ATOM      1  C   UNK     1      36.743 -23.394 -11.822  0.00  0.00    +0.047 C 
ENDROOT
BRANCH   1   2
ATOM      2  N   UNK     1      38.124 -23.802 -11.555  0.00  0.00    +0.389 N 
ATOM      3  H   UNK     1      38.718 -22.974 -11.499  0.00  0.00    -0.088 HD
ATOM      4  H   UNK     1      38.454 -24.405 -12.309  0.00  0.00    -0.088 HD
ATOM      5  H   UNK     1      38.164 -24.310 -10.672  0.00  0.00    -0.088 HD
ENDBRANCH   1   2
BRANCH   1   7
ATOM      6  O   UNK     1      35.946 -24.263  -9.711  0.00  0.00    -0.253 OA
ATOM      7  C   UNK     1      35.841 -24.227 -10.932  0.00  0.00    +0.294 C 
BRANCH   7   8
ATOM      8  O   UNK     1      34.925 -24.959 -11.614  0.00  0.00    -0.482 OA
ATOM      9  H   UNK     1      34.619 -25.772 -11.263  0.00  0.00    +0.295 HD
ENDBRANCH   7   8
ENDBRANCH   1   7
BRANCH   1  10
ATOM     10  C   UNK     1      36.422 -23.576 -13.307  0.00  0.00    +0.054 C 
BRANCH  10  11
ATOM     11  S   UNK     1      37.740 -24.479 -14.183  0.00  0.00    -0.079 S 
BRANCH  11  13
ATOM     12  O   UNK     1      37.083 -26.681 -12.874  0.00  0.00    -0.285 OA
ATOM     13  C   UNK     1      37.174 -26.132 -13.965  0.00  0.00    +0.199 C 
ATOM     14  C   UNK     1      36.814 -26.809 -15.256  0.00  0.00    +0.085 C 
ENDBRANCH  11  13
ENDBRANCH  10  11
ENDBRANCH   1  10
TORSDOF 6
ENDMDL
MODEL 4
REMARK VINA RESULT:      -5.4      2.038      4.932
REMARK  Name = 10130120
REMARK  6 active torsions:
REMARK  status: ('A' for Active; 'I' for Inactive)
REMARK    1  A    between atoms: C_1  and  N_2
REMARK    2  A    between atoms: C_1  and  C_7
REMARK    3  A    between atoms: C_1  and  C_10
REMARK    4  A    between atoms: C_7  and  O_8
REMARK    5  A    between atoms: C_10  and  S_11
REMARK    6  A    between atoms: S_11  and  C_13
REMARK                            x       y       z     vdW  Elec       q    Type
REMARK                         _______ _______ _______ _____ _____    ______ ____
ROOT
ATOM      1  C   UNK     1      36.889 -24.546 -12.269  0.00  0.00    +0.047 C 
ENDROOT
BRANCH   1   2
ATOM      2  N   UNK     1      37.904 -23.888 -11.444  0.00  0.00    +0.389 N 
ATOM      3  H   UNK     1      38.348 -23.143 -11.982  0.00  0.00    -0.088 HD
ATOM      4  H   UNK     1      38.610 -24.570 -11.164  0.00  0.00    -0.088 HD
ATOM      5  H   UNK     1      37.465 -23.493 -10.614  0.00  0.00    -0.088 HD
ENDBRANCH   1   2
BRANCH   1   7
ATOM      6  O   UNK     1      35.329 -25.160 -10.526  0.00  0.00    -0.253 OA
ATOM      7  C   UNK     1      35.574 -24.479 -11.514  0.00  0.00    +0.294 C 
BRANCH   7   8
ATOM      8  O   UNK     1      34.676 -23.619 -12.055  0.00  0.00    -0.482 OA
ATOM      9  H   UNK     1      34.325 -22.920 -11.539  0.00  0.00    +0.295 HD
ENDBRANCH   7   8
ENDBRANCH   1   7
BRANCH   1  10
ATOM     10  C   UNK     1      37.311 -25.984 -12.571  0.00  0.00    +0.054 C 
BRANCH  10  11
ATOM     11  S   UNK     1      37.568 -26.258 -14.354  0.00  0.00    -0.079 S 
BRANCH  11  13
ATOM     12  O   UNK     1      38.818 -24.064 -15.139  0.00  0.00    -0.285 OA
ATOM     13  C   UNK     1      38.927 -25.176 -14.637  0.00  0.00    +0.199 C 
ATOM     14  C   UNK     1      40.244 -25.753 -14.203  0.00  0.00    +0.085 C 
ENDBRANCH  11  13
ENDBRANCH  10  11
ENDBRANCH   1  10
TORSDOF 6
ENDMDL
MODEL 5
REMARK VINA RESULT:      -5.2      2.295      2.634
REMARK  Name = 10130120
REMARK  6 active torsions:
REMARK  status: ('A' for Active; 'I' for Inactive)
REMARK    1  A    between atoms: C_1  and  N_2
REMARK    2  A    between atoms: C_1  and  C_7
REMARK    3  A    between atoms: C_1  and  C_10
REMARK    4  A    between atoms: C_7  and  O_8
REMARK    5  A    between atoms: C_10  and  S_11
REMARK    6  A    between atoms: S_11  and  C_13
REMARK                            x       y       z     vdW  Elec       q    Type
REMARK                         _______ _______ _______ _____ _____    ______ ____
ROOT
ATOM      1  C   UNK     1      38.668 -25.689 -14.496  0.00  0.00    +0.047 C 
ENDROOT
BRANCH   1   2
ATOM      2  N   UNK     1      37.938 -26.939 -14.271  0.00  0.00    +0.389 N 
ATOM      3  H   UNK     1      37.829 -27.433 -15.157  0.00  0.00    -0.088 HD
ATOM      4  H   UNK     1      37.017 -26.730 -13.883  0.00  0.00    -0.088 HD
ATOM      5  H   UNK     1      38.457 -27.523 -13.616  0.00  0.00    -0.088 HD
ENDBRANCH   1   2
BRANCH   1   7
ATOM      6  O   UNK     1      40.907 -26.391 -13.910  0.00  0.00    -0.253 OA
ATOM      7  C   UNK     1      40.113 -26.050 -14.781  0.00  0.00    +0.294 C 
BRANCH   7   8
ATOM      8  O   UNK     1      40.462 -25.927 -16.085  0.00  0.00    -0.482 OA
ATOM      9  H   UNK     1      41.246 -26.330 -16.402  0.00  0.00    +0.295 HD
ENDBRANCH   7   8
ENDBRANCH   1   7
BRANCH   1  10
ATOM     10  C   UNK     1      38.527 -24.774 -13.279  0.00  0.00    +0.054 C 
BRANCH  10  11
ATOM     11  S   UNK     1      37.102 -23.649 -13.434  0.00  0.00    -0.079 S 
BRANCH  11  13
ATOM     12  O   UNK     1      36.109 -24.601 -15.693  0.00  0.00    -0.285 OA
ATOM     13  C   UNK     1      36.819 -23.752 -15.169  0.00  0.00    +0.199 C 
ATOM     14  C   UNK     1      37.542 -22.692 -15.950  0.00  0.00    +0.085 C 
ENDBRANCH  11  13
ENDBRANCH  10  11
ENDBRANCH   1  10
TORSDOF 6
ENDMDL
MODEL 6
REMARK VINA RESULT:      -5.2      2.090      2.295
REMARK  Name = 10130120
REMARK  6 active torsions:
REMARK  status: ('A' for Active; 'I' for Inactive)
REMARK    1  A    between atoms: C_1  and  N_2
REMARK    2  A    between atoms: C_1  and  C_7
REMARK    3  A    between atoms: C_1  and  C_10
REMARK    4  A    between atoms: C_7  and  O_8
REMARK    5  A    between atoms: C_10  and  S_11
REMARK    6  A    between atoms: S_11  and  C_13
REMARK                            x       y       z     vdW  Elec       q    Type
REMARK                         _______ _______ _______ _____ _____    ______ ____
ROOT
ATOM      1  C   UNK     1      38.323 -25.011 -14.214  0.00  0.00    +0.047 C 
ENDROOT
BRANCH   1   2
ATOM      2  N   UNK     1      38.979 -24.606 -15.459  0.00  0.00    +0.389 N 
ATOM      3  H   UNK     1      39.983 -24.517 -15.300  0.00  0.00    -0.088 HD
ATOM      4  H   UNK     1      38.603 -23.707 -15.765  0.00  0.00    -0.088 HD
ATOM      5  H   UNK     1      38.808 -25.308 -16.178  0.00  0.00    -0.088 HD
ENDBRANCH   1   2
BRANCH   1   7
ATOM      6  O   UNK     1      37.252 -27.092 -13.601  0.00  0.00    -0.253 OA
ATOM      7  C   UNK     1      37.595 -26.315 -14.485  0.00  0.00    +0.294 C 
BRANCH   7   8
ATOM      8  O   UNK     1      37.390 -26.563 -15.803  0.00  0.00    -0.482 OA
ATOM      9  H   UNK     1      36.544 -26.833 -16.103  0.00  0.00    +0.295 HD
ENDBRANCH   7   8
ENDBRANCH   1   7
BRANCH   1  10
ATOM     10  C   UNK     1      37.377 -23.908 -13.737  0.00  0.00    +0.054 C 
BRANCH  10  11
ATOM     11  S   UNK     1      37.291 -23.823 -11.919  0.00  0.00    -0.079 S 
BRANCH  11  13
ATOM     12  O   UNK     1      35.353 -25.086 -10.638  0.00  0.00    -0.285 OA
ATOM     13  C   UNK     1      35.684 -24.493 -11.658  0.00  0.00    +0.199 C 
ATOM     14  C   UNK     1      34.754 -24.270 -12.815  0.00  0.00    +0.085 C 
ENDBRANCH  11  13
ENDBRANCH  10  11
ENDBRANCH   1  10
TORSDOF 6
ENDMDL
MODEL 7
REMARK VINA RESULT:      -5.2      2.380      4.388
REMARK  Name = 10130120
REMARK  6 active torsions:
REMARK  status: ('A' for Active; 'I' for Inactive)
REMARK    1  A    between atoms: C_1  and  N_2
REMARK    2  A    between atoms: C_1  and  C_7
REMARK    3  A    between atoms: C_1  and  C_10
REMARK    4  A    between atoms: C_7  and  O_8
REMARK    5  A    between atoms: C_10  and  S_11
REMARK    6  A    between atoms: S_11  and  C_13
REMARK                            x       y       z     vdW  Elec       q    Type
REMARK                         _______ _______ _______ _____ _____    ______ ____
ROOT
ATOM      1  C   UNK     1      35.750 -24.651 -13.083  0.00  0.00    +0.047 C 
ENDROOT
BRANCH   1   2
ATOM      2  N   UNK     1      35.745 -23.189 -12.998  0.00  0.00    +0.389 N 
ATOM      3  H   UNK     1      34.938 -22.822 -13.504  0.00  0.00    -0.088 HD
ATOM      4  H   UNK     1      36.602 -22.821 -13.413  0.00  0.00    -0.088 HD
ATOM      5  H   UNK     1      35.691 -22.905 -12.020  0.00  0.00    -0.088 HD
ENDBRANCH   1   2
BRANCH   1   7
ATOM      6  O   UNK     1      37.142 -24.445 -11.117  0.00  0.00    -0.253 OA
ATOM      7  C   UNK     1      36.629 -25.170 -11.961  0.00  0.00    +0.294 C 
BRANCH   7   8
ATOM      8  O   UNK     1      36.826 -26.512 -11.996  0.00  0.00    -0.482 OA
ATOM      9  H   UNK     1      37.663 -26.857 -12.238  0.00  0.00    +0.295 HD
ENDBRANCH   7   8
ENDBRANCH   1   7
BRANCH   1  10
ATOM     10  C   UNK     1      36.245 -25.094 -14.461  0.00  0.00    +0.054 C 
BRANCH  10  11
ATOM     11  S   UNK     1      37.886 -24.403 -14.848  0.00  0.00    -0.079 S 
BRANCH  11  13
ATOM     12  O   UNK     1      38.411 -26.982 -14.598  0.00  0.00    -0.285 OA
ATOM     13  C   UNK     1      38.873 -25.852 -14.689  0.00  0.00    +0.199 C 
ATOM     14  C   UNK     1      40.347 -25.565 -14.672  0.00  0.00    +0.085 C 
ENDBRANCH  11  13
ENDBRANCH  10  11
ENDBRANCH   1  10
TORSDOF 6
ENDMDL
MODEL 8
REMARK VINA RESULT:      -5.2      2.482      2.666
REMARK  Name = 10130120
REMARK  6 active torsions:
REMARK  status: ('A' for Active; 'I' for Inactive)
REMARK    1  A    between atoms: C_1  and  N_2
REMARK    2  A    between atoms: C_1  and  C_7
REMARK    3  A    between atoms: C_1  and  C_10
REMARK    4  A    between atoms: C_7  and  O_8
REMARK    5  A    between atoms: C_10  and  S_11
REMARK    6  A    between atoms: S_11  and  C_13
REMARK                            x       y       z     vdW  Elec       q    Type
REMARK                         _______ _______ _______ _____ _____    ______ ____
ROOT
ATOM      1  C   UNK     1      36.724 -25.676 -14.458  0.00  0.00    +0.047 C 
ENDROOT
BRANCH   1   2
ATOM      2  N   UNK     1      35.314 -25.672 -14.852  0.00  0.00    +0.389 N 
ATOM      3  H   UNK     1      35.119 -26.491 -15.428  0.00  0.00    -0.088 HD
ATOM      4  H   UNK     1      35.112 -24.826 -15.386  0.00  0.00    -0.088 HD
ATOM      5  H   UNK     1      34.727 -25.694 -14.018  0.00  0.00    -0.088 HD
ENDBRANCH   1   2
BRANCH   1   7
ATOM      6  O   UNK     1      38.428 -27.365 -14.765  0.00  0.00    -0.253 OA
ATOM      7  C   UNK     1      37.391 -26.845 -15.159  0.00  0.00    +0.294 C 
BRANCH   7   8
ATOM      8  O   UNK     1      36.752 -27.243 -16.287  0.00  0.00    -0.482 OA
ATOM      9  H   UNK     1      35.820 -27.341 -16.289  0.00  0.00    +0.295 HD
ENDBRANCH   7   8
ENDBRANCH   1   7
BRANCH   1  10
ATOM     10  C   UNK     1      36.842 -25.770 -12.935  0.00  0.00    +0.054 C 
BRANCH  10  11
ATOM     11  S   UNK     1      38.041 -24.570 -12.271  0.00  0.00    -0.079 S 
BRANCH  11  13
ATOM     12  O   UNK     1      37.302 -22.329 -11.077  0.00  0.00    -0.285 OA
ATOM     13  C   UNK     1      36.937 -23.381 -11.587  0.00  0.00    +0.199 C 
ATOM     14  C   UNK     1      35.494 -23.787 -11.687  0.00  0.00    +0.085 C 
ENDBRANCH  11  13
ENDBRANCH  10  11
ENDBRANCH   1  10
TORSDOF 6
ENDMDL
MODEL 9
REMARK VINA RESULT:      -5.1      9.099     10.790
REMARK  Name = 10130120
REMARK  6 active torsions:
REMARK  status: ('A' for Active; 'I' for Inactive)
REMARK    1  A    between atoms: C_1  and  N_2
REMARK    2  A    between atoms: C_1  and  C_7
REMARK    3  A    between atoms: C_1  and  C_10
REMARK    4  A    between atoms: C_7  and  O_8
REMARK    5  A    between atoms: C_10  and  S_11
REMARK    6  A    between atoms: S_11  and  C_13
REMARK                            x       y       z     vdW  Elec       q    Type
REMARK                         _______ _______ _______ _____ _____    ______ ____
ROOT
ATOM      1  C   UNK     1      27.808 -22.890 -16.123  0.00  0.00    +0.047 C 
ENDROOT
BRANCH   1   2
ATOM      2  N   UNK     1      28.428 -23.173 -17.419  0.00  0.00    +0.389 N 
ATOM      3  H   UNK     1      27.851 -22.782 -18.164  0.00  0.00    -0.088 HD
ATOM      4  H   UNK     1      28.507 -24.183 -17.546  0.00  0.00    -0.088 HD
ATOM      5  H   UNK     1      29.356 -22.753 -17.451  0.00  0.00    -0.088 HD
ENDBRANCH   1   2
BRANCH   1   7
ATOM      6  O   UNK     1      25.571 -22.059 -15.727  0.00  0.00    -0.253 OA
ATOM      7  C   UNK     1      26.609 -21.995 -16.376  0.00  0.00    +0.294 C 
BRANCH   7   8
ATOM      8  O   UNK     1      26.776 -21.137 -17.413  0.00  0.00    -0.482 OA
ATOM      9  H   UNK     1      27.637 -20.862 -17.661  0.00  0.00    +0.295 HD
ENDBRANCH   7   8
ENDBRANCH   1   7
BRANCH   1  10
ATOM     10  C   UNK     1      28.828 -22.243 -15.185  0.00  0.00    +0.054 C 
BRANCH  10  11
ATOM     11  S   UNK     1      30.494 -22.948 -15.400  0.00  0.00    -0.079 S 
BRANCH  11  13
ATOM     12  O   UNK     1      30.697 -24.080 -13.019  0.00  0.00    -0.285 OA
ATOM     13  C   UNK     1      30.436 -24.239 -14.205  0.00  0.00    +0.199 C 
ATOM     14  C   UNK     1      30.037 -25.566 -14.786  0.00  0.00    +0.085 C 
ENDBRANCH  11  13
ENDBRANCH  10  11
ENDBRANCH   1  10
TORSDOF 6
ENDMDL
