MODEL 1
REMARK VINA RESULT:     -10.0      0.000      0.000
REMARK  Name = 449193
REMARK  7 active torsions:
REMARK  status: ('A' for Active; 'I' for Inactive)
REMARK    1  A    between atoms: C_1  and  O_19
REMARK    2  A    between atoms: C_2  and  O_24
REMARK    3  A    between atoms: C_4  and  C_9
REMARK    4  A    between atoms: N_8  and  C_14
REMARK    5  A    between atoms: O_19  and  C_20
REMARK    6  A    between atoms: C_20  and  C_21
REMARK    7  A    between atoms: O_24  and  C_27
REMARK                            x       y       z     vdW  Elec       q    Type
REMARK                         _______ _______ _______ _____ _____    ______ ____
ROOT
ATOM      1  C   UNL     1      32.564 -10.331 -22.983  0.00  0.00    +0.173 C 
ATOM      2  C   UNL     1      31.848  -9.867 -21.880  0.00  0.00    +0.178 C 
ATOM      3  C   UNL     1      32.825 -11.694 -23.122  0.00  0.00    +0.045 C 
ATOM      4  C   UNL     1      32.370 -12.593 -22.158  0.00  0.00    +0.057 C 
ATOM      5  C   UNL     1      31.393 -10.765 -20.915  0.00  0.00    +0.040 C 
ATOM      6  C   UNL     1      31.654 -12.128 -21.055  0.00  0.00    +0.008 C 
ENDROOT
BRANCH   4   9
ATOM      7  O   UNL     1      31.925 -14.830 -21.700  0.00  0.00    -0.270 OA
ATOM      8  N   UNL     1      33.706 -14.350 -23.150  0.00  0.00    -0.279 N 
ATOM      9  C   UNL     1      32.642 -14.014 -22.302  0.00  0.00    +0.250 C 
ATOM     10  H   UNL     1      34.185 -13.591 -23.557  0.00  0.00    +0.155 HD
BRANCH   8  14
ATOM     11 CL   UNL     1      33.367 -15.132 -26.061  0.00  0.00    -0.079 Cl
ATOM     12 CL   UNL     1      34.931 -15.953 -20.885  0.00  0.00    -0.079 Cl
ATOM     13  N   UNL     1      35.124 -18.162 -24.183  0.00  0.00    -0.240 NA
ATOM     14  C   UNL     1      34.184 -15.637 -23.499  0.00  0.00    +0.075 C 
ATOM     15  C   UNL     1      34.071 -16.076 -24.805  0.00  0.00    +0.091 C 
ATOM     16  C   UNL     1      34.758 -16.438 -22.528  0.00  0.00    +0.091 C 
ATOM     17  C   UNL     1      34.554 -17.342 -25.095  0.00  0.00    +0.112 C 
ATOM     18  C   UNL     1      35.211 -17.687 -22.920  0.00  0.00    +0.112 C 
ENDBRANCH   8  14
ENDBRANCH   4   9
BRANCH   1  19
ATOM     19  O   UNL     1      33.014  -9.462 -23.931  0.00  0.00    -0.472 OA
BRANCH  19  20
ATOM     20  C   UNL     1      34.404  -9.143 -23.910  0.00  0.00    +0.205 C 
BRANCH  20  21
ATOM     21  C   UNL     1      34.577  -7.683 -23.664  0.00  0.00    +0.044 C 
ATOM     22  C   UNL     1      34.661  -6.754 -24.835  0.00  0.00    +0.004 C 
ATOM     23  C   UNL     1      33.441  -6.757 -23.964  0.00  0.00    +0.004 C 
ENDBRANCH  20  21
ENDBRANCH  19  20
ENDBRANCH   1  19
BRANCH   2  24
ATOM     24  O   UNL     1      31.586  -8.538 -21.734  0.00  0.00    -0.421 OA
BRANCH  24  27
ATOM     25  F   UNL     1      33.460  -7.972 -20.637  0.00  0.00    -0.155 F 
ATOM     26  F   UNL     1      31.792  -6.575 -20.625  0.00  0.00    -0.155 F 
ATOM     27  C   UNL     1      32.105  -7.893 -20.577  0.00  0.00    +0.509 C 
ENDBRANCH  24  27
ENDBRANCH   2  24
TORSDOF 7
ENDMDL
MODEL 2
REMARK VINA RESULT:     -10.0      7.353     11.557
REMARK  Name = 449193
REMARK  7 active torsions:
REMARK  status: ('A' for Active; 'I' for Inactive)
REMARK    1  A    between atoms: C_1  and  O_19
REMARK    2  A    between atoms: C_2  and  O_24
REMARK    3  A    between atoms: C_4  and  C_9
REMARK    4  A    between atoms: N_8  and  C_14
REMARK    5  A    between atoms: O_19  and  C_20
REMARK    6  A    between atoms: C_20  and  C_21
REMARK    7  A    between atoms: O_24  and  C_27
REMARK                            x       y       z     vdW  Elec       q    Type
REMARK                         _______ _______ _______ _____ _____    ______ ____
ROOT
ATOM      1  C   UNL     1      35.806 -21.926 -18.550  0.00  0.00    +0.173 C 
ATOM      2  C   UNL     1      34.494 -22.398 -18.542  0.00  0.00    +0.178 C 
ATOM      3  C   UNL     1      36.165 -20.875 -19.395  0.00  0.00    +0.045 C 
ATOM      4  C   UNL     1      35.210 -20.297 -20.231  0.00  0.00    +0.057 C 
ATOM      5  C   UNL     1      33.539 -21.820 -19.379  0.00  0.00    +0.040 C 
ATOM      6  C   UNL     1      33.898 -20.769 -20.223  0.00  0.00    +0.008 C 
ENDROOT
BRANCH   4   9
ATOM      7  O   UNL     1      36.782 -18.899 -21.226  0.00  0.00    -0.270 OA
ATOM      8  N   UNL     1      34.529 -18.581 -21.797  0.00  0.00    -0.279 N 
ATOM      9  C   UNL     1      35.583 -19.202 -21.113  0.00  0.00    +0.250 C 
ATOM     10  H   UNL     1      33.629 -18.930 -21.603  0.00  0.00    +0.155 HD
BRANCH   8  14
ATOM     11 CL   UNL     1      34.633 -19.397 -24.716  0.00  0.00    -0.079 Cl
ATOM     12 CL   UNL     1      34.534 -15.792 -20.605  0.00  0.00    -0.079 Cl
ATOM     13  N   UNL     1      34.702 -15.426 -24.559  0.00  0.00    -0.240 NA
ATOM     14  C   UNL     1      34.588 -17.516 -22.730  0.00  0.00    +0.075 C 
ATOM     15  C   UNL     1      34.638 -17.796 -24.082  0.00  0.00    +0.091 C 
ATOM     16  C   UNL     1      34.595 -16.210 -22.274  0.00  0.00    +0.091 C 
ATOM     17  C   UNL     1      34.694 -16.720 -24.953  0.00  0.00    +0.112 C 
ATOM     18  C   UNL     1      34.652 -15.205 -23.226  0.00  0.00    +0.112 C 
ENDBRANCH   8  14
ENDBRANCH   4   9
BRANCH   1  19
ATOM     19  O   UNL     1      36.747 -22.483 -17.738  0.00  0.00    -0.472 OA
BRANCH  19  20
ATOM     20  C   UNL     1      36.977 -21.847 -16.482  0.00  0.00    +0.205 C 
BRANCH  20  21
ATOM     21  C   UNL     1      37.548 -22.833 -15.521  0.00  0.00    +0.044 C 
ATOM     22  C   UNL     1      36.797 -23.141 -14.263  0.00  0.00    +0.004 C 
ATOM     23  C   UNL     1      36.878 -24.162 -15.360  0.00  0.00    +0.004 C 
ENDBRANCH  20  21
ENDBRANCH  19  20
ENDBRANCH   1  19
BRANCH   2  24
ATOM     24  O   UNL     1      34.132 -23.422 -17.721  0.00  0.00    -0.421 OA
BRANCH  24  27
ATOM     25  F   UNL     1      32.054 -23.441 -16.874  0.00  0.00    -0.155 F 
ATOM     26  F   UNL     1      33.718 -23.877 -15.542  0.00  0.00    -0.155 F 
ATOM     27  C   UNL     1      33.338 -23.100 -16.586  0.00  0.00    +0.509 C 
ENDBRANCH  24  27
ENDBRANCH   2  24
TORSDOF 7
ENDMDL
MODEL 3
REMARK VINA RESULT:     -10.0      0.055      1.776
REMARK  Name = 449193
REMARK  7 active torsions:
REMARK  status: ('A' for Active; 'I' for Inactive)
REMARK    1  A    between atoms: C_1  and  O_19
REMARK    2  A    between atoms: C_2  and  O_24
REMARK    3  A    between atoms: C_4  and  C_9
REMARK    4  A    between atoms: N_8  and  C_14
REMARK    5  A    between atoms: O_19  and  C_20
REMARK    6  A    between atoms: C_20  and  C_21
REMARK    7  A    between atoms: O_24  and  C_27
REMARK                            x       y       z     vdW  Elec       q    Type
REMARK                         _______ _______ _______ _____ _____    ______ ____
ROOT
ATOM      1  C   UNL     1      32.577 -10.291 -23.012  0.00  0.00    +0.173 C 
ATOM      2  C   UNL     1      31.845  -9.822 -21.921  0.00  0.00    +0.178 C 
ATOM      3  C   UNL     1      32.837 -11.655 -23.143  0.00  0.00    +0.045 C 
ATOM      4  C   UNL     1      32.364 -12.550 -22.184  0.00  0.00    +0.057 C 
ATOM      5  C   UNL     1      31.371 -10.717 -20.962  0.00  0.00    +0.040 C 
ATOM      6  C   UNL     1      31.631 -12.082 -21.094  0.00  0.00    +0.008 C 
ENDROOT
BRANCH   4   9
ATOM      7  O   UNL     1      31.916 -14.785 -21.716  0.00  0.00    -0.270 OA
ATOM      8  N   UNL     1      33.701 -14.314 -23.164  0.00  0.00    -0.279 N 
ATOM      9  C   UNL     1      32.635 -13.973 -22.320  0.00  0.00    +0.250 C 
ATOM     10  H   UNL     1      34.181 -13.558 -23.574  0.00  0.00    +0.155 HD
BRANCH   8  14
ATOM     11 CL   UNL     1      34.915 -15.909 -20.888  0.00  0.00    -0.079 Cl
ATOM     12 CL   UNL     1      33.370 -15.108 -26.073  0.00  0.00    -0.079 Cl
ATOM     13  N   UNL     1      35.113 -18.134 -24.175  0.00  0.00    -0.240 NA
ATOM     14  C   UNL     1      34.178 -15.604 -23.505  0.00  0.00    +0.075 C 
ATOM     15  C   UNL     1      34.747 -16.400 -22.529  0.00  0.00    +0.091 C 
ATOM     16  C   UNL     1      34.068 -16.048 -24.810  0.00  0.00    +0.091 C 
ATOM     17  C   UNL     1      35.198 -17.653 -22.914  0.00  0.00    +0.112 C 
ATOM     18  C   UNL     1      34.549 -17.317 -25.092  0.00  0.00    +0.112 C 
ENDBRANCH   8  14
ENDBRANCH   4   9
BRANCH   1  19
ATOM     19  O   UNL     1      33.045  -9.426 -23.954  0.00  0.00    -0.472 OA
BRANCH  19  20
ATOM     20  C   UNL     1      34.429  -9.087 -23.894  0.00  0.00    +0.205 C 
BRANCH  20  21
ATOM     21  C   UNL     1      34.574  -7.619 -23.681  0.00  0.00    +0.044 C 
ATOM     22  C   UNL     1      34.646  -6.716 -24.872  0.00  0.00    +0.004 C 
ATOM     23  C   UNL     1      33.422  -6.721 -24.004  0.00  0.00    +0.004 C 
ENDBRANCH  20  21
ENDBRANCH  19  20
ENDBRANCH   1  19
BRANCH   2  24
ATOM     24  O   UNL     1      31.583  -8.492 -21.783  0.00  0.00    -0.421 OA
BRANCH  24  27
ATOM     25  F   UNL     1      33.446  -7.989 -20.639  0.00  0.00    -0.155 F 
ATOM     26  F   UNL     1      31.851  -6.513 -20.718  0.00  0.00    -0.155 F 
ATOM     27  C   UNL     1      32.096  -7.843 -20.626  0.00  0.00    +0.509 C 
ENDBRANCH  24  27
ENDBRANCH   2  24
TORSDOF 7
ENDMDL
MODEL 4
REMARK VINA RESULT:     -10.0      7.354     11.645
REMARK  Name = 449193
REMARK  7 active torsions:
REMARK  status: ('A' for Active; 'I' for Inactive)
REMARK    1  A    between atoms: C_1  and  O_19
REMARK    2  A    between atoms: C_2  and  O_24
REMARK    3  A    between atoms: C_4  and  C_9
REMARK    4  A    between atoms: N_8  and  C_14
REMARK    5  A    between atoms: O_19  and  C_20
REMARK    6  A    between atoms: C_20  and  C_21
REMARK    7  A    between atoms: O_24  and  C_27
REMARK                            x       y       z     vdW  Elec       q    Type
REMARK                         _______ _______ _______ _____ _____    ______ ____
ROOT
ATOM      1  C   UNL     1      35.803 -21.938 -18.558  0.00  0.00    +0.173 C 
ATOM      2  C   UNL     1      34.493 -22.416 -18.559  0.00  0.00    +0.178 C 
ATOM      3  C   UNL     1      36.162 -20.884 -19.400  0.00  0.00    +0.045 C 
ATOM      4  C   UNL     1      35.209 -20.310 -20.242  0.00  0.00    +0.057 C 
ATOM      5  C   UNL     1      33.540 -21.841 -19.400  0.00  0.00    +0.040 C 
ATOM      6  C   UNL     1      33.899 -20.788 -20.242  0.00  0.00    +0.008 C 
ENDROOT
BRANCH   4   9
ATOM      7  O   UNL     1      36.782 -18.912 -21.234  0.00  0.00    -0.270 OA
ATOM      8  N   UNL     1      34.528 -18.588 -21.801  0.00  0.00    -0.279 N 
ATOM      9  C   UNL     1      35.583 -19.213 -21.120  0.00  0.00    +0.250 C 
ATOM     10  H   UNL     1      33.628 -18.937 -21.607  0.00  0.00    +0.155 HD
BRANCH   8  14
ATOM     11 CL   UNL     1      34.535 -15.802 -20.601  0.00  0.00    -0.079 Cl
ATOM     12 CL   UNL     1      34.632 -19.396 -24.722  0.00  0.00    -0.079 Cl
ATOM     13  N   UNL     1      34.706 -15.425 -24.553  0.00  0.00    -0.240 NA
ATOM     14  C   UNL     1      34.588 -17.520 -22.730  0.00  0.00    +0.075 C 
ATOM     15  C   UNL     1      34.596 -16.216 -22.271  0.00  0.00    +0.091 C 
ATOM     16  C   UNL     1      34.638 -17.796 -24.084  0.00  0.00    +0.091 C 
ATOM     17  C   UNL     1      34.655 -15.208 -23.220  0.00  0.00    +0.112 C 
ATOM     18  C   UNL     1      34.696 -16.717 -24.951  0.00  0.00    +0.112 C 
ENDBRANCH   8  14
ENDBRANCH   4   9
BRANCH   1  19
ATOM     19  O   UNL     1      36.741 -22.491 -17.741  0.00  0.00    -0.472 OA
BRANCH  19  20
ATOM     20  C   UNL     1      36.970 -21.848 -16.489  0.00  0.00    +0.205 C 
BRANCH  20  21
ATOM     21  C   UNL     1      37.539 -22.829 -15.522  0.00  0.00    +0.044 C 
ATOM     22  C   UNL     1      36.775 -23.145 -14.273  0.00  0.00    +0.004 C 
ATOM     23  C   UNL     1      36.881 -24.164 -15.369  0.00  0.00    +0.004 C 
ENDBRANCH  20  21
ENDBRANCH  19  20
ENDBRANCH   1  19
BRANCH   2  24
ATOM     24  O   UNL     1      34.130 -23.443 -17.740  0.00  0.00    -0.421 OA
BRANCH  24  27
ATOM     25  F   UNL     1      32.048 -23.406 -16.905  0.00  0.00    -0.155 F 
ATOM     26  F   UNL     1      33.686 -23.942 -15.577  0.00  0.00    -0.155 F 
ATOM     27  C   UNL     1      33.342 -23.123 -16.600  0.00  0.00    +0.509 C 
ENDBRANCH  24  27
ENDBRANCH   2  24
TORSDOF 7
ENDMDL
MODEL 5
REMARK VINA RESULT:      -9.7      7.358     11.570
REMARK  Name = 449193
REMARK  7 active torsions:
REMARK  status: ('A' for Active; 'I' for Inactive)
REMARK    1  A    between atoms: C_1  and  O_19
REMARK    2  A    between atoms: C_2  and  O_24
REMARK    3  A    between atoms: C_4  and  C_9
REMARK    4  A    between atoms: N_8  and  C_14
REMARK    5  A    between atoms: O_19  and  C_20
REMARK    6  A    between atoms: C_20  and  C_21
REMARK    7  A    between atoms: O_24  and  C_27
REMARK                            x       y       z     vdW  Elec       q    Type
REMARK                         _______ _______ _______ _____ _____    ______ ____
ROOT
ATOM      1  C   UNL     1      34.303 -22.312 -18.493  0.00  0.00    +0.173 C 
ATOM      2  C   UNL     1      35.642 -22.218 -18.116  0.00  0.00    +0.178 C 
ATOM      3  C   UNL     1      33.804 -21.495 -19.508  0.00  0.00    +0.045 C 
ATOM      4  C   UNL     1      34.646 -20.584 -20.146  0.00  0.00    +0.057 C 
ATOM      5  C   UNL     1      36.484 -21.307 -18.755  0.00  0.00    +0.040 C 
ATOM      6  C   UNL     1      35.985 -20.490 -19.770  0.00  0.00    +0.008 C 
ENDROOT
BRANCH   4   9
ATOM      7  O   UNL     1      32.926 -19.815 -21.512  0.00  0.00    -0.270 OA
ATOM      8  N   UNL     1      35.046 -18.847 -21.784  0.00  0.00    -0.279 N 
ATOM      9  C   UNL     1      34.126 -19.732 -21.204  0.00  0.00    +0.250 C 
ATOM     10  H   UNL     1      35.966 -18.897 -21.435  0.00  0.00    +0.155 HD
BRANCH   8  14
ATOM     11 CL   UNL     1      34.928 -19.949 -24.608  0.00  0.00    -0.079 Cl
ATOM     12 CL   UNL     1      34.757 -15.975 -20.854  0.00  0.00    -0.079 Cl
ATOM     13  N   UNL     1      34.395 -16.016 -24.811  0.00  0.00    -0.240 NA
ATOM     14  C   UNL     1      34.827 -17.891 -22.806  0.00  0.00    +0.075 C 
ATOM     15  C   UNL     1      34.758 -18.305 -24.123  0.00  0.00    +0.091 C 
ATOM     16  C   UNL     1      34.684 -16.557 -22.473  0.00  0.00    +0.091 C 
ATOM     17  C   UNL     1      34.542 -17.332 -25.086  0.00  0.00    +0.112 C 
ATOM     18  C   UNL     1      34.470 -15.662 -23.509  0.00  0.00    +0.112 C 
ENDBRANCH   8  14
ENDBRANCH   4   9
BRANCH   1  19
ATOM     19  O   UNL     1      33.472 -23.197 -17.876  0.00  0.00    -0.472 OA
BRANCH  19  20
ATOM     20  C   UNL     1      32.293 -22.668 -17.273  0.00  0.00    +0.205 C 
BRANCH  20  21
ATOM     21  C   UNL     1      31.955 -23.460 -16.057  0.00  0.00    +0.044 C 
ATOM     22  C   UNL     1      32.828 -23.341 -14.846  0.00  0.00    +0.004 C 
ATOM     23  C   UNL     1      31.450 -22.747 -14.842  0.00  0.00    +0.004 C 
ENDBRANCH  20  21
ENDBRANCH  19  20
ENDBRANCH   1  19
BRANCH   2  24
ATOM     24  O   UNL     1      36.141 -23.011 -17.128  0.00  0.00    -0.421 OA
BRANCH  24  27
ATOM     25  F   UNL     1      36.273 -22.589 -14.928  0.00  0.00    -0.155 F 
ATOM     26  F   UNL     1      38.112 -22.998 -16.014  0.00  0.00    -0.155 F 
ATOM     27  C   UNL     1      36.909 -22.381 -16.110  0.00  0.00    +0.509 C 
ENDBRANCH  24  27
ENDBRANCH   2  24
TORSDOF 7
ENDMDL
MODEL 6
REMARK VINA RESULT:      -9.7      7.220     11.547
REMARK  Name = 449193
REMARK  7 active torsions:
REMARK  status: ('A' for Active; 'I' for Inactive)
REMARK    1  A    between atoms: C_1  and  O_19
REMARK    2  A    between atoms: C_2  and  O_24
REMARK    3  A    between atoms: C_4  and  C_9
REMARK    4  A    between atoms: N_8  and  C_14
REMARK    5  A    between atoms: O_19  and  C_20
REMARK    6  A    between atoms: C_20  and  C_21
REMARK    7  A    between atoms: O_24  and  C_27
REMARK                            x       y       z     vdW  Elec       q    Type
REMARK                         _______ _______ _______ _____ _____    ______ ____
ROOT
ATOM      1  C   UNL     1      34.700 -22.208 -18.579  0.00  0.00    +0.173 C 
ATOM      2  C   UNL     1      36.050 -22.044 -18.267  0.00  0.00    +0.178 C 
ATOM      3  C   UNL     1      34.112 -21.416 -19.566  0.00  0.00    +0.045 C 
ATOM      4  C   UNL     1      34.874 -20.461 -20.239  0.00  0.00    +0.057 C 
ATOM      5  C   UNL     1      36.812 -21.090 -18.940  0.00  0.00    +0.040 C 
ATOM      6  C   UNL     1      36.223 -20.298 -19.926  0.00  0.00    +0.008 C 
ENDROOT
BRANCH   4   9
ATOM      7  O   UNL     1      33.041 -19.738 -21.477  0.00  0.00    -0.270 OA
ATOM      8  N   UNL     1      35.120 -18.750 -21.934  0.00  0.00    -0.279 N 
ATOM      9  C   UNL     1      34.261 -19.634 -21.267  0.00  0.00    +0.250 C 
ATOM     10  H   UNL     1      36.065 -18.783 -21.658  0.00  0.00    +0.155 HD
BRANCH   8  14
ATOM     11 CL   UNL     1      34.752 -15.882 -21.017  0.00  0.00    -0.079 Cl
ATOM     12 CL   UNL     1      34.909 -19.888 -24.737  0.00  0.00    -0.079 Cl
ATOM     13  N   UNL     1      34.196 -15.984 -24.951  0.00  0.00    -0.240 NA
ATOM     14  C   UNL     1      34.807 -17.816 -22.952  0.00  0.00    +0.075 C 
ATOM     15  C   UNL     1      34.623 -16.486 -22.625  0.00  0.00    +0.091 C 
ATOM     16  C   UNL     1      34.692 -18.248 -24.261  0.00  0.00    +0.091 C 
ATOM     17  C   UNL     1      34.320 -15.612 -23.657  0.00  0.00    +0.112 C 
ATOM     18  C   UNL     1      34.386 -17.295 -25.220  0.00  0.00    +0.112 C 
ENDBRANCH   8  14
ENDBRANCH   4   9
BRANCH   1  19
ATOM     19  O   UNL     1      33.947 -23.137 -17.928  0.00  0.00    -0.472 OA
BRANCH  19  20
ATOM     20  C   UNL     1      32.622 -22.756 -17.562  0.00  0.00    +0.205 C 
BRANCH  20  21
ATOM     21  C   UNL     1      32.182 -23.555 -16.383  0.00  0.00    +0.044 C 
ATOM     22  C   UNL     1      32.766 -23.249 -15.039  0.00  0.00    +0.004 C 
ATOM     23  C   UNL     1      31.338 -22.899 -15.336  0.00  0.00    +0.004 C 
ENDBRANCH  20  21
ENDBRANCH  19  20
ENDBRANCH   1  19
BRANCH   2  24
ATOM     24  O   UNL     1      36.636 -22.812 -17.306  0.00  0.00    -0.421 OA
BRANCH  24  27
ATOM     25  F   UNL     1      35.846 -22.082 -15.337  0.00  0.00    -0.155 F 
ATOM     26  F   UNL     1      37.829 -22.975 -15.389  0.00  0.00    -0.155 F 
ATOM     27  C   UNL     1      36.979 -22.177 -16.081  0.00  0.00    +0.509 C 
ENDBRANCH  24  27
ENDBRANCH   2  24
TORSDOF 7
ENDMDL
MODEL 7
REMARK VINA RESULT:      -9.6     11.335     14.197
REMARK  Name = 449193
REMARK  7 active torsions:
REMARK  status: ('A' for Active; 'I' for Inactive)
REMARK    1  A    between atoms: C_1  and  O_19
REMARK    2  A    between atoms: C_2  and  O_24
REMARK    3  A    between atoms: C_4  and  C_9
REMARK    4  A    between atoms: N_8  and  C_14
REMARK    5  A    between atoms: O_19  and  C_20
REMARK    6  A    between atoms: C_20  and  C_21
REMARK    7  A    between atoms: O_24  and  C_27
REMARK                            x       y       z     vdW  Elec       q    Type
REMARK                         _______ _______ _______ _____ _____    ______ ____
ROOT
ATOM      1  C   UNL     1      32.136 -22.964 -16.799  0.00  0.00    +0.173 C 
ATOM      2  C   UNL     1      30.878 -22.852 -16.208  0.00  0.00    +0.178 C 
ATOM      3  C   UNL     1      33.214 -23.454 -16.060  0.00  0.00    +0.045 C 
ATOM      4  C   UNL     1      33.031 -23.832 -14.729  0.00  0.00    +0.057 C 
ATOM      5  C   UNL     1      30.696 -23.230 -14.877  0.00  0.00    +0.040 C 
ATOM      6  C   UNL     1      31.773 -23.720 -14.138  0.00  0.00    +0.008 C 
ENDROOT
BRANCH   4   9
ATOM      7  O   UNL     1      33.978 -24.653 -12.768  0.00  0.00    -0.270 OA
ATOM      8  N   UNL     1      35.367 -24.462 -14.650  0.00  0.00    -0.279 N 
ATOM      9  C   UNL     1      34.154 -24.341 -13.958  0.00  0.00    +0.250 C 
ATOM     10  H   UNL     1      35.353 -24.173 -15.592  0.00  0.00    +0.155 HD
BRANCH   8  14
ATOM     11 CL   UNL     1      36.384 -26.997 -15.970  0.00  0.00    -0.079 Cl
ATOM     12 CL   UNL     1      36.654 -22.822 -12.446  0.00  0.00    -0.079 Cl
ATOM     13  N   UNL     1      39.051 -25.892 -13.238  0.00  0.00    -0.240 NA
ATOM     14  C   UNL     1      36.611 -24.945 -14.173  0.00  0.00    +0.075 C 
ATOM     15  C   UNL     1      37.150 -26.095 -14.719  0.00  0.00    +0.091 C 
ATOM     16  C   UNL     1      37.269 -24.260 -13.168  0.00  0.00    +0.091 C 
ATOM     17  C   UNL     1      38.368 -26.526 -14.218  0.00  0.00    +0.112 C 
ATOM     18  C   UNL     1      38.482 -24.772 -12.738  0.00  0.00    +0.112 C 
ENDBRANCH   8  14
ENDBRANCH   4   9
BRANCH   1  19
ATOM     19  O   UNL     1      32.326 -22.598 -18.097  0.00  0.00    -0.472 OA
BRANCH  19  20
ATOM     20  C   UNL     1      33.670 -22.378 -18.519  0.00  0.00    +0.205 C 
BRANCH  20  21
ATOM     21  C   UNL     1      33.673 -21.788 -19.887  0.00  0.00    +0.044 C 
ATOM     22  C   UNL     1      33.069 -20.433 -20.095  0.00  0.00    +0.004 C 
ATOM     23  C   UNL     1      34.556 -20.613 -20.170  0.00  0.00    +0.004 C 
ENDBRANCH  20  21
ENDBRANCH  19  20
ENDBRANCH   1  19
BRANCH   2  24
ATOM     24  O   UNL     1      29.818 -22.377 -16.919  0.00  0.00    -0.421 OA
BRANCH  24  27
ATOM     25  F   UNL     1      27.870 -22.009 -15.869  0.00  0.00    -0.155 F 
ATOM     26  F   UNL     1      27.836 -23.054 -17.777  0.00  0.00    -0.155 F 
ATOM     27  C   UNL     1      28.537 -22.920 -16.625  0.00  0.00    +0.509 C 
ENDBRANCH  24  27
ENDBRANCH   2  24
TORSDOF 7
ENDMDL
MODEL 8
REMARK VINA RESULT:      -9.5      1.506      2.729
REMARK  Name = 449193
REMARK  7 active torsions:
REMARK  status: ('A' for Active; 'I' for Inactive)
REMARK    1  A    between atoms: C_1  and  O_19
REMARK    2  A    between atoms: C_2  and  O_24
REMARK    3  A    between atoms: C_4  and  C_9
REMARK    4  A    between atoms: N_8  and  C_14
REMARK    5  A    between atoms: O_19  and  C_20
REMARK    6  A    between atoms: C_20  and  C_21
REMARK    7  A    between atoms: O_24  and  C_27
REMARK                            x       y       z     vdW  Elec       q    Type
REMARK                         _______ _______ _______ _____ _____    ______ ____
ROOT
ATOM      1  C   UNL     1      32.396 -10.347 -22.763  0.00  0.00    +0.173 C 
ATOM      2  C   UNL     1      33.222  -9.888 -23.789  0.00  0.00    +0.178 C 
ATOM      3  C   UNL     1      32.375 -11.703 -22.437  0.00  0.00    +0.045 C 
ATOM      4  C   UNL     1      33.182 -12.600 -23.138  0.00  0.00    +0.057 C 
ATOM      5  C   UNL     1      34.028 -10.785 -24.489  0.00  0.00    +0.040 C 
ATOM      6  C   UNL     1      34.008 -12.141 -24.163  0.00  0.00    +0.008 C 
ENDROOT
BRANCH   4   9
ATOM      7  O   UNL     1      32.114 -14.513 -22.354  0.00  0.00    -0.270 OA
ATOM      8  N   UNL     1      34.351 -14.718 -23.034  0.00  0.00    -0.279 N 
ATOM      9  C   UNL     1      33.161 -14.015 -22.799  0.00  0.00    +0.250 C 
ATOM     10  H   UNL     1      35.099 -14.185 -23.389  0.00  0.00    +0.155 HD
BRANCH   8  14
ATOM     11 CL   UNL     1      34.454 -16.427 -25.537  0.00  0.00    -0.079 Cl
ATOM     12 CL   UNL     1      34.743 -15.557 -20.145  0.00  0.00    -0.079 Cl
ATOM     13  N   UNL     1      35.145 -18.792 -22.419  0.00  0.00    -0.240 NA
ATOM     14  C   UNL     1      34.618 -16.093 -22.826  0.00  0.00    +0.075 C 
ATOM     15  C   UNL     1      34.684 -16.946 -23.912  0.00  0.00    +0.091 C 
ATOM     16  C   UNL     1      34.810 -16.564 -21.541  0.00  0.00    +0.091 C 
ATOM     17  C   UNL     1      34.949 -18.282 -23.657  0.00  0.00    +0.112 C 
ATOM     18  C   UNL     1      35.070 -17.917 -21.391  0.00  0.00    +0.112 C 
ENDBRANCH   8  14
ENDBRANCH   4   9
BRANCH   1  19
ATOM     19  O   UNL     1      31.604  -9.480 -22.073  0.00  0.00    -0.472 OA
BRANCH  19  20
ATOM     20  C   UNL     1      31.991  -9.173 -20.735  0.00  0.00    +0.205 C 
BRANCH  20  21
ATOM     21  C   UNL     1      32.757  -7.895 -20.718  0.00  0.00    +0.044 C 
ATOM     22  C   UNL     1      32.191  -6.699 -21.419  0.00  0.00    +0.004 C 
ATOM     23  C   UNL     1      32.231  -6.743 -19.920  0.00  0.00    +0.004 C 
ENDBRANCH  20  21
ENDBRANCH  19  20
ENDBRANCH   1  19
BRANCH   2  24
ATOM     24  O   UNL     1      33.251  -8.566 -24.115  0.00  0.00    -0.421 OA
BRANCH  24  27
ATOM     25  F   UNL     1      34.340  -6.693 -24.698  0.00  0.00    -0.155 F 
ATOM     26  F   UNL     1      35.019  -7.779 -22.940  0.00  0.00    -0.155 F 
ATOM     27  C   UNL     1      34.526  -7.940 -24.193  0.00  0.00    +0.509 C 
ENDBRANCH  24  27
ENDBRANCH   2  24
TORSDOF 7
ENDMDL
MODEL 9
REMARK VINA RESULT:      -9.5      1.504      3.218
REMARK  Name = 449193
REMARK  7 active torsions:
REMARK  status: ('A' for Active; 'I' for Inactive)
REMARK    1  A    between atoms: C_1  and  O_19
REMARK    2  A    between atoms: C_2  and  O_24
REMARK    3  A    between atoms: C_4  and  C_9
REMARK    4  A    between atoms: N_8  and  C_14
REMARK    5  A    between atoms: O_19  and  C_20
REMARK    6  A    between atoms: C_20  and  C_21
REMARK    7  A    between atoms: O_24  and  C_27
REMARK                            x       y       z     vdW  Elec       q    Type
REMARK                         _______ _______ _______ _____ _____    ______ ____
ROOT
ATOM      1  C   UNL     1      32.398 -10.333 -22.759  0.00  0.00    +0.173 C 
ATOM      2  C   UNL     1      33.226  -9.873 -23.782  0.00  0.00    +0.178 C 
ATOM      3  C   UNL     1      32.376 -11.690 -22.436  0.00  0.00    +0.045 C 
ATOM      4  C   UNL     1      33.184 -12.586 -23.137  0.00  0.00    +0.057 C 
ATOM      5  C   UNL     1      34.034 -10.768 -24.483  0.00  0.00    +0.040 C 
ATOM      6  C   UNL     1      34.012 -12.125 -24.160  0.00  0.00    +0.008 C 
ENDROOT
BRANCH   4   9
ATOM      7  O   UNL     1      32.112 -14.501 -22.363  0.00  0.00    -0.270 OA
ATOM      8  N   UNL     1      34.352 -14.703 -23.032  0.00  0.00    -0.279 N 
ATOM      9  C   UNL     1      33.162 -14.001 -22.801  0.00  0.00    +0.250 C 
ATOM     10  H   UNL     1      35.102 -14.170 -23.383  0.00  0.00    +0.155 HD
BRANCH   8  14
ATOM     11 CL   UNL     1      34.742 -15.549 -20.145  0.00  0.00    -0.079 Cl
ATOM     12 CL   UNL     1      34.457 -16.408 -25.539  0.00  0.00    -0.079 Cl
ATOM     13  N   UNL     1      35.141 -18.780 -22.424  0.00  0.00    -0.240 NA
ATOM     14  C   UNL     1      34.619 -16.080 -22.826  0.00  0.00    +0.075 C 
ATOM     15  C   UNL     1      34.810 -16.553 -21.542  0.00  0.00    +0.091 C 
ATOM     16  C   UNL     1      34.685 -16.931 -23.914  0.00  0.00    +0.091 C 
ATOM     17  C   UNL     1      35.067 -17.906 -21.394  0.00  0.00    +0.112 C 
ATOM     18  C   UNL     1      34.947 -18.268 -23.660  0.00  0.00    +0.112 C 
ENDBRANCH   8  14
ENDBRANCH   4   9
BRANCH   1  19
ATOM     19  O   UNL     1      31.605  -9.468 -22.068  0.00  0.00    -0.472 OA
BRANCH  19  20
ATOM     20  C   UNL     1      31.991  -9.161 -20.730  0.00  0.00    +0.205 C 
BRANCH  20  21
ATOM     21  C   UNL     1      32.758  -7.883 -20.713  0.00  0.00    +0.044 C 
ATOM     22  C   UNL     1      32.198  -6.691 -21.424  0.00  0.00    +0.004 C 
ATOM     23  C   UNL     1      32.226  -6.728 -19.924  0.00  0.00    +0.004 C 
ENDBRANCH  20  21
ENDBRANCH  19  20
ENDBRANCH   1  19
BRANCH   2  24
ATOM     24  O   UNL     1      33.256  -8.550 -24.105  0.00  0.00    -0.421 OA
BRANCH  24  27
ATOM     25  F   UNL     1      34.345  -6.675 -24.683  0.00  0.00    -0.155 F 
ATOM     26  F   UNL     1      35.037  -7.777 -22.940  0.00  0.00    -0.155 F 
ATOM     27  C   UNL     1      34.532  -7.927 -24.189  0.00  0.00    +0.509 C 
ENDBRANCH  24  27
ENDBRANCH   2  24
TORSDOF 7
ENDMDL
