MODEL 1
REMARK VINA RESULT:      -5.6      0.000      0.000
REMARK  Name = 4026
REMARK  11 active torsions:
REMARK  status: ('A' for Active; 'I' for Inactive)
REMARK    1  A    between atoms: C_1  and  C_2
REMARK    2  A    between atoms: C_1  and  C_11
REMARK    3  A    between atoms: C_2  and  C_3
REMARK    4  A    between atoms: C_3  and  N_4
REMARK    5  A    between atoms: N_4  and  C_7
REMARK    6  A    between atoms: C_7  and  C_8
REMARK    7  A    between atoms: C_8  and  C_9
REMARK    8  A    between atoms: C_11  and  N_12
REMARK    9  A    between atoms: N_12  and  C_15
REMARK   10  A    between atoms: C_15  and  C_16
REMARK   11  A    between atoms: C_16  and  C_17
REMARK                            x       y       z     vdW  Elec       q    Type
REMARK                         _______ _______ _______ _____ _____    ______ ____
ROOT
ATOM      1  C   UNL     1      35.024 -16.296 -24.318  0.00  0.00    -0.026 C 
ENDROOT
BRANCH   1   2
ATOM      2  C   UNL     1      33.838 -16.047 -25.256  0.00  0.00    -0.026 C 
BRANCH   2   3
ATOM      3  C   UNL     1      33.278 -14.638 -25.071  0.00  0.00    -0.082 C 
BRANCH   3   4
ATOM      4  N   UNL     1      33.739 -14.071 -23.809  0.00  0.00    +0.384 N 
ATOM      5  H   UNL     1      34.333 -13.264 -24.003  0.00  0.00    -0.084 HD
ATOM      6  H   UNL     1      34.262 -14.785 -23.303  0.00  0.00    -0.084 HD
BRANCH   4   7
ATOM      7  C   UNL     1      32.614 -13.648 -22.987  0.00  0.00    -0.068 C 
BRANCH   7   8
ATOM      8  C   UNL     1      32.496 -14.476 -21.745  0.00  0.00    +0.054 C 
BRANCH   8   9
ATOM      9  C   UNL     1      33.503 -14.976 -21.088  0.00  0.00    -0.080 C 
ATOM     10  C   UNL     1      34.507 -15.474 -20.434  0.00  0.00    -0.014 C 
ENDBRANCH   8   9
ENDBRANCH   7   8
ENDBRANCH   4   7
ENDBRANCH   3   4
ENDBRANCH   2   3
ENDBRANCH   1   2
BRANCH   1  11
ATOM     11  C   UNL     1      34.997 -17.672 -23.650  0.00  0.00    -0.082 C 
BRANCH  11  12
ATOM     12  N   UNL     1      36.101 -17.858 -22.716  0.00  0.00    +0.384 N 
ATOM     13  H   UNL     1      36.315 -16.965 -22.271  0.00  0.00    -0.084 HD
ATOM     14  H   UNL     1      36.910 -18.201 -23.233  0.00  0.00    -0.084 HD
BRANCH  12  15
ATOM     15  C   UNL     1      35.755 -18.832 -21.691  0.00  0.00    -0.068 C 
BRANCH  15  16
ATOM     16  C   UNL     1      34.276 -19.059 -21.623  0.00  0.00    +0.054 C 
BRANCH  16  17
ATOM     17  C   UNL     1      33.686 -19.861 -20.784  0.00  0.00    -0.080 C 
ATOM     18  C   UNL     1      33.098 -20.662 -19.948  0.00  0.00    -0.014 C 
ENDBRANCH  16  17
ENDBRANCH  15  16
ENDBRANCH  12  15
ENDBRANCH  11  12
ENDBRANCH   1  11
TORSDOF 11
ENDMDL
MODEL 2
REMARK VINA RESULT:      -5.6      2.217      6.420
REMARK  Name = 4026
REMARK  11 active torsions:
REMARK  status: ('A' for Active; 'I' for Inactive)
REMARK    1  A    between atoms: C_1  and  C_2
REMARK    2  A    between atoms: C_1  and  C_11
REMARK    3  A    between atoms: C_2  and  C_3
REMARK    4  A    between atoms: C_3  and  N_4
REMARK    5  A    between atoms: N_4  and  C_7
REMARK    6  A    between atoms: C_7  and  C_8
REMARK    7  A    between atoms: C_8  and  C_9
REMARK    8  A    between atoms: C_11  and  N_12
REMARK    9  A    between atoms: N_12  and  C_15
REMARK   10  A    between atoms: C_15  and  C_16
REMARK   11  A    between atoms: C_16  and  C_17
REMARK                            x       y       z     vdW  Elec       q    Type
REMARK                         _______ _______ _______ _____ _____    ______ ____
ROOT
ATOM      1  C   UNL     1      32.826 -14.705 -21.100  0.00  0.00    -0.026 C 
ENDROOT
BRANCH   1   2
ATOM      2  C   UNL     1      34.195 -15.166 -20.589  0.00  0.00    -0.026 C 
BRANCH   2   3
ATOM      3  C   UNL     1      34.771 -16.264 -21.482  0.00  0.00    -0.082 C 
BRANCH   3   4
ATOM      4  N   UNL     1      35.341 -17.332 -20.669  0.00  0.00    +0.384 N 
ATOM      5  H   UNL     1      34.631 -17.674 -20.022  0.00  0.00    -0.084 HD
ATOM      6  H   UNL     1      36.141 -16.960 -20.157  0.00  0.00    -0.084 HD
BRANCH   4   7
ATOM      7  C   UNL     1      35.796 -18.435 -21.504  0.00  0.00    -0.068 C 
BRANCH   7   8
ATOM      8  C   UNL     1      35.344 -19.757 -20.966  0.00  0.00    +0.054 C 
BRANCH   8   9
ATOM      9  C   UNL     1      34.116 -20.045 -20.640  0.00  0.00    -0.080 C 
ATOM     10  C   UNL     1      32.893 -20.333 -20.317  0.00  0.00    -0.014 C 
ENDBRANCH   8   9
ENDBRANCH   7   8
ENDBRANCH   4   7
ENDBRANCH   3   4
ENDBRANCH   2   3
ENDBRANCH   1   2
BRANCH   1  11
ATOM     11  C   UNL     1      32.838 -14.255 -22.562  0.00  0.00    -0.082 C 
BRANCH  11  12
ATOM     12  N   UNL     1      31.830 -13.238 -22.839  0.00  0.00    +0.384 N 
ATOM     13  H   UNL     1      30.927 -13.560 -22.489  0.00  0.00    -0.084 HD
ATOM     14  H   UNL     1      31.788 -13.088 -23.846  0.00  0.00    -0.084 HD
BRANCH  12  15
ATOM     15  C   UNL     1      32.171 -11.979 -22.193  0.00  0.00    -0.068 C 
BRANCH  15  16
ATOM     16  C   UNL     1      31.058 -11.490 -21.317  0.00  0.00    +0.054 C 
BRANCH  16  17
ATOM     17  C   UNL     1      31.201 -11.105 -20.081  0.00  0.00    -0.080 C 
ATOM     18  C   UNL     1      31.344 -10.721 -18.850  0.00  0.00    -0.014 C 
ENDBRANCH  16  17
ENDBRANCH  15  16
ENDBRANCH  12  15
ENDBRANCH  11  12
ENDBRANCH   1  11
TORSDOF 11
ENDMDL
MODEL 3
REMARK VINA RESULT:      -5.6      1.080      4.760
REMARK  Name = 4026
REMARK  11 active torsions:
REMARK  status: ('A' for Active; 'I' for Inactive)
REMARK    1  A    between atoms: C_1  and  C_2
REMARK    2  A    between atoms: C_1  and  C_11
REMARK    3  A    between atoms: C_2  and  C_3
REMARK    4  A    between atoms: C_3  and  N_4
REMARK    5  A    between atoms: N_4  and  C_7
REMARK    6  A    between atoms: C_7  and  C_8
REMARK    7  A    between atoms: C_8  and  C_9
REMARK    8  A    between atoms: C_11  and  N_12
REMARK    9  A    between atoms: N_12  and  C_15
REMARK   10  A    between atoms: C_15  and  C_16
REMARK   11  A    between atoms: C_16  and  C_17
REMARK                            x       y       z     vdW  Elec       q    Type
REMARK                         _______ _______ _______ _____ _____    ______ ____
ROOT
ATOM      1  C   UNL     1      32.699 -14.670 -22.030  0.00  0.00    -0.026 C 
ENDROOT
BRANCH   1   2
ATOM      2  C   UNL     1      33.204 -15.004 -20.623  0.00  0.00    -0.026 C 
BRANCH   2   3
ATOM      3  C   UNL     1      34.514 -15.788 -20.682  0.00  0.00    -0.082 C 
BRANCH   3   4
ATOM      4  N   UNL     1      34.286 -17.115 -21.241  0.00  0.00    +0.384 N 
ATOM      5  H   UNL     1      34.005 -17.022 -22.217  0.00  0.00    -0.084 HD
ATOM      6  H   UNL     1      33.554 -17.574 -20.702  0.00  0.00    -0.084 HD
BRANCH   4   7
ATOM      7  C   UNL     1      35.495 -17.924 -21.168  0.00  0.00    -0.068 C 
BRANCH   7   8
ATOM      8  C   UNL     1      35.178 -19.387 -21.128  0.00  0.00    +0.054 C 
BRANCH   8   9
ATOM      9  C   UNL     1      34.050 -19.891 -20.715  0.00  0.00    -0.080 C 
ATOM     10  C   UNL     1      32.927 -20.394 -20.303  0.00  0.00    -0.014 C 
ENDBRANCH   8   9
ENDBRANCH   7   8
ENDBRANCH   4   7
ENDBRANCH   3   4
ENDBRANCH   2   3
ENDBRANCH   1   2
BRANCH   1  11
ATOM     11  C   UNL     1      33.532 -13.601 -22.741  0.00  0.00    -0.082 C 
BRANCH  11  12
ATOM     12  N   UNL     1      34.141 -14.097 -23.970  0.00  0.00    +0.384 N 
ATOM     13  H   UNL     1      35.148 -14.185 -23.830  0.00  0.00    -0.084 HD
ATOM     14  H   UNL     1      33.942 -13.437 -24.721  0.00  0.00    -0.084 HD
BRANCH  12  15
ATOM     15  C   UNL     1      33.593 -15.396 -24.332  0.00  0.00    -0.068 C 
BRANCH  15  16
ATOM     16  C   UNL     1      34.665 -16.338 -24.789  0.00  0.00    +0.054 C 
BRANCH  16  17
ATOM     17  C   UNL     1      34.568 -17.636 -24.775  0.00  0.00    -0.080 C 
ATOM     18  C   UNL     1      34.472 -18.930 -24.761  0.00  0.00    -0.014 C 
ENDBRANCH  16  17
ENDBRANCH  15  16
ENDBRANCH  12  15
ENDBRANCH  11  12
ENDBRANCH   1  11
TORSDOF 11
ENDMDL
MODEL 4
REMARK VINA RESULT:      -5.5      3.165      5.401
REMARK  Name = 4026
REMARK  11 active torsions:
REMARK  status: ('A' for Active; 'I' for Inactive)
REMARK    1  A    between atoms: C_1  and  C_2
REMARK    2  A    between atoms: C_1  and  C_11
REMARK    3  A    between atoms: C_2  and  C_3
REMARK    4  A    between atoms: C_3  and  N_4
REMARK    5  A    between atoms: N_4  and  C_7
REMARK    6  A    between atoms: C_7  and  C_8
REMARK    7  A    between atoms: C_8  and  C_9
REMARK    8  A    between atoms: C_11  and  N_12
REMARK    9  A    between atoms: N_12  and  C_15
REMARK   10  A    between atoms: C_15  and  C_16
REMARK   11  A    between atoms: C_16  and  C_17
REMARK                            x       y       z     vdW  Elec       q    Type
REMARK                         _______ _______ _______ _____ _____    ______ ____
ROOT
ATOM      1  C   UNL     1      32.965 -20.284 -20.144  0.00  0.00    -0.026 C 
ENDROOT
BRANCH   1   2
ATOM      2  C   UNL     1      33.741 -19.664 -21.311  0.00  0.00    -0.026 C 
BRANCH   2   3
ATOM      3  C   UNL     1      35.243 -19.657 -21.028  0.00  0.00    -0.082 C 
BRANCH   3   4
ATOM      4  N   UNL     1      35.702 -18.297 -20.766  0.00  0.00    +0.384 N 
ATOM      5  H   UNL     1      36.721 -18.294 -20.717  0.00  0.00    -0.084 HD
ATOM      6  H   UNL     1      35.302 -17.983 -19.883  0.00  0.00    -0.084 HD
BRANCH   4   7
ATOM      7  C   UNL     1      35.272 -17.391 -21.822  0.00  0.00    -0.068 C 
BRANCH   7   8
ATOM      8  C   UNL     1      34.794 -16.086 -21.266  0.00  0.00    +0.054 C 
BRANCH   8   9
ATOM      9  C   UNL     1      33.554 -15.813 -20.974  0.00  0.00    -0.080 C 
ATOM     10  C   UNL     1      32.319 -15.540 -20.684  0.00  0.00    -0.014 C 
ENDBRANCH   8   9
ENDBRANCH   7   8
ENDBRANCH   4   7
ENDBRANCH   3   4
ENDBRANCH   2   3
ENDBRANCH   1   2
BRANCH   1  11
ATOM     11  C   UNL     1      33.654 -21.506 -19.531  0.00  0.00    -0.082 C 
BRANCH  11  12
ATOM     12  N   UNL     1      32.739 -22.321 -18.741  0.00  0.00    +0.384 N 
ATOM     13  H   UNL     1      32.185 -22.904 -19.369  0.00  0.00    -0.084 HD
ATOM     14  H   UNL     1      32.134 -21.702 -18.203  0.00  0.00    -0.084 HD
BRANCH  12  15
ATOM     15  C   UNL     1      33.472 -23.176 -17.817  0.00  0.00    -0.068 C 
BRANCH  15  16
ATOM     16  C   UNL     1      32.768 -23.293 -16.500  0.00  0.00    +0.054 C 
BRANCH  16  17
ATOM     17  C   UNL     1      31.487 -23.141 -16.327  0.00  0.00    -0.080 C 
ATOM     18  C   UNL     1      30.209 -22.990 -16.154  0.00  0.00    -0.014 C 
ENDBRANCH  16  17
ENDBRANCH  15  16
ENDBRANCH  12  15
ENDBRANCH  11  12
ENDBRANCH   1  11
TORSDOF 11
ENDMDL
MODEL 5
REMARK VINA RESULT:      -5.5      0.791      4.761
REMARK  Name = 4026
REMARK  11 active torsions:
REMARK  status: ('A' for Active; 'I' for Inactive)
REMARK    1  A    between atoms: C_1  and  C_2
REMARK    2  A    between atoms: C_1  and  C_11
REMARK    3  A    between atoms: C_2  and  C_3
REMARK    4  A    between atoms: C_3  and  N_4
REMARK    5  A    between atoms: N_4  and  C_7
REMARK    6  A    between atoms: C_7  and  C_8
REMARK    7  A    between atoms: C_8  and  C_9
REMARK    8  A    between atoms: C_11  and  N_12
REMARK    9  A    between atoms: N_12  and  C_15
REMARK   10  A    between atoms: C_15  and  C_16
REMARK   11  A    between atoms: C_16  and  C_17
REMARK                            x       y       z     vdW  Elec       q    Type
REMARK                         _______ _______ _______ _____ _____    ______ ____
ROOT
ATOM      1  C   UNL     1      33.520 -15.253 -25.240  0.00  0.00    -0.026 C 
ENDROOT
BRANCH   1   2
ATOM      2  C   UNL     1      34.415 -15.988 -24.235  0.00  0.00    -0.026 C 
BRANCH   2   3
ATOM      3  C   UNL     1      34.883 -17.329 -24.797  0.00  0.00    -0.082 C 
BRANCH   3   4
ATOM      4  N   UNL     1      35.587 -18.091 -23.770  0.00  0.00    +0.384 N 
ATOM      5  H   UNL     1      35.886 -17.456 -23.031  0.00  0.00    -0.084 HD
ATOM      6  H   UNL     1      36.393 -18.545 -24.198  0.00  0.00    -0.084 HD
BRANCH   4   7
ATOM      7  C   UNL     1      34.723 -19.115 -23.200  0.00  0.00    -0.068 C 
BRANCH   7   8
ATOM      8  C   UNL     1      34.581 -18.953 -21.718  0.00  0.00    +0.054 C 
BRANCH   8   9
ATOM      9  C   UNL     1      33.786 -19.660 -20.967  0.00  0.00    -0.080 C 
ATOM     10  C   UNL     1      32.993 -20.363 -20.218  0.00  0.00    -0.014 C 
ENDBRANCH   8   9
ENDBRANCH   7   8
ENDBRANCH   4   7
ENDBRANCH   3   4
ENDBRANCH   2   3
ENDBRANCH   1   2
BRANCH   1  11
ATOM     11  C   UNL     1      33.146 -13.836 -24.803  0.00  0.00    -0.082 C 
BRANCH  11  12
ATOM     12  N   UNL     1      33.562 -13.548 -23.435  0.00  0.00    +0.384 N 
ATOM     13  H   UNL     1      34.198 -12.749 -23.442  0.00  0.00    -0.084 HD
ATOM     14  H   UNL     1      34.028 -14.371 -23.057  0.00  0.00    -0.084 HD
BRANCH  12  15
ATOM     15  C   UNL     1      32.413 -13.236 -22.597  0.00  0.00    -0.068 C 
BRANCH  15  16
ATOM     16  C   UNL     1      32.539 -13.852 -21.238  0.00  0.00    +0.054 C 
BRANCH  16  17
ATOM     17  C   UNL     1      33.501 -14.649 -20.871  0.00  0.00    -0.080 C 
ATOM     18  C   UNL     1      34.460 -15.443 -20.503  0.00  0.00    -0.014 C 
ENDBRANCH  16  17
ENDBRANCH  15  16
ENDBRANCH  12  15
ENDBRANCH  11  12
ENDBRANCH   1  11
TORSDOF 11
ENDMDL
MODEL 6
REMARK VINA RESULT:      -5.5      1.195      3.093
REMARK  Name = 4026
REMARK  11 active torsions:
REMARK  status: ('A' for Active; 'I' for Inactive)
REMARK    1  A    between atoms: C_1  and  C_2
REMARK    2  A    between atoms: C_1  and  C_11
REMARK    3  A    between atoms: C_2  and  C_3
REMARK    4  A    between atoms: C_3  and  N_4
REMARK    5  A    between atoms: N_4  and  C_7
REMARK    6  A    between atoms: C_7  and  C_8
REMARK    7  A    between atoms: C_8  and  C_9
REMARK    8  A    between atoms: C_11  and  N_12
REMARK    9  A    between atoms: N_12  and  C_15
REMARK   10  A    between atoms: C_15  and  C_16
REMARK   11  A    between atoms: C_16  and  C_17
REMARK                            x       y       z     vdW  Elec       q    Type
REMARK                         _______ _______ _______ _____ _____    ______ ____
ROOT
ATOM      1  C   UNL     1      34.323 -15.964 -21.018  0.00  0.00    -0.026 C 
ENDROOT
BRANCH   1   2
ATOM      2  C   UNL     1      33.001 -15.320 -21.446  0.00  0.00    -0.026 C 
BRANCH   2   3
ATOM      3  C   UNL     1      33.197 -14.424 -22.669  0.00  0.00    -0.082 C 
BRANCH   3   4
ATOM      4  N   UNL     1      34.276 -14.938 -23.505  0.00  0.00    +0.384 N 
ATOM      5  H   UNL     1      34.783 -15.658 -22.991  0.00  0.00    -0.084 HD
ATOM      6  H   UNL     1      34.898 -14.166 -23.744  0.00  0.00    -0.084 HD
BRANCH   4   7
ATOM      7  C   UNL     1      33.751 -15.511 -24.737  0.00  0.00    -0.068 C 
BRANCH   7   8
ATOM      8  C   UNL     1      34.638 -16.598 -25.261  0.00  0.00    +0.054 C 
BRANCH   8   9
ATOM      9  C   UNL     1      34.623 -17.832 -24.847  0.00  0.00    -0.080 C 
ATOM     10  C   UNL     1      34.609 -19.063 -24.435  0.00  0.00    -0.014 C 
ENDBRANCH   8   9
ENDBRANCH   7   8
ENDBRANCH   4   7
ENDBRANCH   3   4
ENDBRANCH   2   3
ENDBRANCH   1   2
BRANCH   1  11
ATOM     11  C   UNL     1      34.323 -17.491 -21.128  0.00  0.00    -0.082 C 
BRANCH  11  12
ATOM     12  N   UNL     1      35.645 -18.064 -20.902  0.00  0.00    +0.384 N 
ATOM     13  H   UNL     1      36.009 -17.721 -20.012  0.00  0.00    -0.084 HD
ATOM     14  H   UNL     1      36.256 -17.783 -21.669  0.00  0.00    -0.084 HD
BRANCH  12  15
ATOM     15  C   UNL     1      35.581 -19.518 -20.864  0.00  0.00    -0.068 C 
BRANCH  15  16
ATOM     16  C   UNL     1      34.177 -20.002 -20.670  0.00  0.00    +0.054 C 
BRANCH  16  17
ATOM     17  C   UNL     1      33.832 -20.981 -19.885  0.00  0.00    -0.080 C 
ATOM     18  C   UNL     1      33.487 -21.958 -19.102  0.00  0.00    -0.014 C 
ENDBRANCH  16  17
ENDBRANCH  15  16
ENDBRANCH  12  15
ENDBRANCH  11  12
ENDBRANCH   1  11
TORSDOF 11
ENDMDL
MODEL 7
REMARK VINA RESULT:      -5.4      2.055      3.447
REMARK  Name = 4026
REMARK  11 active torsions:
REMARK  status: ('A' for Active; 'I' for Inactive)
REMARK    1  A    between atoms: C_1  and  C_2
REMARK    2  A    between atoms: C_1  and  C_11
REMARK    3  A    between atoms: C_2  and  C_3
REMARK    4  A    between atoms: C_3  and  N_4
REMARK    5  A    between atoms: N_4  and  C_7
REMARK    6  A    between atoms: C_7  and  C_8
REMARK    7  A    between atoms: C_8  and  C_9
REMARK    8  A    between atoms: C_11  and  N_12
REMARK    9  A    between atoms: N_12  and  C_15
REMARK   10  A    between atoms: C_15  and  C_16
REMARK   11  A    between atoms: C_16  and  C_17
REMARK                            x       y       z     vdW  Elec       q    Type
REMARK                         _______ _______ _______ _____ _____    ______ ____
ROOT
ATOM      1  C   UNL     1      34.417 -15.469 -20.514  0.00  0.00    -0.026 C 
ENDROOT
BRANCH   1   2
ATOM      2  C   UNL     1      33.048 -14.876 -20.862  0.00  0.00    -0.026 C 
BRANCH   2   3
ATOM      3  C   UNL     1      32.870 -14.759 -22.375  0.00  0.00    -0.082 C 
BRANCH   3   4
ATOM      4  N   UNL     1      32.745 -13.359 -22.765  0.00  0.00    +0.384 N 
ATOM      5  H   UNL     1      32.885 -12.771 -21.944  0.00  0.00    -0.084 HD
ATOM      6  H   UNL     1      31.814 -13.212 -23.154  0.00  0.00    -0.084 HD
BRANCH   4   7
ATOM      7  C   UNL     1      33.733 -13.011 -23.776  0.00  0.00    -0.068 C 
BRANCH   7   8
ATOM      8  C   UNL     1      33.681 -11.555 -24.120  0.00  0.00    +0.054 C 
BRANCH   8   9
ATOM      9  C   UNL     1      34.530 -10.944 -24.895  0.00  0.00    -0.080 C 
ATOM     10  C   UNL     1      35.376 -10.334 -25.668  0.00  0.00    -0.014 C 
ENDBRANCH   8   9
ENDBRANCH   7   8
ENDBRANCH   4   7
ENDBRANCH   3   4
ENDBRANCH   2   3
ENDBRANCH   1   2
BRANCH   1  11
ATOM     11  C   UNL     1      34.892 -16.534 -21.505  0.00  0.00    -0.082 C 
BRANCH  11  12
ATOM     12  N   UNL     1      35.203 -17.801 -20.853  0.00  0.00    +0.384 N 
ATOM     13  H   UNL     1      34.810 -17.796 -19.911  0.00  0.00    -0.084 HD
ATOM     14  H   UNL     1      36.216 -17.907 -20.815  0.00  0.00    -0.084 HD
BRANCH  12  15
ATOM     15  C   UNL     1      34.644 -18.920 -21.598  0.00  0.00    -0.068 C 
BRANCH  15  16
ATOM     16  C   UNL     1      33.459 -19.511 -20.898  0.00  0.00    +0.054 C 
BRANCH  16  17
ATOM     17  C   UNL     1      33.494 -20.575 -20.149  0.00  0.00    -0.080 C 
ATOM     18  C   UNL     1      33.528 -21.636 -19.401  0.00  0.00    -0.014 C 
ENDBRANCH  16  17
ENDBRANCH  15  16
ENDBRANCH  12  15
ENDBRANCH  11  12
ENDBRANCH   1  11
TORSDOF 11
ENDMDL
MODEL 8
REMARK VINA RESULT:      -5.4      1.573      2.121
REMARK  Name = 4026
REMARK  11 active torsions:
REMARK  status: ('A' for Active; 'I' for Inactive)
REMARK    1  A    between atoms: C_1  and  C_2
REMARK    2  A    between atoms: C_1  and  C_11
REMARK    3  A    between atoms: C_2  and  C_3
REMARK    4  A    between atoms: C_3  and  N_4
REMARK    5  A    between atoms: N_4  and  C_7
REMARK    6  A    between atoms: C_7  and  C_8
REMARK    7  A    between atoms: C_8  and  C_9
REMARK    8  A    between atoms: C_11  and  N_12
REMARK    9  A    between atoms: N_12  and  C_15
REMARK   10  A    between atoms: C_15  and  C_16
REMARK   11  A    between atoms: C_16  and  C_17
REMARK                            x       y       z     vdW  Elec       q    Type
REMARK                         _______ _______ _______ _____ _____    ______ ____
ROOT
ATOM      1  C   UNL     1      34.802 -19.081 -23.763  0.00  0.00    -0.026 C 
ENDROOT
BRANCH   1   2
ATOM      2  C   UNL     1      34.483 -18.246 -25.007  0.00  0.00    -0.026 C 
BRANCH   2   3
ATOM      3  C   UNL     1      34.852 -16.778 -24.793  0.00  0.00    -0.082 C 
BRANCH   3   4
ATOM      4  N   UNL     1      33.772 -15.912 -25.251  0.00  0.00    +0.384 N 
ATOM      5  H   UNL     1      32.933 -16.472 -25.394  0.00  0.00    -0.084 HD
ATOM      6  H   UNL     1      34.058 -15.470 -26.124  0.00  0.00    -0.084 HD
BRANCH   4   7
ATOM      7  C   UNL     1      33.491 -14.870 -24.272  0.00  0.00    -0.068 C 
BRANCH   7   8
ATOM      8  C   UNL     1      34.110 -15.180 -22.945  0.00  0.00    +0.054 C 
BRANCH   8   9
ATOM      9  C   UNL     1      33.469 -15.191 -21.811  0.00  0.00    -0.080 C 
ATOM     10  C   UNL     1      32.830 -15.202 -20.682  0.00  0.00    -0.014 C 
ENDBRANCH   8   9
ENDBRANCH   7   8
ENDBRANCH   4   7
ENDBRANCH   3   4
ENDBRANCH   2   3
ENDBRANCH   1   2
BRANCH   1  11
ATOM     11  C   UNL     1      35.747 -18.382 -22.783  0.00  0.00    -0.082 C 
BRANCH  11  12
ATOM     12  N   UNL     1      35.217 -18.352 -21.425  0.00  0.00    +0.384 N 
ATOM     13  H   UNL     1      35.068 -17.381 -21.147  0.00  0.00    -0.084 HD
ATOM     14  H   UNL     1      35.888 -18.802 -20.803  0.00  0.00    -0.084 HD
BRANCH  12  15
ATOM     15  C   UNL     1      33.953 -19.070 -21.345  0.00  0.00    -0.068 C 
BRANCH  15  16
ATOM     16  C   UNL     1      34.037 -20.231 -20.402  0.00  0.00    +0.054 C 
BRANCH  16  17
ATOM     17  C   UNL     1      35.144 -20.809 -20.035  0.00  0.00    -0.080 C 
ATOM     18  C   UNL     1      36.247 -21.387 -19.667  0.00  0.00    -0.014 C 
ENDBRANCH  16  17
ENDBRANCH  15  16
ENDBRANCH  12  15
ENDBRANCH  11  12
ENDBRANCH   1  11
TORSDOF 11
ENDMDL
MODEL 9
REMARK VINA RESULT:      -5.4      2.893      3.608
REMARK  Name = 4026
REMARK  11 active torsions:
REMARK  status: ('A' for Active; 'I' for Inactive)
REMARK    1  A    between atoms: C_1  and  C_2
REMARK    2  A    between atoms: C_1  and  C_11
REMARK    3  A    between atoms: C_2  and  C_3
REMARK    4  A    between atoms: C_3  and  N_4
REMARK    5  A    between atoms: N_4  and  C_7
REMARK    6  A    between atoms: C_7  and  C_8
REMARK    7  A    between atoms: C_8  and  C_9
REMARK    8  A    between atoms: C_11  and  N_12
REMARK    9  A    between atoms: N_12  and  C_15
REMARK   10  A    between atoms: C_15  and  C_16
REMARK   11  A    between atoms: C_16  and  C_17
REMARK                            x       y       z     vdW  Elec       q    Type
REMARK                         _______ _______ _______ _____ _____    ______ ____
ROOT
ATOM      1  C   UNL     1      34.591 -14.770 -23.089  0.00  0.00    -0.026 C 
ENDROOT
BRANCH   1   2
ATOM      2  C   UNL     1      33.472 -14.709 -24.134  0.00  0.00    -0.026 C 
BRANCH   2   3
ATOM      3  C   UNL     1      33.327 -13.297 -24.700  0.00  0.00    -0.082 C 
BRANCH   3   4
ATOM      4  N   UNL     1      34.148 -12.359 -23.942  0.00  0.00    +0.384 N 
ATOM      5  H   UNL     1      35.097 -12.370 -24.315  0.00  0.00    -0.084 HD
ATOM      6  H   UNL     1      34.147 -12.644 -22.963  0.00  0.00    -0.084 HD
BRANCH   4   7
ATOM      7  C   UNL     1      33.614 -11.008 -24.035  0.00  0.00    -0.068 C 
BRANCH   7   8
ATOM      8  C   UNL     1      34.672 -10.022 -24.421  0.00  0.00    +0.054 C 
BRANCH   8   9
ATOM      9  C   UNL     1      34.727  -8.790 -24.004  0.00  0.00    -0.080 C 
ATOM     10  C   UNL     1      34.781  -7.561 -23.589  0.00  0.00    -0.014 C 
ENDBRANCH   8   9
ENDBRANCH   7   8
ENDBRANCH   4   7
ENDBRANCH   3   4
ENDBRANCH   2   3
ENDBRANCH   1   2
BRANCH   1  11
ATOM     11  C   UNL     1      34.740 -16.145 -22.433  0.00  0.00    -0.082 C 
BRANCH  11  12
ATOM     12  N   UNL     1      35.395 -17.109 -23.308  0.00  0.00    +0.384 N 
ATOM     13  H   UNL     1      36.401 -16.938 -23.298  0.00  0.00    -0.084 HD
ATOM     14  H   UNL     1      35.024 -16.999 -24.251  0.00  0.00    -0.084 HD
BRANCH  12  15
ATOM     15  C   UNL     1      35.139 -18.472 -22.863  0.00  0.00    -0.068 C 
BRANCH  15  16
ATOM     16  C   UNL     1      34.587 -18.502 -21.471  0.00  0.00    +0.054 C 
BRANCH  16  17
ATOM     17  C   UNL     1      33.804 -19.431 -21.002  0.00  0.00    -0.080 C 
ATOM     18  C   UNL     1      33.024 -20.357 -20.535  0.00  0.00    -0.014 C 
ENDBRANCH  16  17
ENDBRANCH  15  16
ENDBRANCH  12  15
ENDBRANCH  11  12
ENDBRANCH   1  11
TORSDOF 11
ENDMDL
