MODEL 1
REMARK VINA RESULT:      -8.8      0.000      0.000
REMARK  Name = 4235
REMARK  4 active torsions:
REMARK  status: ('A' for Active; 'I' for Inactive)
REMARK    1  A    between atoms: N_2  and  C_12
REMARK    2  A    between atoms: C_3  and  C_6
REMARK    3  A    between atoms: C_12  and  C_13
REMARK    4  A    between atoms: C_13  and  N_15
REMARK                            x       y       z     vdW  Elec       q    Type
REMARK                         _______ _______ _______ _____ _____    ______ ____
ROOT
ATOM      1  O   UNL     1      33.819 -23.691 -18.853  0.00  0.00    -0.270 OA
ATOM      2  N   UNL     1      34.937 -22.409 -17.279  0.00  0.00    -0.303 N 
ATOM      3  C   UNL     1      34.349 -22.639 -18.505  0.00  0.00    +0.246 C 
ATOM      4  H   UNL     1      35.337 -21.528 -17.098  0.00  0.00    +0.150 HD
ENDROOT
BRANCH   3   6
ATOM      5 CL   UNL     1      34.572 -18.080 -22.344  0.00  0.00    -0.082 Cl
ATOM      6  C   UNL     1      34.404 -21.503 -19.461  0.00  0.00    +0.053 C 
ATOM      7  C   UNL     1      33.223 -20.923 -19.876  0.00  0.00    +0.005 C 
ATOM      8  C   UNL     1      35.635 -21.065 -19.905  0.00  0.00    +0.005 C 
ATOM      9  C   UNL     1      33.275 -19.857 -20.774  0.00  0.00    +0.012 C 
ATOM     10  C   UNL     1      35.687 -19.999 -20.802  0.00  0.00    +0.012 C 
ATOM     11  C   UNL     1      34.507 -19.394 -21.237  0.00  0.00    +0.058 C 
ENDBRANCH   3   6
BRANCH   2  12
ATOM     12  C   UNL     1      34.987 -23.435 -16.244  0.00  0.00    +0.067 C 
BRANCH  12  13
ATOM     13  C   UNL     1      36.227 -23.255 -15.377  0.00  0.00    -0.055 C 
BRANCH  13  15
ATOM     14  O   UNL     1      38.109 -26.778 -14.090  0.00  0.00    -0.358 OA
ATOM     15  N   UNL     1      37.009 -24.489 -15.376  0.00  0.00    +0.391 N 
ATOM     16  C   UNL     1      36.171 -25.636 -15.001  0.00  0.00    -0.045 C 
ATOM     17  C   UNL     1      38.153 -24.381 -14.460  0.00  0.00    -0.045 C 
ATOM     18  C   UNL     1      37.011 -26.911 -14.994  0.00  0.00    +0.119 C 
ATOM     19  C   UNL     1      38.947 -25.685 -14.467  0.00  0.00    +0.119 C 
ATOM     20  H   UNL     1      37.361 -24.637 -16.322  0.00  0.00    -0.079 HD
ENDBRANCH  13  15
ENDBRANCH  12  13
ENDBRANCH   2  12
TORSDOF 4
ENDMDL
MODEL 2
REMARK VINA RESULT:      -8.7      5.520     10.173
REMARK  Name = 4235
REMARK  4 active torsions:
REMARK  status: ('A' for Active; 'I' for Inactive)
REMARK    1  A    between atoms: N_2  and  C_12
REMARK    2  A    between atoms: C_3  and  C_6
REMARK    3  A    between atoms: C_12  and  C_13
REMARK    4  A    between atoms: C_13  and  N_15
REMARK                            x       y       z     vdW  Elec       q    Type
REMARK                         _______ _______ _______ _____ _____    ______ ____
ROOT
ATOM      1  O   UNL     1      36.606 -18.720 -21.447  0.00  0.00    -0.270 OA
ATOM      2  N   UNL     1      34.582 -18.773 -22.574  0.00  0.00    -0.303 N 
ATOM      3  C   UNL     1      35.462 -19.146 -21.580  0.00  0.00    +0.246 C 
ATOM      4  H   UNL     1      33.683 -19.175 -22.593  0.00  0.00    +0.150 HD
ENDROOT
BRANCH   3   6
ATOM      5 CL   UNL     1      33.412 -23.243 -17.760  0.00  0.00    -0.082 Cl
ATOM      6  C   UNL     1      34.951 -20.167 -20.628  0.00  0.00    +0.053 C 
ATOM      7  C   UNL     1      35.856 -20.942 -19.933  0.00  0.00    +0.005 C 
ATOM      8  C   UNL     1      33.588 -20.307 -20.469  0.00  0.00    +0.005 C 
ATOM      9  C   UNL     1      35.378 -21.900 -19.040  0.00  0.00    +0.012 C 
ATOM     10  C   UNL     1      33.109 -21.264 -19.576  0.00  0.00    +0.012 C 
ATOM     11  C   UNL     1      34.003 -22.062 -18.861  0.00  0.00    +0.058 C 
ENDBRANCH   3   6
BRANCH   2  12
ATOM     12  C   UNL     1      34.944 -17.802 -23.599  0.00  0.00    +0.067 C 
BRANCH  12  13
ATOM     13  C   UNL     1      34.842 -16.385 -23.049  0.00  0.00    -0.055 C 
BRANCH  13  15
ATOM     14  O   UNL     1      33.245 -13.706 -25.857  0.00  0.00    -0.358 OA
ATOM     15  N   UNL     1      33.890 -15.615 -23.847  0.00  0.00    +0.391 N 
ATOM     16  C   UNL     1      34.038 -15.924 -25.275  0.00  0.00    -0.045 C 
ATOM     17  C   UNL     1      34.067 -14.174 -23.623  0.00  0.00    -0.045 C 
ATOM     18  C   UNL     1      33.043 -15.101 -26.089  0.00  0.00    +0.119 C 
ATOM     19  C   UNL     1      33.071 -13.392 -24.474  0.00  0.00    +0.119 C 
ATOM     20  H   UNL     1      32.950 -15.879 -23.551  0.00  0.00    -0.079 HD
ENDBRANCH  13  15
ENDBRANCH  12  13
ENDBRANCH   2  12
TORSDOF 4
ENDMDL
MODEL 3
REMARK VINA RESULT:      -8.7      5.445     10.061
REMARK  Name = 4235
REMARK  4 active torsions:
REMARK  status: ('A' for Active; 'I' for Inactive)
REMARK    1  A    between atoms: N_2  and  C_12
REMARK    2  A    between atoms: C_3  and  C_6
REMARK    3  A    between atoms: C_12  and  C_13
REMARK    4  A    between atoms: C_13  and  N_15
REMARK                            x       y       z     vdW  Elec       q    Type
REMARK                         _______ _______ _______ _____ _____    ______ ____
ROOT
ATOM      1  O   UNL     1      36.788 -18.776 -21.366  0.00  0.00    -0.270 OA
ATOM      2  N   UNL     1      34.778 -18.715 -22.518  0.00  0.00    -0.303 N 
ATOM      3  C   UNL     1      35.628 -19.148 -21.523  0.00  0.00    +0.246 C 
ATOM      4  H   UNL     1      33.863 -19.077 -22.557  0.00  0.00    +0.150 HD
ENDROOT
BRANCH   3   6
ATOM      5 CL   UNL     1      33.358 -23.236 -17.819  0.00  0.00    -0.082 Cl
ATOM      6  C   UNL     1      35.062 -20.167 -20.600  0.00  0.00    +0.053 C 
ATOM      7  C   UNL     1      33.692 -20.260 -20.470  0.00  0.00    +0.005 C 
ATOM      8  C   UNL     1      35.925 -20.987 -19.904  0.00  0.00    +0.005 C 
ATOM      9  C   UNL     1      33.161 -21.215 -19.603  0.00  0.00    +0.012 C 
ATOM     10  C   UNL     1      35.394 -21.943 -19.038  0.00  0.00    +0.012 C 
ATOM     11  C   UNL     1      34.012 -22.058 -18.887  0.00  0.00    +0.058 C 
ENDBRANCH   3   6
BRANCH   2  12
ATOM     12  C   UNL     1      35.194 -17.737 -23.516  0.00  0.00    +0.067 C 
BRANCH  12  13
ATOM     13  C   UNL     1      35.089 -16.326 -22.953  0.00  0.00    -0.055 C 
BRANCH  13  15
ATOM     14  O   UNL     1      32.605 -14.115 -25.514  0.00  0.00    -0.358 OA
ATOM     15  N   UNL     1      34.637 -15.411 -24.000  0.00  0.00    +0.391 N 
ATOM     16  C   UNL     1      33.829 -14.325 -23.429  0.00  0.00    -0.045 C 
ATOM     17  C   UNL     1      33.864 -16.130 -25.022  0.00  0.00    -0.045 C 
ATOM     18  C   UNL     1      33.359 -13.391 -24.541  0.00  0.00    +0.119 C 
ATOM     19  C   UNL     1      33.395 -15.153 -26.097  0.00  0.00    +0.119 C 
ATOM     20  H   UNL     1      35.464 -15.007 -24.439  0.00  0.00    -0.079 HD
ENDBRANCH  13  15
ENDBRANCH  12  13
ENDBRANCH   2  12
TORSDOF 4
ENDMDL
MODEL 4
REMARK VINA RESULT:      -8.6      0.523      1.236
REMARK  Name = 4235
REMARK  4 active torsions:
REMARK  status: ('A' for Active; 'I' for Inactive)
REMARK    1  A    between atoms: N_2  and  C_12
REMARK    2  A    between atoms: C_3  and  C_6
REMARK    3  A    between atoms: C_12  and  C_13
REMARK    4  A    between atoms: C_13  and  N_15
REMARK                            x       y       z     vdW  Elec       q    Type
REMARK                         _______ _______ _______ _____ _____    ______ ____
ROOT
ATOM      1  O   UNL     1      33.549 -23.841 -18.301  0.00  0.00    -0.270 OA
ATOM      2  N   UNL     1      34.996 -22.663 -16.928  0.00  0.00    -0.303 N 
ATOM      3  C   UNL     1      34.249 -22.860 -18.070  0.00  0.00    +0.246 C 
ATOM      4  H   UNL     1      35.527 -21.838 -16.840  0.00  0.00    +0.150 HD
ENDROOT
BRANCH   3   6
ATOM      5 CL   UNL     1      34.646 -18.538 -22.162  0.00  0.00    -0.082 Cl
ATOM      6  C   UNL     1      34.348 -21.782 -19.090  0.00  0.00    +0.053 C 
ATOM      7  C   UNL     1      33.188 -21.200 -19.558  0.00  0.00    +0.005 C 
ATOM      8  C   UNL     1      35.596 -21.400 -19.536  0.00  0.00    +0.005 C 
ATOM      9  C   UNL     1      33.281 -20.190 -20.515  0.00  0.00    +0.012 C 
ATOM     10  C   UNL     1      35.689 -20.389 -20.492  0.00  0.00    +0.012 C 
ATOM     11  C   UNL     1      34.531 -19.784 -20.982  0.00  0.00    +0.058 C 
ENDBRANCH   3   6
BRANCH   2  12
ATOM     12  C   UNL     1      35.025 -23.641 -15.848  0.00  0.00    +0.067 C 
BRANCH  12  13
ATOM     13  C   UNL     1      36.089 -23.270 -14.823  0.00  0.00    -0.055 C 
BRANCH  13  15
ATOM     14  O   UNL     1      38.385 -26.783 -14.897  0.00  0.00    -0.358 OA
ATOM     15  N   UNL     1      36.799 -24.474 -14.394  0.00  0.00    +0.391 N 
ATOM     16  C   UNL     1      38.232 -24.369 -14.698  0.00  0.00    -0.045 C 
ATOM     17  C   UNL     1      36.234 -25.669 -15.035  0.00  0.00    -0.045 C 
ATOM     18  C   UNL     1      38.950 -25.640 -14.252  0.00  0.00    +0.119 C 
ATOM     19  C   UNL     1      36.998 -26.910 -14.580  0.00  0.00    +0.119 C 
ATOM     20  H   UNL     1      36.685 -24.560 -13.384  0.00  0.00    -0.079 HD
ENDBRANCH  13  15
ENDBRANCH  12  13
ENDBRANCH   2  12
TORSDOF 4
ENDMDL
MODEL 5
REMARK VINA RESULT:      -8.6      3.200      4.821
REMARK  Name = 4235
REMARK  4 active torsions:
REMARK  status: ('A' for Active; 'I' for Inactive)
REMARK    1  A    between atoms: N_2  and  C_12
REMARK    2  A    between atoms: C_3  and  C_6
REMARK    3  A    between atoms: C_12  and  C_13
REMARK    4  A    between atoms: C_13  and  N_15
REMARK                            x       y       z     vdW  Elec       q    Type
REMARK                         _______ _______ _______ _____ _____    ______ ____
ROOT
ATOM      1  O   UNL     1      33.822 -23.774 -19.488  0.00  0.00    -0.270 OA
ATOM      2  N   UNL     1      33.991 -22.580 -17.509  0.00  0.00    -0.303 N 
ATOM      3  C   UNL     1      34.023 -22.726 -18.879  0.00  0.00    +0.246 C 
ATOM      4  H   UNL     1      34.168 -21.694 -17.118  0.00  0.00    +0.150 HD
ENDROOT
BRANCH   3   6
ATOM      5 CL   UNL     1      35.353 -17.786 -21.945  0.00  0.00    -0.082 Cl
ATOM      6  C   UNL     1      34.355 -21.495 -19.644  0.00  0.00    +0.053 C 
ATOM      7  C   UNL     1      35.680 -21.151 -19.810  0.00  0.00    +0.005 C 
ATOM      8  C   UNL     1      33.326 -20.736 -20.162  0.00  0.00    +0.005 C 
ATOM      9  C   UNL     1      35.992 -19.996 -20.526  0.00  0.00    +0.012 C 
ATOM     10  C   UNL     1      33.638 -19.581 -20.879  0.00  0.00    +0.012 C 
ATOM     11  C   UNL     1      34.970 -19.210 -21.061  0.00  0.00    +0.058 C 
ENDBRANCH   3   6
BRANCH   2  12
ATOM     12  C   UNL     1      33.706 -23.701 -16.621  0.00  0.00    +0.067 C 
BRANCH  12  13
ATOM     13  C   UNL     1      32.721 -23.283 -15.537  0.00  0.00    -0.055 C 
BRANCH  13  15
ATOM     14  O   UNL     1      28.714 -24.457 -15.111  0.00  0.00    -0.358 OA
ATOM     15  N   UNL     1      31.447 -23.970 -15.740  0.00  0.00    +0.391 N 
ATOM     16  C   UNL     1      30.393 -23.016 -16.108  0.00  0.00    -0.045 C 
ATOM     17  C   UNL     1      31.057 -24.711 -14.532  0.00  0.00    -0.045 C 
ATOM     18  C   UNL     1      29.071 -23.754 -16.302  0.00  0.00    +0.119 C 
ATOM     19  C   UNL     1      29.720 -25.410 -14.764  0.00  0.00    +0.119 C 
ATOM     20  H   UNL     1      31.569 -24.634 -16.505  0.00  0.00    -0.079 HD
ENDBRANCH  13  15
ENDBRANCH  12  13
ENDBRANCH   2  12
TORSDOF 4
ENDMDL
MODEL 6
REMARK VINA RESULT:      -8.5      5.501      9.276
REMARK  Name = 4235
REMARK  4 active torsions:
REMARK  status: ('A' for Active; 'I' for Inactive)
REMARK    1  A    between atoms: N_2  and  C_12
REMARK    2  A    between atoms: C_3  and  C_6
REMARK    3  A    between atoms: C_12  and  C_13
REMARK    4  A    between atoms: C_13  and  N_15
REMARK                            x       y       z     vdW  Elec       q    Type
REMARK                         _______ _______ _______ _____ _____    ______ ____
ROOT
ATOM      1  O   UNL     1      36.601 -18.611 -21.519  0.00  0.00    -0.270 OA
ATOM      2  N   UNL     1      34.572 -18.623 -22.638  0.00  0.00    -0.303 N 
ATOM      3  C   UNL     1      35.452 -19.022 -21.655  0.00  0.00    +0.246 C 
ATOM      4  H   UNL     1      33.669 -19.016 -22.660  0.00  0.00    +0.150 HD
ENDROOT
BRANCH   3   6
ATOM      5 CL   UNL     1      33.379 -23.167 -17.898  0.00  0.00    -0.082 Cl
ATOM      6  C   UNL     1      34.936 -20.055 -20.718  0.00  0.00    +0.053 C 
ATOM      7  C   UNL     1      35.836 -20.868 -20.061  0.00  0.00    +0.005 C 
ATOM      8  C   UNL     1      33.573 -20.167 -20.537  0.00  0.00    +0.005 C 
ATOM      9  C   UNL     1      35.351 -21.838 -19.183  0.00  0.00    +0.012 C 
ATOM     10  C   UNL     1      33.089 -21.136 -19.658  0.00  0.00    +0.012 C 
ATOM     11  C   UNL     1      33.977 -21.972 -18.981  0.00  0.00    +0.058 C 
ENDBRANCH   3   6
BRANCH   2  12
ATOM     12  C   UNL     1      34.939 -17.637 -23.647  0.00  0.00    +0.067 C 
BRANCH  12  13
ATOM     13  C   UNL     1      35.244 -16.295 -22.993  0.00  0.00    -0.055 C 
BRANCH  13  15
ATOM     14  O   UNL     1      32.579 -13.720 -21.023  0.00  0.00    -0.358 OA
ATOM     15  N   UNL     1      34.020 -15.737 -22.422  0.00  0.00    +0.391 N 
ATOM     16  C   UNL     1      33.690 -14.452 -23.052  0.00  0.00    -0.045 C 
ATOM     17  C   UNL     1      34.153 -15.566 -20.969  0.00  0.00    -0.045 C 
ATOM     18  C   UNL     1      32.416 -13.884 -22.433  0.00  0.00    +0.119 C 
ATOM     19  C   UNL     1      32.868 -14.972 -20.398  0.00  0.00    +0.119 C 
ATOM     20  H   UNL     1      33.262 -16.395 -22.605  0.00  0.00    -0.079 HD
ENDBRANCH  13  15
ENDBRANCH  12  13
ENDBRANCH   2  12
TORSDOF 4
ENDMDL
MODEL 7
REMARK VINA RESULT:      -8.4      1.595      2.091
REMARK  Name = 4235
REMARK  4 active torsions:
REMARK  status: ('A' for Active; 'I' for Inactive)
REMARK    1  A    between atoms: N_2  and  C_12
REMARK    2  A    between atoms: C_3  and  C_6
REMARK    3  A    between atoms: C_12  and  C_13
REMARK    4  A    between atoms: C_13  and  N_15
REMARK                            x       y       z     vdW  Elec       q    Type
REMARK                         _______ _______ _______ _____ _____    ______ ____
ROOT
ATOM      1  O   UNL     1      33.587 -23.914 -18.644  0.00  0.00    -0.270 OA
ATOM      2  N   UNL     1      34.786 -22.727 -17.055  0.00  0.00    -0.303 N 
ATOM      3  C   UNL     1      34.183 -22.902 -18.283  0.00  0.00    +0.246 C 
ATOM      4  H   UNL     1      35.240 -21.874 -16.863  0.00  0.00    +0.150 HD
ENDROOT
BRANCH   3   6
ATOM      5 CL   UNL     1      34.683 -18.310 -22.057  0.00  0.00    -0.082 Cl
ATOM      6  C   UNL     1      34.308 -21.758 -19.224  0.00  0.00    +0.053 C 
ATOM      7  C   UNL     1      35.565 -21.365 -19.631  0.00  0.00    +0.005 C 
ATOM      8  C   UNL     1      33.161 -21.126 -19.659  0.00  0.00    +0.005 C 
ATOM      9  C   UNL     1      35.683 -20.291 -20.513  0.00  0.00    +0.012 C 
ATOM     10  C   UNL     1      33.278 -20.053 -20.542  0.00  0.00    +0.012 C 
ATOM     11  C   UNL     1      34.539 -19.634 -20.969  0.00  0.00    +0.058 C 
ENDBRANCH   3   6
BRANCH   2  12
ATOM     12  C   UNL     1      34.773 -23.767 -16.034  0.00  0.00    +0.067 C 
BRANCH  12  13
ATOM     13  C   UNL     1      34.640 -23.150 -14.648  0.00  0.00    -0.055 C 
BRANCH  13  15
ATOM     14  O   UNL     1      36.520 -25.790 -11.981  0.00  0.00    -0.358 OA
ATOM     15  N   UNL     1      35.626 -23.745 -13.749  0.00  0.00    +0.391 N 
ATOM     16  C   UNL     1      36.063 -25.056 -14.249  0.00  0.00    -0.045 C 
ATOM     17  C   UNL     1      35.079 -23.881 -12.392  0.00  0.00    -0.045 C 
ATOM     18  C   UNL     1      37.082 -25.662 -13.288  0.00  0.00    +0.119 C 
ATOM     19  C   UNL     1      36.122 -24.514 -11.475  0.00  0.00    +0.119 C 
ATOM     20  H   UNL     1      36.434 -23.123 -13.715  0.00  0.00    -0.079 HD
ENDBRANCH  13  15
ENDBRANCH  12  13
ENDBRANCH   2  12
TORSDOF 4
ENDMDL
MODEL 8
REMARK VINA RESULT:      -8.4      6.070     10.669
REMARK  Name = 4235
REMARK  4 active torsions:
REMARK  status: ('A' for Active; 'I' for Inactive)
REMARK    1  A    between atoms: N_2  and  C_12
REMARK    2  A    between atoms: C_3  and  C_6
REMARK    3  A    between atoms: C_12  and  C_13
REMARK    4  A    between atoms: C_13  and  N_15
REMARK                            x       y       z     vdW  Elec       q    Type
REMARK                         _______ _______ _______ _____ _____    ______ ____
ROOT
ATOM      1  O   UNL     1      34.715 -18.542 -23.534  0.00  0.00    -0.270 OA
ATOM      2  N   UNL     1      34.670 -16.979 -21.824  0.00  0.00    -0.303 N 
ATOM      3  C   UNL     1      34.649 -18.257 -22.341  0.00  0.00    +0.246 C 
ATOM      4  H   UNL     1      34.610 -16.857 -20.848  0.00  0.00    +0.150 HD
ENDROOT
BRANCH   3   6
ATOM      5 CL   UNL     1      34.092 -22.633 -18.326  0.00  0.00    -0.082 Cl
ATOM      6  C   UNL     1      34.510 -19.347 -21.340  0.00  0.00    +0.053 C 
ATOM      7  C   UNL     1      35.650 -19.954 -20.854  0.00  0.00    +0.005 C 
ATOM      8  C   UNL     1      33.246 -19.717 -20.930  0.00  0.00    +0.005 C 
ATOM      9  C   UNL     1      35.520 -20.977 -19.916  0.00  0.00    +0.012 C 
ATOM     10  C   UNL     1      33.117 -20.740 -19.991  0.00  0.00    +0.012 C 
ATOM     11  C   UNL     1      34.253 -21.371 -19.484  0.00  0.00    +0.058 C 
ENDBRANCH   3   6
BRANCH   2  12
ATOM     12  C   UNL     1      34.774 -15.803 -22.679  0.00  0.00    +0.067 C 
BRANCH  12  13
ATOM     13  C   UNL     1      33.579 -14.883 -22.467  0.00  0.00    -0.055 C 
BRANCH  13  15
ATOM     14  O   UNL     1      33.702 -13.380 -26.383  0.00  0.00    -0.358 OA
ATOM     15  N   UNL     1      33.169 -14.307 -23.745  0.00  0.00    +0.391 N 
ATOM     16  C   UNL     1      33.439 -15.240 -24.848  0.00  0.00    -0.045 C 
ATOM     17  C   UNL     1      33.855 -13.031 -23.987  0.00  0.00    -0.045 C 
ATOM     18  C   UNL     1      33.013 -14.613 -26.173  0.00  0.00    +0.119 C 
ATOM     19  C   UNL     1      33.418 -12.455 -25.332  0.00  0.00    +0.119 C 
ATOM     20  H   UNL     1      32.164 -14.135 -23.702  0.00  0.00    -0.079 HD
ENDBRANCH  13  15
ENDBRANCH  12  13
ENDBRANCH   2  12
TORSDOF 4
ENDMDL
MODEL 9
REMARK VINA RESULT:      -8.2      5.558      9.936
REMARK  Name = 4235
REMARK  4 active torsions:
REMARK  status: ('A' for Active; 'I' for Inactive)
REMARK    1  A    between atoms: N_2  and  C_12
REMARK    2  A    between atoms: C_3  and  C_6
REMARK    3  A    between atoms: C_12  and  C_13
REMARK    4  A    between atoms: C_13  and  N_15
REMARK                            x       y       z     vdW  Elec       q    Type
REMARK                         _______ _______ _______ _____ _____    ______ ____
ROOT
ATOM      1  O   UNL     1      34.866 -19.370 -22.848  0.00  0.00    -0.270 OA
ATOM      2  N   UNL     1      34.182 -17.780 -21.307  0.00  0.00    -0.303 N 
ATOM      3  C   UNL     1      34.483 -19.059 -21.723  0.00  0.00    +0.246 C 
ATOM      4  H   UNL     1      33.882 -17.637 -20.380  0.00  0.00    +0.150 HD
ENDROOT
BRANCH   3   6
ATOM      5 CL   UNL     1      33.719 -23.328 -17.627  0.00  0.00    -0.082 Cl
ATOM      6  C   UNL     1      34.293 -20.123 -20.702  0.00  0.00    +0.053 C 
ATOM      7  C   UNL     1      35.402 -20.780 -20.209  0.00  0.00    +0.005 C 
ATOM      8  C   UNL     1      33.014 -20.419 -20.279  0.00  0.00    +0.005 C 
ATOM      9  C   UNL     1      35.223 -21.778 -19.252  0.00  0.00    +0.012 C 
ATOM     10  C   UNL     1      32.835 -21.417 -19.322  0.00  0.00    +0.012 C 
ATOM     11  C   UNL     1      33.940 -22.097 -18.808  0.00  0.00    +0.058 C 
ENDBRANCH   3   6
BRANCH   2  12
ATOM     12  C   UNL     1      34.293 -16.633 -22.200  0.00  0.00    +0.067 C 
BRANCH  12  13
ATOM     13  C   UNL     1      34.884 -15.439 -21.460  0.00  0.00    -0.055 C 
BRANCH  13  15
ATOM     14  O   UNL     1      32.044 -12.845 -23.139  0.00  0.00    -0.358 OA
ATOM     15  N   UNL     1      34.170 -14.222 -21.841  0.00  0.00    +0.391 N 
ATOM     16  C   UNL     1      32.807 -14.226 -21.295  0.00  0.00    -0.045 C 
ATOM     17  C   UNL     1      34.127 -14.079 -23.303  0.00  0.00    -0.045 C 
ATOM     18  C   UNL     1      32.077 -12.953 -21.715  0.00  0.00    +0.119 C 
ATOM     19  C   UNL     1      33.368 -12.808 -23.675  0.00  0.00    +0.119 C 
ATOM     20  H   UNL     1      34.677 -13.428 -21.449  0.00  0.00    -0.079 HD
ENDBRANCH  13  15
ENDBRANCH  12  13
ENDBRANCH   2  12
TORSDOF 4
ENDMDL
