MODEL 1
REMARK VINA RESULT:      -2.7      0.000      0.000
REMARK  Name = 11
REMARK  1 active torsions:
REMARK  status: ('A' for Active; 'I' for Inactive)
REMARK    1  A    between atoms: C_2  and  C_4
REMARK                            x       y       z     vdW  Elec       q    Type
REMARK                         _______ _______ _______ _____ _____    ______ ____
ROOT
ATOM      1 CL   UNL     1      32.853 -20.048 -20.365  0.00  0.00    -0.112 Cl
ATOM      2  C   UNL     1      34.543 -19.859 -20.887  0.00  0.00    +0.112 C 
ENDROOT
BRANCH   2   4
ATOM      3 CL   UNL     1      34.841 -19.315 -23.552  0.00  0.00    -0.112 Cl
ATOM      4  C   UNL     1      34.704 -18.720 -21.880  0.00  0.00    +0.112 C 
ENDBRANCH   2   4
TORSDOF 1
ENDMDL
MODEL 2
REMARK VINA RESULT:      -2.7      0.170      2.940
REMARK  Name = 11
REMARK  1 active torsions:
REMARK  status: ('A' for Active; 'I' for Inactive)
REMARK    1  A    between atoms: C_2  and  C_4
REMARK                            x       y       z     vdW  Elec       q    Type
REMARK                         _______ _______ _______ _____ _____    ______ ____
ROOT
ATOM      1 CL   UNL     1      34.744 -19.133 -23.580  0.00  0.00    -0.112 Cl
ATOM      2  C   UNL     1      34.507 -18.645 -21.885  0.00  0.00    +0.112 C 
ENDROOT
BRANCH   2   4
ATOM      3 CL   UNL     1      32.775 -20.102 -20.347  0.00  0.00    -0.112 Cl
ATOM      4  C   UNL     1      34.427 -19.846 -20.957  0.00  0.00    +0.112 C 
ENDBRANCH   2   4
TORSDOF 1
ENDMDL
MODEL 3
REMARK VINA RESULT:      -2.7     10.078     10.078
REMARK  Name = 11
REMARK  1 active torsions:
REMARK  status: ('A' for Active; 'I' for Inactive)
REMARK    1  A    between atoms: C_2  and  C_4
REMARK                            x       y       z     vdW  Elec       q    Type
REMARK                         _______ _______ _______ _____ _____    ______ ____
ROOT
ATOM      1 CL   UNL     1      40.871 -13.921 -14.704  0.00  0.00    -0.112 Cl
ATOM      2  C   UNL     1      41.001 -15.501 -15.513  0.00  0.00    +0.112 C 
ENDROOT
BRANCH   2   4
ATOM      3 CL   UNL     1      41.084 -14.287 -17.964  0.00  0.00    -0.112 Cl
ATOM      4  C   UNL     1      41.813 -15.414 -16.795  0.00  0.00    +0.112 C 
ENDBRANCH   2   4
TORSDOF 1
ENDMDL
MODEL 4
REMARK VINA RESULT:      -2.7      2.216      2.307
REMARK  Name = 11
REMARK  1 active torsions:
REMARK  status: ('A' for Active; 'I' for Inactive)
REMARK    1  A    between atoms: C_2  and  C_4
REMARK                            x       y       z     vdW  Elec       q    Type
REMARK                         _______ _______ _______ _____ _____    ______ ____
ROOT
ATOM      1 CL   UNL     1      33.017 -20.490 -20.029  0.00  0.00    -0.112 Cl
ATOM      2  C   UNL     1      33.987 -19.451 -21.100  0.00  0.00    +0.112 C 
ENDROOT
BRANCH   2   4
ATOM      3 CL   UNL     1      35.799 -21.037 -19.799  0.00  0.00    -0.112 Cl
ATOM      4  C   UNL     1      35.476 -19.709 -20.940  0.00  0.00    +0.112 C 
ENDBRANCH   2   4
TORSDOF 1
ENDMDL
MODEL 5
REMARK VINA RESULT:      -2.7     10.029     10.310
REMARK  Name = 11
REMARK  1 active torsions:
REMARK  status: ('A' for Active; 'I' for Inactive)
REMARK    1  A    between atoms: C_2  and  C_4
REMARK                            x       y       z     vdW  Elec       q    Type
REMARK                         _______ _______ _______ _____ _____    ______ ____
ROOT
ATOM      1 CL   UNL     1      41.104 -14.199 -17.938  0.00  0.00    -0.112 Cl
ATOM      2  C   UNL     1      41.718 -15.548 -16.952  0.00  0.00    +0.112 C 
ENDROOT
BRANCH   2   4
ATOM      3 CL   UNL     1      40.935 -13.952 -14.871  0.00  0.00    -0.112 Cl
ATOM      4  C   UNL     1      41.074 -15.581 -15.576  0.00  0.00    +0.112 C 
ENDBRANCH   2   4
TORSDOF 1
ENDMDL
MODEL 6
REMARK VINA RESULT:      -2.7      2.749      3.564
REMARK  Name = 11
REMARK  1 active torsions:
REMARK  status: ('A' for Active; 'I' for Inactive)
REMARK    1  A    between atoms: C_2  and  C_4
REMARK                            x       y       z     vdW  Elec       q    Type
REMARK                         _______ _______ _______ _____ _____    ______ ____
ROOT
ATOM      1 CL   UNL     1      32.872 -20.217 -20.327  0.00  0.00    -0.112 Cl
ATOM      2  C   UNL     1      33.854 -21.474 -19.537  0.00  0.00    +0.112 C 
ENDROOT
BRANCH   2   4
ATOM      3 CL   UNL     1      36.324 -21.686 -18.379  0.00  0.00    -0.112 Cl
ATOM      4  C   UNL     1      35.338 -21.284 -19.805  0.00  0.00    +0.112 C 
ENDBRANCH   2   4
TORSDOF 1
ENDMDL
MODEL 7
REMARK VINA RESULT:      -2.6      2.144      2.768
REMARK  Name = 11
REMARK  1 active torsions:
REMARK  status: ('A' for Active; 'I' for Inactive)
REMARK    1  A    between atoms: C_2  and  C_4
REMARK                            x       y       z     vdW  Elec       q    Type
REMARK                         _______ _______ _______ _____ _____    ______ ____
ROOT
ATOM      1 CL   UNL     1      35.906 -20.859 -20.090  0.00  0.00    -0.112 Cl
ATOM      2  C   UNL     1      35.301 -19.531 -21.109  0.00  0.00    +0.112 C 
ENDROOT
BRANCH   2   4
ATOM      3 CL   UNL     1      33.074 -20.604 -19.937  0.00  0.00    -0.112 Cl
ATOM      4  C   UNL     1      33.784 -19.453 -21.094  0.00  0.00    +0.112 C 
ENDBRANCH   2   4
TORSDOF 1
ENDMDL
MODEL 8
REMARK VINA RESULT:      -2.6      2.760      3.388
REMARK  Name = 11
REMARK  1 active torsions:
REMARK  status: ('A' for Active; 'I' for Inactive)
REMARK    1  A    between atoms: C_2  and  C_4
REMARK                            x       y       z     vdW  Elec       q    Type
REMARK                         _______ _______ _______ _____ _____    ______ ____
ROOT
ATOM      1 CL   UNL     1      36.260 -21.304 -19.811  0.00  0.00    -0.112 Cl
ATOM      2  C   UNL     1      34.823 -22.066 -19.088  0.00  0.00    +0.112 C 
ENDROOT
BRANCH   2   4
ATOM      3 CL   UNL     1      33.852 -19.987 -20.578  0.00  0.00    -0.112 Cl
ATOM      4  C   UNL     1      33.535 -21.427 -19.582  0.00  0.00    +0.112 C 
ENDBRANCH   2   4
TORSDOF 1
ENDMDL
MODEL 9
REMARK VINA RESULT:      -2.5      2.139      2.934
REMARK  Name = 11
REMARK  1 active torsions:
REMARK  status: ('A' for Active; 'I' for Inactive)
REMARK    1  A    between atoms: C_2  and  C_4
REMARK                            x       y       z     vdW  Elec       q    Type
REMARK                         _______ _______ _______ _____ _____    ______ ____
ROOT
ATOM      1 CL   UNL     1      34.939 -19.190 -23.877  0.00  0.00    -0.112 Cl
ATOM      2  C   UNL     1      34.702 -19.401 -22.125  0.00  0.00    +0.112 C 
ENDROOT
BRANCH   2   4
ATOM      3 CL   UNL     1      36.823 -19.722 -20.427  0.00  0.00    -0.112 Cl
ATOM      4  C   UNL     1      35.735 -18.632 -21.319  0.00  0.00    +0.112 C 
ENDBRANCH   2   4
TORSDOF 1
ENDMDL
