MODEL 1
REMARK VINA RESULT:      -9.2      0.000      0.000
REMARK  Name = 6869
REMARK  6 active torsions:
REMARK  status: ('A' for Active; 'I' for Inactive)
REMARK    1  A    between atoms: CA_6  and  C_24
REMARK    2  A    between atoms: CA_7  and  N_12
REMARK    3  A    between atoms: C_13  and  C_15
REMARK    4  A    between atoms: C_15  and  O_16
REMARK    5  A    between atoms: O_16  and  C_17
REMARK    6  A    between atoms: C_24  and  O_25
REMARK                            x       y       z     vdW  Elec       q    Type
REMARK                         _______ _______ _______ _____ _____    ______ ____
ROOT
ATOM      1  S   UNL     1      35.654 -25.532 -14.908  0.00  0.00    -0.118 S 
ATOM      2  O   UNL     1      37.921 -21.843 -15.727  0.00  0.00    -0.273 OA
ATOM      3  N   UNL     1      37.240 -23.578 -14.279  0.00  0.00    -0.260 N 
ATOM      4  C   UNL     1      35.804 -23.856 -14.187  0.00  0.00    +0.151 C 
ATOM      5  C   UNL     1      37.352 -25.989 -14.295  0.00  0.00    +0.068 C 
ATOM      6  CA  UNL     1      38.160 -24.683 -14.453  0.00  0.00    +0.184 C 
ATOM      7  CA  UNL     1      35.579 -22.672 -15.138  0.00  0.00    +0.178 C 
ATOM      8  C   UNL     1      37.113 -22.518 -15.130  0.00  0.00    +0.247 C 
ATOM      9  C   UNL     1      37.215 -26.483 -12.849  0.00  0.00    +0.013 C 
ATOM     10  C   UNL     1      37.916 -27.104 -15.178  0.00  0.00    +0.013 C 
ENDROOT
BRANCH   7  12
ATOM     11  O   UNL     1      32.783 -23.042 -15.820  0.00  0.00    -0.271 OA
ATOM     12  N   UNL     1      35.015 -22.962 -16.463  0.00  0.00    -0.293 N 
ATOM     13  C   UNL     1      33.647 -23.123 -16.689  0.00  0.00    +0.267 C 
ATOM     14  H   UNL     1      35.630 -23.048 -17.227  0.00  0.00    +0.150 HD
BRANCH  13  15
ATOM     15  C   UNL     1      33.333 -23.415 -18.140  0.00  0.00    +0.289 C 
BRANCH  15  16
ATOM     16  O   UNL     1      32.699 -22.308 -18.743  0.00  0.00    -0.466 OA
BRANCH  16  17
ATOM     17  C   UNL     1      33.486 -21.465 -19.493  0.00  0.00    +0.139 C 
ATOM     18  C   UNL     1      34.859 -21.663 -19.530  0.00  0.00    +0.037 C 
ATOM     19  C   UNL     1      32.895 -20.427 -20.201  0.00  0.00    +0.037 C 
ATOM     20  C   UNL     1      35.657 -20.808 -20.289  0.00  0.00    +0.003 C 
ATOM     21  C   UNL     1      33.693 -19.572 -20.960  0.00  0.00    +0.003 C 
ATOM     22  C   UNL     1      35.074 -19.762 -21.004  0.00  0.00    +0.000 C 
ENDBRANCH  16  17
ENDBRANCH  15  16
ENDBRANCH  13  15
ENDBRANCH   7  12
BRANCH   6  24
ATOM     23  OXT UNL     1      39.156 -23.944 -12.381  0.00  0.00    -0.248 OA
ATOM     24  C   UNL     1      39.269 -24.494 -13.466  0.00  0.00    +0.333 C 
BRANCH  24  25
ATOM     25  O   UNL     1      40.426 -25.016 -13.940  0.00  0.00    -0.479 OA
ATOM     26  H   UNL     1      40.880 -25.673 -13.449  0.00  0.00    +0.295 HD
ENDBRANCH  24  25
ENDBRANCH   6  24
TORSDOF 6
ENDMDL
MODEL 2
REMARK VINA RESULT:      -9.0      2.294      3.053
REMARK  Name = 6869
REMARK  6 active torsions:
REMARK  status: ('A' for Active; 'I' for Inactive)
REMARK    1  A    between atoms: CA_6  and  C_24
REMARK    2  A    between atoms: CA_7  and  N_12
REMARK    3  A    between atoms: C_13  and  C_15
REMARK    4  A    between atoms: C_15  and  O_16
REMARK    5  A    between atoms: O_16  and  C_17
REMARK    6  A    between atoms: C_24  and  O_25
REMARK                            x       y       z     vdW  Elec       q    Type
REMARK                         _______ _______ _______ _____ _____    ______ ____
ROOT
ATOM      1  S   UNL     1      36.056 -24.489 -15.060  0.00  0.00    -0.118 S 
ATOM      2  O   UNL     1      32.672 -23.048 -12.636  0.00  0.00    -0.273 OA
ATOM      3  N   UNL     1      34.523 -24.474 -12.969  0.00  0.00    -0.260 N 
ATOM      4  C   UNL     1      34.590 -25.209 -14.235  0.00  0.00    +0.151 C 
ATOM      5  C   UNL     1      36.876 -24.178 -13.418  0.00  0.00    +0.068 C 
ATOM      6  CA  UNL     1      35.703 -23.781 -12.495  0.00  0.00    +0.184 C 
ATOM      7  CA  UNL     1      33.227 -24.595 -14.589  0.00  0.00    +0.178 C 
ATOM      8  C   UNL     1      33.314 -23.889 -13.221  0.00  0.00    +0.247 C 
ATOM      9  C   UNL     1      37.606 -25.462 -13.003  0.00  0.00    +0.013 C 
ATOM     10  C   UNL     1      37.878 -23.031 -13.570  0.00  0.00    +0.013 C 
ENDROOT
BRANCH   7  12
ATOM     11  O   UNL     1      30.889 -23.834 -16.129  0.00  0.00    -0.271 OA
ATOM     12  N   UNL     1      33.173 -23.675 -15.733  0.00  0.00    -0.293 N 
ATOM     13  C   UNL     1      31.991 -23.372 -16.410  0.00  0.00    +0.267 C 
ATOM     14  H   UNL     1      34.009 -23.252 -16.036  0.00  0.00    +0.150 HD
BRANCH  13  15
ATOM     15  C   UNL     1      32.212 -22.399 -17.547  0.00  0.00    +0.289 C 
BRANCH  15  16
ATOM     16  O   UNL     1      33.221 -22.870 -18.416  0.00  0.00    -0.466 OA
BRANCH  16  17
ATOM     17  C   UNL     1      33.896 -21.932 -19.161  0.00  0.00    +0.139 C 
ATOM     18  C   UNL     1      33.180 -20.995 -19.892  0.00  0.00    +0.037 C 
ATOM     19  C   UNL     1      35.284 -21.938 -19.173  0.00  0.00    +0.037 C 
ATOM     20  C   UNL     1      33.864 -20.045 -20.650  0.00  0.00    +0.003 C 
ATOM     21  C   UNL     1      35.969 -20.988 -19.929  0.00  0.00    +0.003 C 
ATOM     22  C   UNL     1      35.259 -20.041 -20.668  0.00  0.00    +0.000 C 
ENDBRANCH  16  17
ENDBRANCH  15  16
ENDBRANCH  13  15
ENDBRANCH   7  12
BRANCH   6  24
ATOM     23  OXT UNL     1      35.280 -25.035 -10.475  0.00  0.00    -0.248 OA
ATOM     24  C   UNL     1      35.875 -24.137 -11.052  0.00  0.00    +0.333 C 
BRANCH  24  25
ATOM     25  O   UNL     1      36.786 -23.324 -10.463  0.00  0.00    -0.479 OA
ATOM     26  H   UNL     1      37.468 -23.690  -9.934  0.00  0.00    +0.295 HD
ENDBRANCH  24  25
ENDBRANCH   6  24
TORSDOF 6
ENDMDL
MODEL 3
REMARK VINA RESULT:      -8.8      2.370      3.096
REMARK  Name = 6869
REMARK  6 active torsions:
REMARK  status: ('A' for Active; 'I' for Inactive)
REMARK    1  A    between atoms: CA_6  and  C_24
REMARK    2  A    between atoms: CA_7  and  N_12
REMARK    3  A    between atoms: C_13  and  C_15
REMARK    4  A    between atoms: C_15  and  O_16
REMARK    5  A    between atoms: O_16  and  C_17
REMARK    6  A    between atoms: C_24  and  O_25
REMARK                            x       y       z     vdW  Elec       q    Type
REMARK                         _______ _______ _______ _____ _____    ______ ____
ROOT
ATOM      1  S   UNL     1      37.894 -24.440 -14.561  0.00  0.00    -0.118 S 
ATOM      2  O   UNL     1      33.885 -22.695 -14.010  0.00  0.00    -0.273 OA
ATOM      3  N   UNL     1      35.488 -24.377 -13.594  0.00  0.00    -0.260 N 
ATOM      4  C   UNL     1      36.155 -24.977 -14.753  0.00  0.00    +0.151 C 
ATOM      5  C   UNL     1      37.731 -24.447 -12.706  0.00  0.00    +0.068 C 
ATOM      6  CA  UNL     1      36.289 -23.952 -12.464  0.00  0.00    +0.184 C 
ATOM      7  CA  UNL     1      35.256 -24.103 -15.640  0.00  0.00    +0.178 C 
ATOM      8  C   UNL     1      34.661 -23.569 -14.321  0.00  0.00    +0.247 C 
ATOM      9  C   UNL     1      38.005 -25.875 -12.213  0.00  0.00    +0.013 C 
ATOM     10  C   UNL     1      38.759 -23.482 -12.112  0.00  0.00    +0.013 C 
ENDROOT
BRANCH   7  12
ATOM     11  O   UNL     1      34.332 -23.021 -18.170  0.00  0.00    -0.271 OA
ATOM     12  N   UNL     1      35.907 -23.073 -16.462  0.00  0.00    -0.293 N 
ATOM     13  C   UNL     1      35.378 -22.617 -17.670  0.00  0.00    +0.267 C 
ATOM     14  H   UNL     1      36.755 -22.686 -16.145  0.00  0.00    +0.150 HD
BRANCH  13  15
ATOM     15  C   UNL     1      36.244 -21.557 -18.314  0.00  0.00    +0.289 C 
BRANCH  15  16
ATOM     16  O   UNL     1      36.090 -21.574 -19.716  0.00  0.00    -0.466 OA
BRANCH  16  17
ATOM     17  C   UNL     1      35.532 -20.461 -20.301  0.00  0.00    +0.139 C 
ATOM     18  C   UNL     1      34.153 -20.374 -20.427  0.00  0.00    +0.037 C 
ATOM     19  C   UNL     1      36.356 -19.442 -20.758  0.00  0.00    +0.037 C 
ATOM     20  C   UNL     1      33.586 -19.247 -21.021  0.00  0.00    +0.003 C 
ATOM     21  C   UNL     1      35.791 -18.315 -21.352  0.00  0.00    +0.003 C 
ATOM     22  C   UNL     1      34.405 -18.217 -21.483  0.00  0.00    +0.000 C 
ENDBRANCH  16  17
ENDBRANCH  15  16
ENDBRANCH  13  15
ENDBRANCH   7  12
BRANCH   6  24
ATOM     23  OXT UNL     1      35.980 -24.235 -10.086  0.00  0.00    -0.248 OA
ATOM     24  C   UNL     1      35.629 -24.481 -11.230  0.00  0.00    +0.333 C 
BRANCH  24  25
ATOM     25  O   UNL     1      34.579 -25.277 -11.552  0.00  0.00    -0.479 OA
ATOM     26  H   UNL     1      33.702 -24.977 -11.409  0.00  0.00    +0.295 HD
ENDBRANCH  24  25
ENDBRANCH   6  24
TORSDOF 6
ENDMDL
MODEL 4
REMARK VINA RESULT:      -8.6     10.632     14.924
REMARK  Name = 6869
REMARK  6 active torsions:
REMARK  status: ('A' for Active; 'I' for Inactive)
REMARK    1  A    between atoms: CA_6  and  C_24
REMARK    2  A    between atoms: CA_7  and  N_12
REMARK    3  A    between atoms: C_13  and  C_15
REMARK    4  A    between atoms: C_15  and  O_16
REMARK    5  A    between atoms: O_16  and  C_17
REMARK    6  A    between atoms: C_24  and  O_25
REMARK                            x       y       z     vdW  Elec       q    Type
REMARK                         _______ _______ _______ _____ _____    ______ ____
ROOT
ATOM      1  S   UNL     1      31.981 -10.429 -22.304  0.00  0.00    -0.118 S 
ATOM      2  O   UNL     1      35.787  -9.904 -24.461  0.00  0.00    -0.273 OA
ATOM      3  N   UNL     1      33.542  -9.305 -24.042  0.00  0.00    -0.260 N 
ATOM      4  C   UNL     1      32.545 -10.379 -24.044  0.00  0.00    +0.151 C 
ATOM      5  C   UNL     1      32.270  -8.599 -22.116  0.00  0.00    +0.068 C 
ATOM      6  CA  UNL     1      33.538  -8.343 -22.960  0.00  0.00    +0.184 C 
ATOM      7  CA  UNL     1      33.677 -11.341 -24.432  0.00  0.00    +0.178 C 
ATOM      8  C   UNL     1      34.596 -10.104 -24.381  0.00  0.00    +0.247 C 
ATOM      9  C   UNL     1      31.016  -7.869 -22.614  0.00  0.00    +0.013 C 
ATOM     10  C   UNL     1      32.510  -8.282 -20.639  0.00  0.00    +0.013 C 
ENDROOT
BRANCH   7  12
ATOM     11  O   UNL     1      33.306 -14.204 -24.727  0.00  0.00    -0.271 OA
ATOM     12  N   UNL     1      34.036 -12.391 -23.468  0.00  0.00    -0.293 N 
ATOM     13  C   UNL     1      33.816 -13.748 -23.706  0.00  0.00    +0.267 C 
ATOM     14  H   UNL     1      34.451 -12.125 -22.616  0.00  0.00    +0.150 HD
BRANCH  13  15
ATOM     15  C   UNL     1      34.276 -14.616 -22.556  0.00  0.00    +0.289 C 
BRANCH  15  16
ATOM     16  O   UNL     1      35.296 -15.497 -22.974  0.00  0.00    -0.466 OA
BRANCH  16  17
ATOM     17  C   UNL     1      35.104 -16.838 -22.740  0.00  0.00    +0.139 C 
ATOM     18  C   UNL     1      34.974 -17.292 -21.435  0.00  0.00    +0.037 C 
ATOM     19  C   UNL     1      35.046 -17.718 -23.811  0.00  0.00    +0.037 C 
ATOM     20  C   UNL     1      34.781 -18.653 -21.196  0.00  0.00    +0.003 C 
ATOM     21  C   UNL     1      34.853 -19.079 -23.573  0.00  0.00    +0.003 C 
ATOM     22  C   UNL     1      34.720 -19.546 -22.266  0.00  0.00    +0.000 C 
ENDBRANCH  16  17
ENDBRANCH  15  16
ENDBRANCH  13  15
ENDBRANCH   7  12
BRANCH   6  24
ATOM     23  OXT UNL     1      32.858  -6.062 -23.365  0.00  0.00    -0.248 OA
ATOM     24  C   UNL     1      33.632  -6.983 -23.576  0.00  0.00    +0.333 C 
BRANCH  24  25
ATOM     25  O   UNL     1      34.699  -6.907 -24.409  0.00  0.00    -0.479 OA
ATOM     26  H   UNL     1      34.740  -6.232 -25.058  0.00  0.00    +0.295 HD
ENDBRANCH  24  25
ENDBRANCH   6  24
TORSDOF 6
ENDMDL
MODEL 5
REMARK VINA RESULT:      -8.3      8.640     12.218
REMARK  Name = 6869
REMARK  6 active torsions:
REMARK  status: ('A' for Active; 'I' for Inactive)
REMARK    1  A    between atoms: CA_6  and  C_24
REMARK    2  A    between atoms: CA_7  and  N_12
REMARK    3  A    between atoms: C_13  and  C_15
REMARK    4  A    between atoms: C_15  and  O_16
REMARK    5  A    between atoms: O_16  and  C_17
REMARK    6  A    between atoms: C_24  and  O_25
REMARK                            x       y       z     vdW  Elec       q    Type
REMARK                         _______ _______ _______ _____ _____    ______ ____
ROOT
ATOM      1  S   UNL     1      34.577 -16.329 -21.188  0.00  0.00    -0.118 S 
ATOM      2  O   UNL     1      33.029 -15.510 -25.230  0.00  0.00    -0.273 OA
ATOM      3  N   UNL     1      34.631 -16.454 -23.777  0.00  0.00    -0.260 N 
ATOM      4  C   UNL     1      35.198 -15.587 -22.741  0.00  0.00    +0.151 C 
ATOM      5  C   UNL     1      34.592 -18.029 -21.948  0.00  0.00    +0.068 C 
ATOM      6  CA  UNL     1      34.167 -17.777 -23.411  0.00  0.00    +0.184 C 
ATOM      7  CA  UNL     1      34.369 -14.441 -23.339  0.00  0.00    +0.178 C 
ATOM      8  C   UNL     1      33.864 -15.484 -24.356  0.00  0.00    +0.247 C 
ATOM      9  C   UNL     1      36.005 -18.606 -21.786  0.00  0.00    +0.013 C 
ATOM     10  C   UNL     1      33.579 -18.911 -21.217  0.00  0.00    +0.013 C 
ENDROOT
BRANCH   7  12
ATOM     11  O   UNL     1      33.038 -11.887 -23.699  0.00  0.00    -0.271 OA
ATOM     12  N   UNL     1      33.308 -13.861 -22.502  0.00  0.00    -0.293 N 
ATOM     13  C   UNL     1      32.729 -12.619 -22.762  0.00  0.00    +0.267 C 
ATOM     14  H   UNL     1      32.992 -14.373 -21.723  0.00  0.00    +0.150 HD
BRANCH  13  15
ATOM     15  C   UNL     1      31.664 -12.257 -21.750  0.00  0.00    +0.289 C 
BRANCH  15  16
ATOM     16  O   UNL     1      31.038 -11.042 -22.100  0.00  0.00    -0.466 OA
BRANCH  16  17
ATOM     17  C   UNL     1      31.556  -9.889 -21.558  0.00  0.00    +0.139 C 
ATOM     18  C   UNL     1      31.721  -9.795 -20.183  0.00  0.00    +0.037 C 
ATOM     19  C   UNL     1      31.904  -8.837 -22.393  0.00  0.00    +0.037 C 
ATOM     20  C   UNL     1      32.245  -8.625 -19.633  0.00  0.00    +0.003 C 
ATOM     21  C   UNL     1      32.428  -7.668 -21.843  0.00  0.00    +0.003 C 
ATOM     22  C   UNL     1      32.599  -7.562 -20.463  0.00  0.00    +0.000 C 
ENDBRANCH  16  17
ENDBRANCH  15  16
ENDBRANCH  13  15
ENDBRANCH   7  12
BRANCH   6  24
ATOM     23  OXT UNL     1      35.063 -19.885 -24.175  0.00  0.00    -0.248 OA
ATOM     24  C   UNL     1      34.727 -18.735 -24.415  0.00  0.00    +0.333 C 
BRANCH  24  25
ATOM     25  O   UNL     1      34.815 -18.153 -25.636  0.00  0.00    -0.479 OA
ATOM     26  H   UNL     1      35.159 -18.637 -26.362  0.00  0.00    +0.295 HD
ENDBRANCH  24  25
ENDBRANCH   6  24
TORSDOF 6
ENDMDL
MODEL 6
REMARK VINA RESULT:      -8.2      6.503     11.194
REMARK  Name = 6869
REMARK  6 active torsions:
REMARK  status: ('A' for Active; 'I' for Inactive)
REMARK    1  A    between atoms: CA_6  and  C_24
REMARK    2  A    between atoms: CA_7  and  N_12
REMARK    3  A    between atoms: C_13  and  C_15
REMARK    4  A    between atoms: C_15  and  O_16
REMARK    5  A    between atoms: O_16  and  C_17
REMARK    6  A    between atoms: C_24  and  O_25
REMARK                            x       y       z     vdW  Elec       q    Type
REMARK                         _______ _______ _______ _____ _____    ______ ____
ROOT
ATOM      1  S   UNL     1      34.381 -15.008 -23.559  0.00  0.00    -0.118 S 
ATOM      2  O   UNL     1      31.971 -15.363 -19.887  0.00  0.00    -0.273 OA
ATOM      3  N   UNL     1      33.288 -14.104 -21.388  0.00  0.00    -0.260 N 
ATOM      4  C   UNL     1      34.588 -14.658 -21.774  0.00  0.00    +0.151 C 
ATOM      5  C   UNL     1      33.203 -13.578 -23.742  0.00  0.00    +0.068 C 
ATOM      6  CA  UNL     1      32.409 -13.588 -22.418  0.00  0.00    +0.184 C 
ATOM      7  CA  UNL     1      34.310 -15.816 -20.806  0.00  0.00    +0.178 C 
ATOM      8  C   UNL     1      32.973 -15.105 -20.514  0.00  0.00    +0.247 C 
ATOM      9  C   UNL     1      34.033 -12.309 -23.978  0.00  0.00    +0.013 C 
ATOM     10  C   UNL     1      32.289 -13.836 -24.942  0.00  0.00    +0.013 C 
ENDROOT
BRANCH   7  12
ATOM     11  O   UNL     1      36.128 -18.062 -20.542  0.00  0.00    -0.271 OA
ATOM     12  N   UNL     1      34.157 -17.160 -21.380  0.00  0.00    -0.293 N 
ATOM     13  C   UNL     1      35.094 -18.178 -21.193  0.00  0.00    +0.267 C 
ATOM     14  H   UNL     1      33.358 -17.352 -21.922  0.00  0.00    +0.150 HD
BRANCH  13  15
ATOM     15  C   UNL     1      34.697 -19.461 -21.890  0.00  0.00    +0.289 C 
BRANCH  15  16
ATOM     16  O   UNL     1      33.638 -20.093 -21.204  0.00  0.00    -0.466 OA
BRANCH  16  17
ATOM     17  C   UNL     1      33.972 -20.917 -20.155  0.00  0.00    +0.139 C 
ATOM     18  C   UNL     1      35.310 -21.122 -19.847  0.00  0.00    +0.037 C 
ATOM     19  C   UNL     1      32.968 -21.532 -19.422  0.00  0.00    +0.037 C 
ATOM     20  C   UNL     1      35.649 -21.960 -18.784  0.00  0.00    +0.003 C 
ATOM     21  C   UNL     1      33.306 -22.369 -18.359  0.00  0.00    +0.003 C 
ATOM     22  C   UNL     1      34.647 -22.582 -18.040  0.00  0.00    +0.000 C 
ENDBRANCH  16  17
ENDBRANCH  15  16
ENDBRANCH  13  15
ENDBRANCH   7  12
BRANCH   6  24
ATOM     23  OXT UNL     1      31.602 -11.328 -22.687  0.00  0.00    -0.248 OA
ATOM     24  C   UNL     1      31.922 -12.251 -21.954  0.00  0.00    +0.333 C 
BRANCH  24  25
ATOM     25  O   UNL     1      31.883 -12.199 -20.600  0.00  0.00    -0.479 OA
ATOM     26  H   UNL     1      32.126 -11.411 -20.153  0.00  0.00    +0.295 HD
ENDBRANCH  24  25
ENDBRANCH   6  24
TORSDOF 6
ENDMDL
MODEL 7
REMARK VINA RESULT:      -8.1      1.719      2.207
REMARK  Name = 6869
REMARK  6 active torsions:
REMARK  status: ('A' for Active; 'I' for Inactive)
REMARK    1  A    between atoms: CA_6  and  C_24
REMARK    2  A    between atoms: CA_7  and  N_12
REMARK    3  A    between atoms: C_13  and  C_15
REMARK    4  A    between atoms: C_15  and  O_16
REMARK    5  A    between atoms: O_16  and  C_17
REMARK    6  A    between atoms: C_24  and  O_25
REMARK                            x       y       z     vdW  Elec       q    Type
REMARK                         _______ _______ _______ _____ _____    ______ ____
ROOT
ATOM      1  S   UNL     1      35.457 -24.891 -14.973  0.00  0.00    -0.118 S 
ATOM      2  O   UNL     1      38.953 -22.599 -16.365  0.00  0.00    -0.273 OA
ATOM      3  N   UNL     1      37.737 -23.695 -14.665  0.00  0.00    -0.260 N 
ATOM      4  C   UNL     1      36.322 -23.345 -14.513  0.00  0.00    +0.151 C 
ATOM      5  C   UNL     1      36.865 -25.919 -14.320  0.00  0.00    +0.068 C 
ATOM      6  CA  UNL     1      38.118 -25.092 -14.681  0.00  0.00    +0.184 C 
ATOM      7  CA  UNL     1      36.526 -22.310 -15.629  0.00  0.00    +0.178 C 
ATOM      8  C   UNL     1      37.988 -22.798 -15.663  0.00  0.00    +0.247 C 
ATOM      9  C   UNL     1      36.646 -26.118 -12.814  0.00  0.00    +0.013 C 
ATOM     10  C   UNL     1      36.866 -27.273 -15.032  0.00  0.00    +0.013 C 
ENDROOT
BRANCH   7  12
ATOM     11  O   UNL     1      36.858 -20.850 -18.115  0.00  0.00    -0.271 OA
ATOM     12  N   UNL     1      35.798 -22.515 -16.889  0.00  0.00    -0.293 N 
ATOM     13  C   UNL     1      36.033 -21.756 -18.035  0.00  0.00    +0.267 C 
ATOM     14  H   UNL     1      35.112 -23.221 -16.925  0.00  0.00    +0.150 HD
BRANCH  13  15
ATOM     15  C   UNL     1      35.150 -22.171 -19.192  0.00  0.00    +0.289 C 
BRANCH  15  16
ATOM     16  O   UNL     1      35.592 -21.578 -20.393  0.00  0.00    -0.466 OA
BRANCH  16  17
ATOM     17  C   UNL     1      35.124 -20.317 -20.681  0.00  0.00    +0.139 C 
ATOM     18  C   UNL     1      33.760 -20.066 -20.629  0.00  0.00    +0.037 C 
ATOM     19  C   UNL     1      36.022 -19.315 -21.020  0.00  0.00    +0.037 C 
ATOM     20  C   UNL     1      33.285 -18.788 -20.922  0.00  0.00    +0.003 C 
ATOM     21  C   UNL     1      35.548 -18.037 -21.313  0.00  0.00    +0.003 C 
ATOM     22  C   UNL     1      34.179 -17.773 -21.263  0.00  0.00    +0.000 C 
ENDBRANCH  16  17
ENDBRANCH  15  16
ENDBRANCH  13  15
ENDBRANCH   7  12
BRANCH   6  24
ATOM     23  OXT UNL     1      40.080 -26.167 -13.772  0.00  0.00    -0.248 OA
ATOM     24  C   UNL     1      39.278 -25.246 -13.748  0.00  0.00    +0.333 C 
BRANCH  24  25
ATOM     25  O   UNL     1      39.320 -24.219 -12.864  0.00  0.00    -0.479 OA
ATOM     26  H   UNL     1      39.722 -24.339 -12.026  0.00  0.00    +0.295 HD
ENDBRANCH  24  25
ENDBRANCH   6  24
TORSDOF 6
ENDMDL
MODEL 8
REMARK VINA RESULT:      -8.0      8.722     13.184
REMARK  Name = 6869
REMARK  6 active torsions:
REMARK  status: ('A' for Active; 'I' for Inactive)
REMARK    1  A    between atoms: CA_6  and  C_24
REMARK    2  A    between atoms: CA_7  and  N_12
REMARK    3  A    between atoms: C_13  and  C_15
REMARK    4  A    between atoms: C_15  and  O_16
REMARK    5  A    between atoms: O_16  and  C_17
REMARK    6  A    between atoms: C_24  and  O_25
REMARK                            x       y       z     vdW  Elec       q    Type
REMARK                         _______ _______ _______ _____ _____    ______ ____
ROOT
ATOM      1  S   UNL     1      31.972 -13.239 -21.421  0.00  0.00    -0.118 S 
ATOM      2  O   UNL     1      34.686 -11.277 -24.284  0.00  0.00    -0.273 OA
ATOM      3  N   UNL     1      32.571 -11.515 -23.263  0.00  0.00    -0.260 N 
ATOM      4  C   UNL     1      31.994 -12.861 -23.211  0.00  0.00    +0.151 C 
ATOM      5  C   UNL     1      31.721 -11.441 -21.005  0.00  0.00    +0.068 C 
ATOM      6  CA  UNL     1      32.566 -10.702 -22.065  0.00  0.00    +0.184 C 
ATOM      7  CA  UNL     1      33.216 -13.345 -24.005  0.00  0.00    +0.178 C 
ATOM      8  C   UNL     1      33.685 -11.877 -23.965  0.00  0.00    +0.247 C 
ATOM      9  C   UNL     1      30.217 -11.146 -21.071  0.00  0.00    +0.013 C 
ATOM     10  C   UNL     1      32.245 -11.179 -19.592  0.00  0.00    +0.013 C 
ENDROOT
BRANCH   7  12
ATOM     11  O   UNL     1      33.789 -16.088 -24.762  0.00  0.00    -0.271 OA
ATOM     12  N   UNL     1      34.131 -14.283 -23.338  0.00  0.00    -0.293 N 
ATOM     13  C   UNL     1      34.339 -15.589 -23.784  0.00  0.00    +0.267 C 
ATOM     14  H   UNL     1      34.620 -13.975 -22.541  0.00  0.00    +0.150 HD
BRANCH  13  15
ATOM     15  C   UNL     1      35.328 -16.341 -22.921  0.00  0.00    +0.289 C 
BRANCH  15  16
ATOM     16  O   UNL     1      34.751 -16.670 -21.675  0.00  0.00    -0.466 OA
BRANCH  16  17
ATOM     17  C   UNL     1      34.851 -17.978 -21.262  0.00  0.00    +0.139 C 
ATOM     18  C   UNL     1      33.695 -18.710 -21.027  0.00  0.00    +0.037 C 
ATOM     19  C   UNL     1      36.104 -18.546 -21.086  0.00  0.00    +0.037 C 
ATOM     20  C   UNL     1      33.796 -20.036 -20.607  0.00  0.00    +0.003 C 
ATOM     21  C   UNL     1      36.206 -19.872 -20.666  0.00  0.00    +0.003 C 
ATOM     22  C   UNL     1      35.051 -20.617 -20.427  0.00  0.00    +0.000 C 
ENDBRANCH  16  17
ENDBRANCH  15  16
ENDBRANCH  13  15
ENDBRANCH   7  12
BRANCH   6  24
ATOM     23  OXT UNL     1      31.447  -9.094 -23.477  0.00  0.00    -0.248 OA
ATOM     24  C   UNL     1      32.063  -9.347 -22.453  0.00  0.00    +0.333 C 
BRANCH  24  25
ATOM     25  O   UNL     1      32.386  -8.428 -21.509  0.00  0.00    -0.479 OA
ATOM     26  H   UNL     1      33.009  -7.756 -21.704  0.00  0.00    +0.295 HD
ENDBRANCH  24  25
ENDBRANCH   6  24
TORSDOF 6
ENDMDL
MODEL 9
REMARK VINA RESULT:      -8.0      3.196      4.589
REMARK  Name = 6869
REMARK  6 active torsions:
REMARK  status: ('A' for Active; 'I' for Inactive)
REMARK    1  A    between atoms: CA_6  and  C_24
REMARK    2  A    between atoms: CA_7  and  N_12
REMARK    3  A    between atoms: C_13  and  C_15
REMARK    4  A    between atoms: C_15  and  O_16
REMARK    5  A    between atoms: O_16  and  C_17
REMARK    6  A    between atoms: C_24  and  O_25
REMARK                            x       y       z     vdW  Elec       q    Type
REMARK                         _______ _______ _______ _____ _____    ______ ____
ROOT
ATOM      1  S   UNL     1      35.642 -25.024 -13.029  0.00  0.00    -0.118 S 
ATOM      2  O   UNL     1      35.372 -23.216 -17.038  0.00  0.00    -0.273 OA
ATOM      3  N   UNL     1      36.426 -23.455 -14.940  0.00  0.00    -0.260 N 
ATOM      4  C   UNL     1      35.585 -23.340 -13.745  0.00  0.00    +0.151 C 
ATOM      5  C   UNL     1      37.369 -25.282 -13.675  0.00  0.00    +0.068 C 
ATOM      6  CA  UNL     1      37.360 -24.558 -15.039  0.00  0.00    +0.184 C 
ATOM      7  CA  UNL     1      34.410 -23.027 -14.681  0.00  0.00    +0.178 C 
ATOM      8  C   UNL     1      35.425 -23.188 -15.830  0.00  0.00    +0.247 C 
ATOM      9  C   UNL     1      38.350 -24.697 -12.651  0.00  0.00    +0.013 C 
ATOM     10  C   UNL     1      37.619 -26.782 -13.842  0.00  0.00    +0.013 C 
ENDROOT
BRANCH   7  12
ATOM     11  O   UNL     1      32.104 -23.142 -12.922  0.00  0.00    -0.271 OA
ATOM     12  N   UNL     1      33.301 -23.990 -14.726  0.00  0.00    -0.293 N 
ATOM     13  C   UNL     1      32.232 -23.961 -13.830  0.00  0.00    +0.267 C 
ATOM     14  H   UNL     1      33.312 -24.689 -15.419  0.00  0.00    +0.150 HD
BRANCH  13  15
ATOM     15  C   UNL     1      31.228 -25.061 -14.094  0.00  0.00    +0.289 C 
BRANCH  15  16
ATOM     16  O   UNL     1      29.913 -24.597 -13.881  0.00  0.00    -0.466 OA
BRANCH  16  17
ATOM     17  C   UNL     1      29.264 -24.032 -14.955  0.00  0.00    +0.139 C 
ATOM     18  C   UNL     1      28.912 -24.827 -16.036  0.00  0.00    +0.037 C 
ATOM     19  C   UNL     1      28.974 -22.675 -14.941  0.00  0.00    +0.037 C 
ATOM     20  C   UNL     1      28.256 -24.254 -17.126  0.00  0.00    +0.003 C 
ATOM     21  C   UNL     1      28.318 -22.102 -16.030  0.00  0.00    +0.003 C 
ATOM     22  C   UNL     1      27.959 -22.891 -17.122  0.00  0.00    +0.000 C 
ENDBRANCH  16  17
ENDBRANCH  15  16
ENDBRANCH  13  15
ENDBRANCH   7  12
BRANCH   6  24
ATOM     23  OXT UNL     1      39.767 -24.454 -15.189  0.00  0.00    -0.248 OA
ATOM     24  C   UNL     1      38.674 -23.987 -15.470  0.00  0.00    +0.333 C 
BRANCH  24  25
ATOM     25  O   UNL     1      38.489 -22.871 -16.218  0.00  0.00    -0.479 OA
ATOM     26  H   UNL     1      37.769 -22.299 -16.035  0.00  0.00    +0.295 HD
ENDBRANCH  24  25
ENDBRANCH   6  24
TORSDOF 6
ENDMDL
