MODEL 1
REMARK VINA RESULT:      -8.2      0.000      0.000
REMARK  Name = 180559
REMARK  9 active torsions:
REMARK  status: ('A' for Active; 'I' for Inactive)
REMARK    1  A    between atoms: O_1  and  C_2
REMARK    2  A    between atoms: O_1  and  C_14
REMARK    3  A    between atoms: C_3  and  C_8
REMARK    4  A    between atoms: C_8  and  C_11
REMARK    5  A    between atoms: C_14  and  C_15
REMARK    6  A    between atoms: C_15  and  O_16
REMARK    7  A    between atoms: C_15  and  C_18
REMARK    8  A    between atoms: C_18  and  N_19
REMARK    9  A    between atoms: N_19  and  C_22
REMARK                            x       y       z     vdW  Elec       q    Type
REMARK                         _______ _______ _______ _____ _____    ______ ____
ROOT
ATOM      1  O   UNL     1      35.620 -17.810 -22.578  0.00  0.00    -0.473 OA
ENDROOT
BRANCH   1   2
ATOM      2  C   UNL     1      35.492 -18.815 -21.658  0.00  0.00    +0.139 C 
ATOM      3  C   UNL     1      35.232 -20.860 -19.790  0.00  0.00    -0.013 C 
ATOM      4  C   UNL     1      36.620 -19.301 -21.005  0.00  0.00    +0.037 C 
ATOM      5  C   UNL     1      34.235 -19.343 -21.384  0.00  0.00    +0.037 C 
ATOM      6  C   UNL     1      36.490 -20.327 -20.069  0.00  0.00    -0.001 C 
ATOM      7  C   UNL     1      34.105 -20.368 -20.448  0.00  0.00    -0.001 C 
BRANCH   3   8
ATOM      8  C   UNL     1      35.092 -21.956 -18.789  0.00  0.00    +0.111 C 
BRANCH   8  11
ATOM      9  O   UNL     1      33.951 -23.872 -19.743  0.00  0.00    -0.275 OA
ATOM     10  N   UNL     1      32.763 -22.448 -18.385  0.00  0.00    -0.329 N 
ATOM     11  C   UNL     1      33.902 -22.867 -19.039  0.00  0.00    +0.224 C 
ATOM     12  H   UNL     1      31.927 -22.962 -18.473  0.00  0.00    +0.145 HD
ATOM     13  H   UNL     1      32.784 -21.636 -17.830  0.00  0.00    +0.145 HD
ENDBRANCH   8  11
ENDBRANCH   3   8
ENDBRANCH   1   2
BRANCH   1  14
ATOM     14  C   UNL     1      35.226 -18.111 -23.913  0.00  0.00    +0.232 C 
BRANCH  14  15
ATOM     15  C   UNL     1      34.430 -16.932 -24.470  0.00  0.00    +0.133 C 
BRANCH  15  16
ATOM     16  O   UNL     1      34.886 -16.663 -25.800  0.00  0.00    -0.383 OA
ATOM     17  H   UNL     1      35.757 -17.068 -25.930  0.00  0.00    +0.210 HD
ENDBRANCH  15  16
BRANCH  15  18
ATOM     18  C   UNL     1      34.585 -15.653 -23.644  0.00  0.00    -0.048 C 
BRANCH  18  19
ATOM     19  N   UNL     1      33.479 -15.463 -22.715  0.00  0.00    +0.387 N 
ATOM     20  H   UNL     1      33.224 -16.364 -22.311  0.00  0.00    -0.084 HD
ATOM     21  H   UNL     1      32.691 -15.066 -23.226  0.00  0.00    -0.084 HD
BRANCH  19  22
ATOM     22  C   UNL     1      33.849 -14.547 -21.645  0.00  0.00    -0.062 C 
ATOM     23  C   UNL     1      32.604 -13.832 -21.135  0.00  0.00    -0.023 C 
ATOM     24  C   UNL     1      34.537 -15.327 -20.533  0.00  0.00    -0.023 C 
ENDBRANCH  19  22
ENDBRANCH  18  19
ENDBRANCH  15  18
ENDBRANCH  14  15
ENDBRANCH   1  14
TORSDOF 9
ENDMDL
MODEL 2
REMARK VINA RESULT:      -8.1      3.008      8.133
REMARK  Name = 180559
REMARK  9 active torsions:
REMARK  status: ('A' for Active; 'I' for Inactive)
REMARK    1  A    between atoms: O_1  and  C_2
REMARK    2  A    between atoms: O_1  and  C_14
REMARK    3  A    between atoms: C_3  and  C_8
REMARK    4  A    between atoms: C_8  and  C_11
REMARK    5  A    between atoms: C_14  and  C_15
REMARK    6  A    between atoms: C_15  and  O_16
REMARK    7  A    between atoms: C_15  and  C_18
REMARK    8  A    between atoms: C_18  and  N_19
REMARK    9  A    between atoms: N_19  and  C_22
REMARK                            x       y       z     vdW  Elec       q    Type
REMARK                         _______ _______ _______ _____ _____    ______ ____
ROOT
ATOM      1  O   UNL     1      35.247 -22.908 -17.500  0.00  0.00    -0.473 OA
ENDROOT
BRANCH   1   2
ATOM      2  C   UNL     1      35.072 -22.045 -18.548  0.00  0.00    +0.139 C 
ATOM      3  C   UNL     1      34.715 -20.293 -20.679  0.00  0.00    -0.013 C 
ATOM      4  C   UNL     1      33.786 -21.746 -18.988  0.00  0.00    +0.037 C 
ATOM      5  C   UNL     1      36.180 -21.474 -19.164  0.00  0.00    +0.037 C 
ATOM      6  C   UNL     1      33.608 -20.868 -20.057  0.00  0.00    -0.001 C 
ATOM      7  C   UNL     1      36.001 -20.596 -20.232  0.00  0.00    -0.001 C 
BRANCH   3   8
ATOM      8  C   UNL     1      34.524 -19.353 -21.821  0.00  0.00    +0.111 C 
BRANCH   8  11
ATOM      9  O   UNL     1      35.268 -17.348 -20.678  0.00  0.00    -0.275 OA
ATOM     10  N   UNL     1      36.044 -17.754 -22.802  0.00  0.00    -0.329 N 
ATOM     11  C   UNL     1      35.298 -18.053 -21.681  0.00  0.00    +0.224 C 
ATOM     12  H   UNL     1      36.589 -16.934 -22.827  0.00  0.00    +0.145 HD
ATOM     13  H   UNL     1      36.033 -18.361 -23.577  0.00  0.00    +0.145 HD
ENDBRANCH   8  11
ENDBRANCH   3   8
ENDBRANCH   1   2
BRANCH   1  14
ATOM     14  C   UNL     1      36.143 -22.494 -16.473  0.00  0.00    +0.232 C 
BRANCH  14  15
ATOM     15  C   UNL     1      36.093 -23.513 -15.336  0.00  0.00    +0.133 C 
BRANCH  15  16
ATOM     16  O   UNL     1      36.977 -24.593 -15.653  0.00  0.00    -0.383 OA
ATOM     17  H   UNL     1      37.489 -24.368 -16.445  0.00  0.00    +0.210 HD
ENDBRANCH  15  16
BRANCH  15  18
ATOM     18  C   UNL     1      34.696 -24.092 -15.101  0.00  0.00    -0.048 C 
BRANCH  18  19
ATOM     19  N   UNL     1      33.691 -23.049 -14.940  0.00  0.00    +0.387 N 
ATOM     20  H   UNL     1      33.813 -22.352 -15.674  0.00  0.00    -0.084 HD
ATOM     21  H   UNL     1      33.809 -22.624 -14.021  0.00  0.00    -0.084 HD
BRANCH  19  22
ATOM     22  C   UNL     1      32.347 -23.604 -15.028  0.00  0.00    -0.062 C 
ATOM     23  C   UNL     1      31.524 -23.134 -13.836  0.00  0.00    -0.023 C 
ATOM     24  C   UNL     1      31.713 -23.176 -16.345  0.00  0.00    -0.023 C 
ENDBRANCH  19  22
ENDBRANCH  18  19
ENDBRANCH  15  18
ENDBRANCH  14  15
ENDBRANCH   1  14
TORSDOF 9
ENDMDL
MODEL 3
REMARK VINA RESULT:      -8.1      3.255      8.168
REMARK  Name = 180559
REMARK  9 active torsions:
REMARK  status: ('A' for Active; 'I' for Inactive)
REMARK    1  A    between atoms: O_1  and  C_2
REMARK    2  A    between atoms: O_1  and  C_14
REMARK    3  A    between atoms: C_3  and  C_8
REMARK    4  A    between atoms: C_8  and  C_11
REMARK    5  A    between atoms: C_14  and  C_15
REMARK    6  A    between atoms: C_15  and  O_16
REMARK    7  A    between atoms: C_15  and  C_18
REMARK    8  A    between atoms: C_18  and  N_19
REMARK    9  A    between atoms: N_19  and  C_22
REMARK                            x       y       z     vdW  Elec       q    Type
REMARK                         _______ _______ _______ _____ _____    ______ ____
ROOT
ATOM      1  O   UNL     1      34.310 -23.256 -18.315  0.00  0.00    -0.473 OA
ENDROOT
BRANCH   1   2
ATOM      2  C   UNL     1      34.324 -22.137 -19.104  0.00  0.00    +0.139 C 
ATOM      3  C   UNL     1      34.353 -19.861 -20.703  0.00  0.00    -0.013 C 
ATOM      4  C   UNL     1      35.537 -21.631 -19.561  0.00  0.00    +0.037 C 
ATOM      5  C   UNL     1      33.127 -21.515 -19.440  0.00  0.00    +0.037 C 
ATOM      6  C   UNL     1      35.551 -20.489 -20.363  0.00  0.00    -0.001 C 
ATOM      7  C   UNL     1      33.141 -20.374 -20.241  0.00  0.00    -0.001 C 
BRANCH   3   8
ATOM      8  C   UNL     1      34.368 -18.641 -21.561  0.00  0.00    +0.111 C 
BRANCH   8  11
ATOM      9  O   UNL     1      34.839 -19.552 -23.759  0.00  0.00    -0.275 OA
ATOM     10  N   UNL     1      36.297 -18.014 -22.870  0.00  0.00    -0.329 N 
ATOM     11  C   UNL     1      35.167 -18.803 -22.843  0.00  0.00    +0.224 C 
ATOM     12  H   UNL     1      36.895 -18.035 -23.653  0.00  0.00    +0.145 HD
ATOM     13  H   UNL     1      36.508 -17.429 -22.107  0.00  0.00    +0.145 HD
ENDBRANCH   8  11
ENDBRANCH   3   8
ENDBRANCH   1   2
BRANCH   1  14
ATOM     14  C   UNL     1      33.423 -23.242 -17.201  0.00  0.00    +0.232 C 
BRANCH  14  15
ATOM     15  C   UNL     1      34.247 -23.242 -15.915  0.00  0.00    +0.133 C 
BRANCH  15  16
ATOM     16  O   UNL     1      35.417 -24.039 -16.124  0.00  0.00    -0.383 OA
ATOM     17  H   UNL     1      35.325 -24.536 -16.952  0.00  0.00    +0.210 HD
ENDBRANCH  15  16
BRANCH  15  18
ATOM     18  C   UNL     1      33.492 -23.809 -14.711  0.00  0.00    -0.048 C 
BRANCH  18  19
ATOM     19  N   UNL     1      32.600 -22.826 -14.112  0.00  0.00    +0.387 N 
ATOM     20  H   UNL     1      32.457 -22.060 -14.769  0.00  0.00    -0.084 HD
ATOM     21  H   UNL     1      33.026 -22.483 -13.252  0.00  0.00    -0.084 HD
BRANCH  19  22
ATOM     22  C   UNL     1      31.311 -23.422 -13.786  0.00  0.00    -0.062 C 
ATOM     23  C   UNL     1      30.276 -22.990 -14.816  0.00  0.00    -0.023 C 
ATOM     24  C   UNL     1      31.455 -24.938 -13.746  0.00  0.00    -0.023 C 
ENDBRANCH  19  22
ENDBRANCH  18  19
ENDBRANCH  15  18
ENDBRANCH  14  15
ENDBRANCH   1  14
TORSDOF 9
ENDMDL
MODEL 4
REMARK VINA RESULT:      -8.0      3.229      8.230
REMARK  Name = 180559
REMARK  9 active torsions:
REMARK  status: ('A' for Active; 'I' for Inactive)
REMARK    1  A    between atoms: O_1  and  C_2
REMARK    2  A    between atoms: O_1  and  C_14
REMARK    3  A    between atoms: C_3  and  C_8
REMARK    4  A    between atoms: C_8  and  C_11
REMARK    5  A    between atoms: C_14  and  C_15
REMARK    6  A    between atoms: C_15  and  O_16
REMARK    7  A    between atoms: C_15  and  C_18
REMARK    8  A    between atoms: C_18  and  N_19
REMARK    9  A    between atoms: N_19  and  C_22
REMARK                            x       y       z     vdW  Elec       q    Type
REMARK                         _______ _______ _______ _____ _____    ______ ____
ROOT
ATOM      1  O   UNL     1      34.201 -23.320 -18.364  0.00  0.00    -0.473 OA
ENDROOT
BRANCH   1   2
ATOM      2  C   UNL     1      34.266 -22.178 -19.116  0.00  0.00    +0.139 C 
ATOM      3  C   UNL     1      34.399 -19.860 -20.647  0.00  0.00    -0.013 C 
ATOM      4  C   UNL     1      33.094 -21.526 -19.484  0.00  0.00    +0.037 C 
ATOM      5  C   UNL     1      35.504 -21.680 -19.507  0.00  0.00    +0.037 C 
ATOM      6  C   UNL     1      33.161 -20.364 -20.252  0.00  0.00    -0.001 C 
ATOM      7  C   UNL     1      35.571 -20.518 -20.274  0.00  0.00    -0.001 C 
BRANCH   3   8
ATOM      8  C   UNL     1      34.471 -18.617 -21.468  0.00  0.00    +0.111 C 
BRANCH   8  11
ATOM      9  O   UNL     1      34.828 -19.566 -23.671  0.00  0.00    -0.275 OA
ATOM     10  N   UNL     1      36.314 -17.994 -22.897  0.00  0.00    -0.329 N 
ATOM     11  C   UNL     1      35.197 -18.796 -22.790  0.00  0.00    +0.224 C 
ATOM     12  H   UNL     1      36.867 -18.024 -23.712  0.00  0.00    +0.145 HD
ATOM     13  H   UNL     1      36.561 -17.392 -22.159  0.00  0.00    +0.145 HD
ENDBRANCH   8  11
ENDBRANCH   3   8
ENDBRANCH   1   2
BRANCH   1  14
ATOM     14  C   UNL     1      33.359 -23.283 -17.215  0.00  0.00    +0.232 C 
BRANCH  14  15
ATOM     15  C   UNL     1      34.234 -23.244 -15.964  0.00  0.00    +0.133 C 
BRANCH  15  16
ATOM     16  O   UNL     1      35.397 -24.044 -16.197  0.00  0.00    -0.383 OA
ATOM     17  H   UNL     1      35.604 -24.553 -15.399  0.00  0.00    +0.210 HD
ENDBRANCH  15  16
BRANCH  15  18
ATOM     18  C   UNL     1      33.529 -23.779 -14.715  0.00  0.00    -0.048 C 
BRANCH  18  19
ATOM     19  N   UNL     1      32.595 -22.810 -14.157  0.00  0.00    +0.387 N 
ATOM     20  H   UNL     1      32.427 -22.075 -14.842  0.00  0.00    -0.084 HD
ATOM     21  H   UNL     1      33.002 -22.420 -13.307  0.00  0.00    -0.084 HD
BRANCH  19  22
ATOM     22  C   UNL     1      31.328 -23.445 -13.817  0.00  0.00    -0.062 C 
ATOM     23  C   UNL     1      30.260 -23.013 -14.812  0.00  0.00    -0.023 C 
ATOM     24  C   UNL     1      31.509 -24.957 -13.817  0.00  0.00    -0.023 C 
ENDBRANCH  19  22
ENDBRANCH  18  19
ENDBRANCH  15  18
ENDBRANCH  14  15
ENDBRANCH   1  14
TORSDOF 9
ENDMDL
MODEL 5
REMARK VINA RESULT:      -8.0      4.011      9.093
REMARK  Name = 180559
REMARK  9 active torsions:
REMARK  status: ('A' for Active; 'I' for Inactive)
REMARK    1  A    between atoms: O_1  and  C_2
REMARK    2  A    between atoms: O_1  and  C_14
REMARK    3  A    between atoms: C_3  and  C_8
REMARK    4  A    between atoms: C_8  and  C_11
REMARK    5  A    between atoms: C_14  and  C_15
REMARK    6  A    between atoms: C_15  and  O_16
REMARK    7  A    between atoms: C_15  and  C_18
REMARK    8  A    between atoms: C_18  and  N_19
REMARK    9  A    between atoms: N_19  and  C_22
REMARK                            x       y       z     vdW  Elec       q    Type
REMARK                         _______ _______ _______ _____ _____    ______ ____
ROOT
ATOM      1  O   UNL     1      35.174 -22.862 -17.581  0.00  0.00    -0.473 OA
ENDROOT
BRANCH   1   2
ATOM      2  C   UNL     1      35.007 -21.992 -18.625  0.00  0.00    +0.139 C 
ATOM      3  C   UNL     1      34.668 -20.227 -20.748  0.00  0.00    -0.013 C 
ATOM      4  C   UNL     1      33.724 -21.677 -19.062  0.00  0.00    +0.037 C 
ATOM      5  C   UNL     1      36.121 -21.431 -19.240  0.00  0.00    +0.037 C 
ATOM      6  C   UNL     1      33.554 -20.792 -20.127  0.00  0.00    -0.001 C 
ATOM      7  C   UNL     1      35.951 -20.546 -20.304  0.00  0.00    -0.001 C 
BRANCH   3   8
ATOM      8  C   UNL     1      34.486 -19.281 -21.886  0.00  0.00    +0.111 C 
BRANCH   8  11
ATOM      9  O   UNL     1      35.236 -17.280 -20.737  0.00  0.00    -0.275 OA
ATOM     10  N   UNL     1      36.034 -17.699 -22.852  0.00  0.00    -0.329 N 
ATOM     11  C   UNL     1      35.271 -17.988 -21.740  0.00  0.00    +0.224 C 
ATOM     12  H   UNL     1      36.587 -16.884 -22.872  0.00  0.00    +0.145 HD
ATOM     13  H   UNL     1      36.026 -18.306 -23.626  0.00  0.00    +0.145 HD
ENDBRANCH   8  11
ENDBRANCH   3   8
ENDBRANCH   1   2
BRANCH   1  14
ATOM     14  C   UNL     1      36.137 -22.502 -16.596  0.00  0.00    +0.232 C 
BRANCH  14  15
ATOM     15  C   UNL     1      36.083 -23.519 -15.458  0.00  0.00    +0.133 C 
BRANCH  15  16
ATOM     16  O   UNL     1      35.414 -22.920 -14.344  0.00  0.00    -0.383 OA
ATOM     17  H   UNL     1      35.587 -23.442 -13.546  0.00  0.00    +0.210 HD
ENDBRANCH  15  16
BRANCH  15  18
ATOM     18  C   UNL     1      37.465 -23.983 -14.993  0.00  0.00    -0.048 C 
BRANCH  18  19
ATOM     19  N   UNL     1      37.701 -25.389 -15.293  0.00  0.00    +0.387 N 
ATOM     20  H   UNL     1      37.980 -25.479 -16.269  0.00  0.00    -0.084 HD
ATOM     21  H   UNL     1      36.840 -25.907 -15.119  0.00  0.00    -0.084 HD
BRANCH  19  22
ATOM     22  C   UNL     1      38.752 -25.934 -14.444  0.00  0.00    -0.062 C 
ATOM     23  C   UNL     1      40.105 -25.422 -14.918  0.00  0.00    -0.023 C 
ATOM     24  C   UNL     1      38.483 -25.537 -12.998  0.00  0.00    -0.023 C 
ENDBRANCH  19  22
ENDBRANCH  18  19
ENDBRANCH  15  18
ENDBRANCH  14  15
ENDBRANCH   1  14
TORSDOF 9
ENDMDL
MODEL 6
REMARK VINA RESULT:      -8.0      1.898      2.740
REMARK  Name = 180559
REMARK  9 active torsions:
REMARK  status: ('A' for Active; 'I' for Inactive)
REMARK    1  A    between atoms: O_1  and  C_2
REMARK    2  A    between atoms: O_1  and  C_14
REMARK    3  A    between atoms: C_3  and  C_8
REMARK    4  A    between atoms: C_8  and  C_11
REMARK    5  A    between atoms: C_14  and  C_15
REMARK    6  A    between atoms: C_15  and  O_16
REMARK    7  A    between atoms: C_15  and  C_18
REMARK    8  A    between atoms: C_18  and  N_19
REMARK    9  A    between atoms: N_19  and  C_22
REMARK                            x       y       z     vdW  Elec       q    Type
REMARK                         _______ _______ _______ _____ _____    ______ ____
ROOT
ATOM      1  O   UNL     1      35.039 -15.974 -24.175  0.00  0.00    -0.473 OA
ENDROOT
BRANCH   1   2
ATOM      2  C   UNL     1      34.959 -17.018 -23.292  0.00  0.00    +0.139 C 
ATOM      3  C   UNL     1      34.801 -19.138 -21.499  0.00  0.00    -0.013 C 
ATOM      4  C   UNL     1      35.045 -16.773 -21.925  0.00  0.00    +0.037 C 
ATOM      5  C   UNL     1      34.795 -18.313 -23.769  0.00  0.00    +0.037 C 
ATOM      6  C   UNL     1      34.966 -17.837 -21.026  0.00  0.00    -0.001 C 
ATOM      7  C   UNL     1      34.715 -19.376 -22.871  0.00  0.00    -0.001 C 
BRANCH   3   8
ATOM      8  C   UNL     1      34.716 -20.275 -20.538  0.00  0.00    +0.111 C 
BRANCH   8  11
ATOM      9  O   UNL     1      32.324 -19.927 -20.337  0.00  0.00    -0.275 OA
ATOM     10  N   UNL     1      33.207 -21.927 -19.631  0.00  0.00    -0.329 N 
ATOM     11  C   UNL     1      33.293 -20.661 -20.169  0.00  0.00    +0.224 C 
ATOM     12  H   UNL     1      32.333 -22.287 -19.353  0.00  0.00    +0.145 HD
ATOM     13  H   UNL     1      34.019 -22.473 -19.523  0.00  0.00    +0.145 HD
ENDBRANCH   8  11
ENDBRANCH   3   8
ENDBRANCH   1   2
BRANCH   1  14
ATOM     14  C   UNL     1      34.051 -15.927 -25.200  0.00  0.00    +0.232 C 
BRANCH  14  15
ATOM     15  C   UNL     1      33.080 -14.788 -24.896  0.00  0.00    +0.133 C 
BRANCH  15  16
ATOM     16  O   UNL     1      32.387 -14.446 -26.101  0.00  0.00    -0.383 OA
ATOM     17  H   UNL     1      31.438 -14.377 -25.918  0.00  0.00    +0.210 HD
ENDBRANCH  15  16
BRANCH  15  18
ATOM     18  C   UNL     1      33.769 -13.528 -24.367  0.00  0.00    -0.048 C 
BRANCH  18  19
ATOM     19  N   UNL     1      33.881 -13.533 -22.915  0.00  0.00    +0.387 N 
ATOM     20  H   UNL     1      34.324 -12.667 -22.611  0.00  0.00    -0.084 HD
ATOM     21  H   UNL     1      34.440 -14.338 -22.635  0.00  0.00    -0.084 HD
BRANCH  19  22
ATOM     22  C   UNL     1      32.568 -13.640 -22.292  0.00  0.00    -0.062 C 
ATOM     23  C   UNL     1      32.714 -14.228 -20.895  0.00  0.00    -0.023 C 
ATOM     24  C   UNL     1      31.919 -12.263 -22.250  0.00  0.00    -0.023 C 
ENDBRANCH  19  22
ENDBRANCH  18  19
ENDBRANCH  15  18
ENDBRANCH  14  15
ENDBRANCH   1  14
TORSDOF 9
ENDMDL
MODEL 7
REMARK VINA RESULT:      -7.9      3.623      8.857
REMARK  Name = 180559
REMARK  9 active torsions:
REMARK  status: ('A' for Active; 'I' for Inactive)
REMARK    1  A    between atoms: O_1  and  C_2
REMARK    2  A    between atoms: O_1  and  C_14
REMARK    3  A    between atoms: C_3  and  C_8
REMARK    4  A    between atoms: C_8  and  C_11
REMARK    5  A    between atoms: C_14  and  C_15
REMARK    6  A    between atoms: C_15  and  O_16
REMARK    7  A    between atoms: C_15  and  C_18
REMARK    8  A    between atoms: C_18  and  N_19
REMARK    9  A    between atoms: N_19  and  C_22
REMARK                            x       y       z     vdW  Elec       q    Type
REMARK                         _______ _______ _______ _____ _____    ______ ____
ROOT
ATOM      1  O   UNL     1      34.913 -23.071 -17.597  0.00  0.00    -0.473 OA
ENDROOT
BRANCH   1   2
ATOM      2  C   UNL     1      34.785 -22.148 -18.600  0.00  0.00    +0.139 C 
ATOM      3  C   UNL     1      34.525 -20.276 -20.641  0.00  0.00    -0.013 C 
ATOM      4  C   UNL     1      33.518 -21.767 -19.029  0.00  0.00    +0.037 C 
ATOM      5  C   UNL     1      35.923 -21.600 -19.182  0.00  0.00    +0.037 C 
ATOM      6  C   UNL     1      33.388 -20.829 -20.053  0.00  0.00    -0.001 C 
ATOM      7  C   UNL     1      35.793 -20.662 -20.205  0.00  0.00    -0.001 C 
BRANCH   3   8
ATOM      8  C   UNL     1      34.386 -19.272 -21.735  0.00  0.00    +0.111 C 
BRANCH   8  11
ATOM      9  O   UNL     1      35.319 -17.312 -20.654  0.00  0.00    -0.275 OA
ATOM     10  N   UNL     1      36.203 -17.984 -22.666  0.00  0.00    -0.329 N 
ATOM     11  C   UNL     1      35.329 -18.088 -21.604  0.00  0.00    +0.224 C 
ATOM     12  H   UNL     1      36.863 -17.253 -22.691  0.00  0.00    +0.145 HD
ATOM     13  H   UNL     1      36.168 -18.639 -23.400  0.00  0.00    +0.145 HD
ENDBRANCH   8  11
ENDBRANCH   3   8
ENDBRANCH   1   2
BRANCH   1  14
ATOM     14  C   UNL     1      33.761 -23.307 -16.795  0.00  0.00    +0.232 C 
BRANCH  14  15
ATOM     15  C   UNL     1      34.208 -23.606 -15.365  0.00  0.00    +0.133 C 
BRANCH  15  16
ATOM     16  O   UNL     1      34.911 -22.466 -14.861  0.00  0.00    -0.383 OA
ATOM     17  H   UNL     1      34.469 -21.657 -15.159  0.00  0.00    +0.210 HD
ENDBRANCH  15  16
BRANCH  15  18
ATOM     18  C   UNL     1      35.131 -24.822 -15.260  0.00  0.00    -0.048 C 
BRANCH  18  19
ATOM     19  N   UNL     1      36.537 -24.442 -15.228  0.00  0.00    +0.387 N 
ATOM     20  H   UNL     1      36.615 -23.482 -14.895  0.00  0.00    -0.084 HD
ATOM     21  H   UNL     1      36.917 -24.524 -16.170  0.00  0.00    -0.084 HD
BRANCH  19  22
ATOM     22  C   UNL     1      37.293 -25.317 -14.343  0.00  0.00    -0.062 C 
ATOM     23  C   UNL     1      36.799 -25.144 -12.912  0.00  0.00    -0.023 C 
ATOM     24  C   UNL     1      37.140 -26.758 -14.812  0.00  0.00    -0.023 C 
ENDBRANCH  19  22
ENDBRANCH  18  19
ENDBRANCH  15  18
ENDBRANCH  14  15
ENDBRANCH   1  14
TORSDOF 9
ENDMDL
MODEL 8
REMARK VINA RESULT:      -7.8      1.798      2.942
REMARK  Name = 180559
REMARK  9 active torsions:
REMARK  status: ('A' for Active; 'I' for Inactive)
REMARK    1  A    between atoms: O_1  and  C_2
REMARK    2  A    between atoms: O_1  and  C_14
REMARK    3  A    between atoms: C_3  and  C_8
REMARK    4  A    between atoms: C_8  and  C_11
REMARK    5  A    between atoms: C_14  and  C_15
REMARK    6  A    between atoms: C_15  and  O_16
REMARK    7  A    between atoms: C_15  and  C_18
REMARK    8  A    between atoms: C_18  and  N_19
REMARK    9  A    between atoms: N_19  and  C_22
REMARK                            x       y       z     vdW  Elec       q    Type
REMARK                         _______ _______ _______ _____ _____    ______ ____
ROOT
ATOM      1  O   UNL     1      33.972 -17.593 -21.536  0.00  0.00    -0.473 OA
ENDROOT
BRANCH   1   2
ATOM      2  C   UNL     1      34.023 -18.855 -21.007  0.00  0.00    +0.139 C 
ATOM      3  C   UNL     1      34.127 -21.420 -19.938  0.00  0.00    -0.013 C 
ATOM      4  C   UNL     1      35.255 -19.470 -20.809  0.00  0.00    +0.037 C 
ATOM      5  C   UNL     1      32.843 -19.512 -20.675  0.00  0.00    +0.037 C 
ATOM      6  C   UNL     1      35.307 -20.757 -20.273  0.00  0.00    -0.001 C 
ATOM      7  C   UNL     1      32.896 -20.797 -20.138  0.00  0.00    -0.001 C 
BRANCH   3   8
ATOM      8  C   UNL     1      34.183 -22.796 -19.364  0.00  0.00    +0.111 C 
BRANCH   8  11
ATOM      9  O   UNL     1      35.197 -22.660 -17.164  0.00  0.00    -0.275 OA
ATOM     10  N   UNL     1      32.937 -23.054 -17.312  0.00  0.00    -0.329 N 
ATOM     11  C   UNL     1      34.189 -22.826 -17.844  0.00  0.00    +0.224 C 
ATOM     12  H   UNL     1      32.817 -23.094 -16.334  0.00  0.00    +0.145 HD
ATOM     13  H   UNL     1      32.163 -23.176 -17.907  0.00  0.00    +0.145 HD
ENDBRANCH   8  11
ENDBRANCH   3   8
ENDBRANCH   1   2
BRANCH   1  14
ATOM     14  C   UNL     1      34.954 -16.668 -21.079  0.00  0.00    +0.232 C 
BRANCH  14  15
ATOM     15  C   UNL     1      34.665 -15.299 -21.693  0.00  0.00    +0.133 C 
BRANCH  15  16
ATOM     16  O   UNL     1      33.403 -14.837 -21.201  0.00  0.00    -0.383 OA
ATOM     17  H   UNL     1      33.054 -15.474 -20.559  0.00  0.00    +0.210 HD
ENDBRANCH  15  16
BRANCH  15  18
ATOM     18  C   UNL     1      34.603 -15.322 -23.222  0.00  0.00    -0.048 C 
BRANCH  18  19
ATOM     19  N   UNL     1      35.405 -16.399 -23.787  0.00  0.00    +0.387 N 
ATOM     20  H   UNL     1      35.420 -17.182 -23.134  0.00  0.00    -0.084 HD
ATOM     21  H   UNL     1      36.350 -16.050 -23.946  0.00  0.00    -0.084 HD
BRANCH  19  22
ATOM     22  C   UNL     1      34.853 -16.847 -25.058  0.00  0.00    -0.062 C 
ATOM     23  C   UNL     1      34.389 -18.292 -24.929  0.00  0.00    -0.023 C 
ATOM     24  C   UNL     1      33.706 -15.929 -25.458  0.00  0.00    -0.023 C 
ENDBRANCH  19  22
ENDBRANCH  18  19
ENDBRANCH  15  18
ENDBRANCH  14  15
ENDBRANCH   1  14
TORSDOF 9
ENDMDL
MODEL 9
REMARK VINA RESULT:      -7.8      4.206      6.997
REMARK  Name = 180559
REMARK  9 active torsions:
REMARK  status: ('A' for Active; 'I' for Inactive)
REMARK    1  A    between atoms: O_1  and  C_2
REMARK    2  A    between atoms: O_1  and  C_14
REMARK    3  A    between atoms: C_3  and  C_8
REMARK    4  A    between atoms: C_8  and  C_11
REMARK    5  A    between atoms: C_14  and  C_15
REMARK    6  A    between atoms: C_15  and  O_16
REMARK    7  A    between atoms: C_15  and  C_18
REMARK    8  A    between atoms: C_18  and  N_19
REMARK    9  A    between atoms: N_19  and  C_22
REMARK                            x       y       z     vdW  Elec       q    Type
REMARK                         _______ _______ _______ _____ _____    ______ ____
ROOT
ATOM      1  O   UNL     1      35.148 -23.306 -16.872  0.00  0.00    -0.473 OA
ENDROOT
BRANCH   1   2
ATOM      2  C   UNL     1      33.854 -23.188 -16.440  0.00  0.00    +0.139 C 
ATOM      3  C   UNL     1      31.225 -22.951 -15.562  0.00  0.00    -0.013 C 
ATOM      4  C   UNL     1      33.566 -23.307 -15.084  0.00  0.00    +0.037 C 
ATOM      5  C   UNL     1      32.839 -22.950 -17.360  0.00  0.00    +0.037 C 
ATOM      6  C   UNL     1      32.247 -23.189 -14.644  0.00  0.00    -0.001 C 
ATOM      7  C   UNL     1      31.521 -22.831 -16.920  0.00  0.00    -0.001 C 
BRANCH   3   8
ATOM      8  C   UNL     1      29.816 -22.823 -15.092  0.00  0.00    +0.111 C 
BRANCH   8  11
ATOM      9  O   UNL     1      28.287 -21.911 -16.739  0.00  0.00    -0.275 OA
ATOM     10  N   UNL     1      28.482 -24.194 -16.565  0.00  0.00    -0.329 N 
ATOM     11  C   UNL     1      28.788 -22.898 -16.208  0.00  0.00    +0.224 C 
ATOM     12  H   UNL     1      27.827 -24.367 -17.280  0.00  0.00    +0.145 HD
ATOM     13  H   UNL     1      28.919 -24.947 -16.107  0.00  0.00    +0.145 HD
ENDBRANCH   8  11
ENDBRANCH   3   8
ENDBRANCH   1   2
BRANCH   1  14
ATOM     14  C   UNL     1      36.096 -22.407 -16.306  0.00  0.00    +0.232 C 
BRANCH  14  15
ATOM     15  C   UNL     1      36.951 -21.821 -17.428  0.00  0.00    +0.133 C 
BRANCH  15  16
ATOM     16  O   UNL     1      37.345 -20.497 -17.056  0.00  0.00    -0.383 OA
ATOM     17  H   UNL     1      38.274 -20.503 -16.778  0.00  0.00    +0.210 HD
ENDBRANCH  15  16
BRANCH  15  18
ATOM     18  C   UNL     1      36.218 -21.743 -18.770  0.00  0.00    -0.048 C 
BRANCH  18  19
ATOM     19  N   UNL     1      36.314 -20.419 -19.369  0.00  0.00    +0.387 N 
ATOM     20  H   UNL     1      37.279 -20.246 -19.646  0.00  0.00    -0.084 HD
ATOM     21  H   UNL     1      36.011 -19.729 -18.682  0.00  0.00    -0.084 HD
BRANCH  19  22
ATOM     22  C   UNL     1      35.455 -20.315 -20.542  0.00  0.00    -0.062 C 
ATOM     23  C   UNL     1      34.006 -20.549 -20.133  0.00  0.00    -0.023 C 
ATOM     24  C   UNL     1      35.638 -18.943 -21.177  0.00  0.00    -0.023 C 
ENDBRANCH  19  22
ENDBRANCH  18  19
ENDBRANCH  15  18
ENDBRANCH  14  15
ENDBRANCH   1  14
TORSDOF 9
ENDMDL
