MODEL 1
REMARK VINA RESULT:      -8.6      0.000      0.000
REMARK  Name = 2369
REMARK  12 active torsions:
REMARK  status: ('A' for Active; 'I' for Inactive)
REMARK    1  A    between atoms: C_1  and  C_19
REMARK    2  A    between atoms: C_4  and  O_7
REMARK    3  A    between atoms: O_7  and  C_8
REMARK    4  A    between atoms: C_8  and  C_9
REMARK    5  A    between atoms: C_9  and  O_10
REMARK    6  A    between atoms: C_9  and  C_12
REMARK    7  A    between atoms: C_12  and  N_13
REMARK    8  A    between atoms: N_13  and  C_16
REMARK    9  A    between atoms: C_19  and  C_20
REMARK   10  A    between atoms: C_20  and  O_21
REMARK   11  A    between atoms: O_21  and  C_22
REMARK   12  A    between atoms: C_22  and  C_23
REMARK                            x       y       z     vdW  Elec       q    Type
REMARK                         _______ _______ _______ _____ _____    ______ ____
ROOT
ATOM      1  C   UNL     1      34.334 -20.018 -20.593  0.00  0.00    -0.019 C 
ATOM      2  C   UNL     1      35.537 -20.630 -20.241  0.00  0.00    -0.001 C 
ATOM      3  C   UNL     1      33.127 -20.521 -20.109  0.00  0.00    -0.001 C 
ATOM      4  C   UNL     1      34.325 -22.244 -18.925  0.00  0.00    +0.139 C 
ATOM      5  C   UNL     1      35.533 -21.746 -19.405  0.00  0.00    +0.037 C 
ATOM      6  C   UNL     1      33.122 -21.638 -19.272  0.00  0.00    +0.037 C 
ENDROOT
BRANCH   4   7
ATOM      7  O   UNL     1      34.321 -23.339 -18.104  0.00  0.00    -0.473 OA
BRANCH   7   8
ATOM      8  C   UNL     1      33.419 -23.308 -17.001  0.00  0.00    +0.232 C 
BRANCH   8   9
ATOM      9  C   UNL     1      34.220 -23.421 -15.706  0.00  0.00    +0.133 C 
BRANCH   9  10
ATOM     10  O   UNL     1      35.343 -24.275 -15.939  0.00  0.00    -0.383 OA
ATOM     11  H   UNL     1      35.067 -25.035 -16.474  0.00  0.00    +0.210 HD
ENDBRANCH   9  10
BRANCH   9  12
ATOM     12  C   UNL     1      33.413 -23.999 -14.541  0.00  0.00    -0.048 C 
BRANCH  12  13
ATOM     13  N   UNL     1      32.588 -22.989 -13.892  0.00  0.00    +0.387 N 
ATOM     14  H   UNL     1      32.578 -22.146 -14.466  0.00  0.00    -0.084 HD
ATOM     15  H   UNL     1      32.981 -22.790 -12.972  0.00  0.00    -0.084 HD
BRANCH  13  16
ATOM     16  C   UNL     1      31.221 -23.464 -13.721  0.00  0.00    -0.062 C 
ATOM     17  C   UNL     1      30.339 -22.879 -14.819  0.00  0.00    -0.023 C 
ATOM     18  C   UNL     1      31.185 -24.990 -13.743  0.00  0.00    -0.023 C 
ENDBRANCH  13  16
ENDBRANCH  12  13
ENDBRANCH   9  12
ENDBRANCH   8   9
ENDBRANCH   7   8
ENDBRANCH   4   7
BRANCH   1  19
ATOM     19  C   UNL     1      34.339 -18.824 -21.487  0.00  0.00    +0.058 C 
BRANCH  19  20
ATOM     20  C   UNL     1      35.587 -17.955 -21.318  0.00  0.00    +0.147 C 
BRANCH  20  21
ATOM     21  O   UNL     1      35.278 -16.829 -20.508  0.00  0.00    -0.353 OA
BRANCH  21  22
ATOM     22  C   UNL     1      34.754 -15.758 -21.281  0.00  0.00    +0.142 C 
BRANCH  22  23
ATOM     23  C   UNL     1      33.614 -15.130 -20.554  0.00  0.00    +0.030 C 
ATOM     24  C   UNL     1      32.564 -14.404 -21.337  0.00  0.00    +0.003 C 
ATOM     25  C   UNL     1      32.247 -15.723 -20.695  0.00  0.00    +0.003 C 
ENDBRANCH  22  23
ENDBRANCH  21  22
ENDBRANCH  20  21
ENDBRANCH  19  20
ENDBRANCH   1  19
TORSDOF 12
ENDMDL
MODEL 2
REMARK VINA RESULT:      -8.5      1.511      1.855
REMARK  Name = 2369
REMARK  12 active torsions:
REMARK  status: ('A' for Active; 'I' for Inactive)
REMARK    1  A    between atoms: C_1  and  C_19
REMARK    2  A    between atoms: C_4  and  O_7
REMARK    3  A    between atoms: O_7  and  C_8
REMARK    4  A    between atoms: C_8  and  C_9
REMARK    5  A    between atoms: C_9  and  O_10
REMARK    6  A    between atoms: C_9  and  C_12
REMARK    7  A    between atoms: C_12  and  N_13
REMARK    8  A    between atoms: N_13  and  C_16
REMARK    9  A    between atoms: C_19  and  C_20
REMARK   10  A    between atoms: C_20  and  O_21
REMARK   11  A    between atoms: O_21  and  C_22
REMARK   12  A    between atoms: C_22  and  C_23
REMARK                            x       y       z     vdW  Elec       q    Type
REMARK                         _______ _______ _______ _____ _____    ______ ____
ROOT
ATOM      1  C   UNL     1      35.189 -19.626 -20.923  0.00  0.00    -0.019 C 
ATOM      2  C   UNL     1      35.758 -20.660 -20.180  0.00  0.00    -0.001 C 
ATOM      3  C   UNL     1      33.802 -19.496 -20.990  0.00  0.00    -0.001 C 
ATOM      4  C   UNL     1      33.556 -21.429 -19.573  0.00  0.00    +0.139 C 
ATOM      5  C   UNL     1      34.939 -21.564 -19.502  0.00  0.00    +0.037 C 
ATOM      6  C   UNL     1      32.983 -20.400 -20.312  0.00  0.00    +0.037 C 
ENDROOT
BRANCH   4   7
ATOM      7  O   UNL     1      32.753 -22.316 -18.908  0.00  0.00    -0.473 OA
BRANCH   7   8
ATOM      8  C   UNL     1      33.253 -22.834 -17.678  0.00  0.00    +0.232 C 
BRANCH   8   9
ATOM      9  C   UNL     1      32.075 -23.293 -16.822  0.00  0.00    +0.133 C 
BRANCH   9  10
ATOM     10  O   UNL     1      30.934 -22.495 -17.152  0.00  0.00    -0.383 OA
ATOM     11  H   UNL     1      30.987 -22.224 -18.082  0.00  0.00    +0.210 HD
ENDBRANCH   9  10
BRANCH   9  12
ATOM     12  C   UNL     1      32.330 -23.163 -15.318  0.00  0.00    -0.048 C 
BRANCH  12  13
ATOM     13  N   UNL     1      31.103 -22.913 -14.575  0.00  0.00    +0.387 N 
ATOM     14  H   UNL     1      30.384 -22.581 -15.218  0.00  0.00    -0.084 HD
ATOM     15  H   UNL     1      31.293 -22.212 -13.859  0.00  0.00    -0.084 HD
BRANCH  13  16
ATOM     16  C   UNL     1      30.632 -24.129 -13.923  0.00  0.00    -0.062 C 
ATOM     17  C   UNL     1      29.512 -24.749 -14.752  0.00  0.00    -0.023 C 
ATOM     18  C   UNL     1      31.787 -25.110 -13.738  0.00  0.00    -0.023 C 
ENDBRANCH  13  16
ENDBRANCH  12  13
ENDBRANCH   9  12
ENDBRANCH   8   9
ENDBRANCH   7   8
ENDBRANCH   4   7
BRANCH   1  19
ATOM     19  C   UNL     1      36.064 -18.659 -21.647  0.00  0.00    +0.058 C 
BRANCH  19  20
ATOM     20  C   UNL     1      35.354 -17.969 -22.814  0.00  0.00    +0.147 C 
BRANCH  20  21
ATOM     21  O   UNL     1      35.502 -16.560 -22.695  0.00  0.00    -0.353 OA
BRANCH  21  22
ATOM     22  C   UNL     1      34.319 -15.876 -23.084  0.00  0.00    +0.142 C 
BRANCH  22  23
ATOM     23  C   UNL     1      33.828 -15.046 -21.947  0.00  0.00    +0.030 C 
ATOM     24  C   UNL     1      32.950 -15.678 -20.911  0.00  0.00    +0.003 C 
ATOM     25  C   UNL     1      34.363 -15.306 -20.573  0.00  0.00    +0.003 C 
ENDBRANCH  22  23
ENDBRANCH  21  22
ENDBRANCH  20  21
ENDBRANCH  19  20
ENDBRANCH   1  19
TORSDOF 12
ENDMDL
MODEL 3
REMARK VINA RESULT:      -8.5      1.667      2.240
REMARK  Name = 2369
REMARK  12 active torsions:
REMARK  status: ('A' for Active; 'I' for Inactive)
REMARK    1  A    between atoms: C_1  and  C_19
REMARK    2  A    between atoms: C_4  and  O_7
REMARK    3  A    between atoms: O_7  and  C_8
REMARK    4  A    between atoms: C_8  and  C_9
REMARK    5  A    between atoms: C_9  and  O_10
REMARK    6  A    between atoms: C_9  and  C_12
REMARK    7  A    between atoms: C_12  and  N_13
REMARK    8  A    between atoms: N_13  and  C_16
REMARK    9  A    between atoms: C_19  and  C_20
REMARK   10  A    between atoms: C_20  and  O_21
REMARK   11  A    between atoms: O_21  and  C_22
REMARK   12  A    between atoms: C_22  and  C_23
REMARK                            x       y       z     vdW  Elec       q    Type
REMARK                         _______ _______ _______ _____ _____    ______ ____
ROOT
ATOM      1  C   UNL     1      35.131 -19.590 -20.996  0.00  0.00    -0.019 C 
ATOM      2  C   UNL     1      33.744 -19.439 -21.012  0.00  0.00    -0.001 C 
ATOM      3  C   UNL     1      35.713 -20.606 -20.239  0.00  0.00    -0.001 C 
ATOM      4  C   UNL     1      33.527 -21.316 -19.518  0.00  0.00    +0.139 C 
ATOM      5  C   UNL     1      32.940 -20.304 -20.272  0.00  0.00    +0.037 C 
ATOM      6  C   UNL     1      34.909 -21.473 -19.498  0.00  0.00    +0.037 C 
ENDROOT
BRANCH   4   7
ATOM      7  O   UNL     1      32.737 -22.166 -18.791  0.00  0.00    -0.473 OA
BRANCH   7   8
ATOM      8  C   UNL     1      33.408 -23.111 -17.962  0.00  0.00    +0.232 C 
BRANCH   8   9
ATOM      9  C   UNL     1      32.839 -23.017 -16.548  0.00  0.00    +0.133 C 
BRANCH   9  10
ATOM     10  O   UNL     1      33.702 -23.736 -15.662  0.00  0.00    -0.383 OA
ATOM     11  H   UNL     1      34.604 -23.739 -16.020  0.00  0.00    +0.210 HD
ENDBRANCH   9  10
BRANCH   9  12
ATOM     12  C   UNL     1      31.430 -23.600 -16.420  0.00  0.00    -0.048 C 
BRANCH  12  13
ATOM     13  N   UNL     1      30.410 -22.672 -16.888  0.00  0.00    +0.387 N 
ATOM     14  H   UNL     1      30.208 -22.864 -17.869  0.00  0.00    -0.084 HD
ATOM     15  H   UNL     1      30.758 -21.721 -16.774  0.00  0.00    -0.084 HD
BRANCH  13  16
ATOM     16  C   UNL     1      29.183 -22.813 -16.113  0.00  0.00    -0.062 C 
ATOM     17  C   UNL     1      27.982 -22.779 -17.053  0.00  0.00    -0.023 C 
ATOM     18  C   UNL     1      29.213 -24.109 -15.308  0.00  0.00    -0.023 C 
ENDBRANCH  13  16
ENDBRANCH  12  13
ENDBRANCH   9  12
ENDBRANCH   8   9
ENDBRANCH   7   8
ENDBRANCH   4   7
BRANCH   1  19
ATOM     19  C   UNL     1      35.991 -18.665 -21.789  0.00  0.00    +0.058 C 
BRANCH  19  20
ATOM     20  C   UNL     1      35.216 -17.903 -22.866  0.00  0.00    +0.147 C 
BRANCH  20  21
ATOM     21  O   UNL     1      35.385 -16.504 -22.675  0.00  0.00    -0.353 OA
BRANCH  21  22
ATOM     22  C   UNL     1      34.229 -15.780 -23.074  0.00  0.00    +0.142 C 
BRANCH  22  23
ATOM     23  C   UNL     1      33.718 -14.985 -21.921  0.00  0.00    +0.030 C 
ATOM     24  C   UNL     1      32.945 -15.680 -20.843  0.00  0.00    +0.003 C 
ATOM     25  C   UNL     1      34.334 -15.183 -20.571  0.00  0.00    +0.003 C 
ENDBRANCH  22  23
ENDBRANCH  21  22
ENDBRANCH  20  21
ENDBRANCH  19  20
ENDBRANCH   1  19
TORSDOF 12
ENDMDL
MODEL 4
REMARK VINA RESULT:      -8.3      1.685      2.446
REMARK  Name = 2369
REMARK  12 active torsions:
REMARK  status: ('A' for Active; 'I' for Inactive)
REMARK    1  A    between atoms: C_1  and  C_19
REMARK    2  A    between atoms: C_4  and  O_7
REMARK    3  A    between atoms: O_7  and  C_8
REMARK    4  A    between atoms: C_8  and  C_9
REMARK    5  A    between atoms: C_9  and  O_10
REMARK    6  A    between atoms: C_9  and  C_12
REMARK    7  A    between atoms: C_12  and  N_13
REMARK    8  A    between atoms: N_13  and  C_16
REMARK    9  A    between atoms: C_19  and  C_20
REMARK   10  A    between atoms: C_20  and  O_21
REMARK   11  A    between atoms: O_21  and  C_22
REMARK   12  A    between atoms: C_22  and  C_23
REMARK                            x       y       z     vdW  Elec       q    Type
REMARK                         _______ _______ _______ _____ _____    ______ ____
ROOT
ATOM      1  C   UNL     1      35.187 -19.569 -20.933  0.00  0.00    -0.019 C 
ATOM      2  C   UNL     1      35.757 -20.611 -20.203  0.00  0.00    -0.001 C 
ATOM      3  C   UNL     1      33.800 -19.426 -20.978  0.00  0.00    -0.001 C 
ATOM      4  C   UNL     1      33.559 -21.363 -19.566  0.00  0.00    +0.139 C 
ATOM      5  C   UNL     1      34.942 -21.511 -19.517  0.00  0.00    +0.037 C 
ATOM      6  C   UNL     1      32.983 -20.326 -20.291  0.00  0.00    +0.037 C 
ENDROOT
BRANCH   4   7
ATOM      7  O   UNL     1      32.758 -22.246 -18.893  0.00  0.00    -0.473 OA
BRANCH   7   8
ATOM      8  C   UNL     1      33.326 -22.885 -17.753  0.00  0.00    +0.232 C 
BRANCH   8   9
ATOM      9  C   UNL     1      32.198 -23.360 -16.840  0.00  0.00    +0.133 C 
BRANCH   9  10
ATOM     10  O   UNL     1      31.065 -22.509 -17.038  0.00  0.00    -0.383 OA
ATOM     11  H   UNL     1      30.294 -23.048 -17.277  0.00  0.00    +0.210 HD
ENDBRANCH   9  10
BRANCH   9  12
ATOM     12  C   UNL     1      32.565 -23.329 -15.354  0.00  0.00    -0.048 C 
BRANCH  12  13
ATOM     13  N   UNL     1      33.961 -22.972 -15.144  0.00  0.00    +0.387 N 
ATOM     14  H   UNL     1      34.013 -22.210 -14.467  0.00  0.00    -0.084 HD
ATOM     15  H   UNL     1      34.362 -22.684 -16.036  0.00  0.00    -0.084 HD
BRANCH  13  16
ATOM     16  C   UNL     1      34.720 -24.109 -14.639  0.00  0.00    -0.062 C 
ATOM     17  C   UNL     1      36.146 -24.047 -15.177  0.00  0.00    -0.023 C 
ATOM     18  C   UNL     1      34.708 -24.117 -13.113  0.00  0.00    -0.023 C 
ENDBRANCH  13  16
ENDBRANCH  12  13
ENDBRANCH   9  12
ENDBRANCH   8   9
ENDBRANCH   7   8
ENDBRANCH   4   7
BRANCH   1  19
ATOM     19  C   UNL     1      36.059 -18.606 -21.666  0.00  0.00    +0.058 C 
BRANCH  19  20
ATOM     20  C   UNL     1      35.380 -18.002 -22.897  0.00  0.00    +0.147 C 
BRANCH  20  21
ATOM     21  O   UNL     1      35.470 -16.584 -22.844  0.00  0.00    -0.353 OA
BRANCH  21  22
ATOM     22  C   UNL     1      34.191 -15.975 -22.949  0.00  0.00    +0.142 C 
BRANCH  22  23
ATOM     23  C   UNL     1      34.000 -15.020 -21.821  0.00  0.00    +0.030 C 
ATOM     24  C   UNL     1      32.998 -15.344 -20.756  0.00  0.00    +0.003 C 
ATOM     25  C   UNL     1      34.465 -15.409 -20.452  0.00  0.00    +0.003 C 
ENDBRANCH  22  23
ENDBRANCH  21  22
ENDBRANCH  20  21
ENDBRANCH  19  20
ENDBRANCH   1  19
TORSDOF 12
ENDMDL
MODEL 5
REMARK VINA RESULT:      -8.3      1.747      2.757
REMARK  Name = 2369
REMARK  12 active torsions:
REMARK  status: ('A' for Active; 'I' for Inactive)
REMARK    1  A    between atoms: C_1  and  C_19
REMARK    2  A    between atoms: C_4  and  O_7
REMARK    3  A    between atoms: O_7  and  C_8
REMARK    4  A    between atoms: C_8  and  C_9
REMARK    5  A    between atoms: C_9  and  O_10
REMARK    6  A    between atoms: C_9  and  C_12
REMARK    7  A    between atoms: C_12  and  N_13
REMARK    8  A    between atoms: N_13  and  C_16
REMARK    9  A    between atoms: C_19  and  C_20
REMARK   10  A    between atoms: C_20  and  O_21
REMARK   11  A    between atoms: O_21  and  C_22
REMARK   12  A    between atoms: C_22  and  C_23
REMARK                            x       y       z     vdW  Elec       q    Type
REMARK                         _______ _______ _______ _____ _____    ______ ____
ROOT
ATOM      1  C   UNL     1      34.613 -20.279 -20.631  0.00  0.00    -0.019 C 
ATOM      2  C   UNL     1      35.766 -20.870 -20.117  0.00  0.00    -0.001 C 
ATOM      3  C   UNL     1      33.359 -20.671 -20.162  0.00  0.00    -0.001 C 
ATOM      4  C   UNL     1      34.413 -22.238 -18.667  0.00  0.00    +0.139 C 
ATOM      5  C   UNL     1      35.666 -21.852 -19.131  0.00  0.00    +0.037 C 
ATOM      6  C   UNL     1      33.258 -21.653 -19.176  0.00  0.00    +0.037 C 
ENDROOT
BRANCH   4   7
ATOM      7  O   UNL     1      34.315 -23.203 -17.700  0.00  0.00    -0.473 OA
BRANCH   7   8
ATOM      8  C   UNL     1      33.121 -23.210 -16.923  0.00  0.00    +0.232 C 
BRANCH   8   9
ATOM      9  C   UNL     1      33.478 -23.531 -15.473  0.00  0.00    +0.133 C 
BRANCH   9  10
ATOM     10  O   UNL     1      32.647 -22.745 -14.615  0.00  0.00    -0.383 OA
ATOM     11  H   UNL     1      32.630 -23.141 -13.729  0.00  0.00    +0.210 HD
ENDBRANCH   9  10
BRANCH   9  12
ATOM     12  C   UNL     1      34.940 -23.232 -15.128  0.00  0.00    -0.048 C 
BRANCH  12  13
ATOM     13  N   UNL     1      35.781 -24.415 -15.246  0.00  0.00    +0.387 N 
ATOM     14  H   UNL     1      35.610 -24.859 -16.148  0.00  0.00    -0.084 HD
ATOM     15  H   UNL     1      35.554 -25.054 -14.485  0.00  0.00    -0.084 HD
BRANCH  13  16
ATOM     16  C   UNL     1      37.192 -24.061 -15.151  0.00  0.00    -0.062 C 
ATOM     17  C   UNL     1      37.423 -22.709 -15.819  0.00  0.00    -0.023 C 
ATOM     18  C   UNL     1      37.632 -24.033 -13.690  0.00  0.00    -0.023 C 
ENDBRANCH  13  16
ENDBRANCH  12  13
ENDBRANCH   9  12
ENDBRANCH   8   9
ENDBRANCH   7   8
ENDBRANCH   4   7
BRANCH   1  19
ATOM     19  C   UNL     1      34.719 -19.229 -21.684  0.00  0.00    +0.058 C 
BRANCH  19  20
ATOM     20  C   UNL     1      35.779 -18.170 -21.368  0.00  0.00    +0.147 C 
BRANCH  20  21
ATOM     21  O   UNL     1      35.204 -17.144 -20.569  0.00  0.00    -0.353 OA
BRANCH  21  22
ATOM     22  C   UNL     1      34.712 -16.076 -21.366  0.00  0.00    +0.142 C 
BRANCH  22  23
ATOM     23  C   UNL     1      33.248 -15.919 -21.141  0.00  0.00    +0.030 C 
ATOM     24  C   UNL     1      32.762 -14.813 -20.255  0.00  0.00    +0.003 C 
ATOM     25  C   UNL     1      32.542 -14.740 -21.737  0.00  0.00    +0.003 C 
ENDBRANCH  22  23
ENDBRANCH  21  22
ENDBRANCH  20  21
ENDBRANCH  19  20
ENDBRANCH   1  19
TORSDOF 12
ENDMDL
MODEL 6
REMARK VINA RESULT:      -8.1      2.778      3.614
REMARK  Name = 2369
REMARK  12 active torsions:
REMARK  status: ('A' for Active; 'I' for Inactive)
REMARK    1  A    between atoms: C_1  and  C_19
REMARK    2  A    between atoms: C_4  and  O_7
REMARK    3  A    between atoms: O_7  and  C_8
REMARK    4  A    between atoms: C_8  and  C_9
REMARK    5  A    between atoms: C_9  and  O_10
REMARK    6  A    between atoms: C_9  and  C_12
REMARK    7  A    between atoms: C_12  and  N_13
REMARK    8  A    between atoms: N_13  and  C_16
REMARK    9  A    between atoms: C_19  and  C_20
REMARK   10  A    between atoms: C_20  and  O_21
REMARK   11  A    between atoms: O_21  and  C_22
REMARK   12  A    between atoms: C_22  and  C_23
REMARK                            x       y       z     vdW  Elec       q    Type
REMARK                         _______ _______ _______ _____ _____    ______ ____
ROOT
ATOM      1  C   UNL     1      35.104 -20.484 -20.374  0.00  0.00    -0.019 C 
ATOM      2  C   UNL     1      36.382 -20.637 -19.837  0.00  0.00    -0.001 C 
ATOM      3  C   UNL     1      34.027 -21.175 -19.819  0.00  0.00    -0.001 C 
ATOM      4  C   UNL     1      35.505 -22.167 -18.196  0.00  0.00    +0.139 C 
ATOM      5  C   UNL     1      36.584 -21.481 -18.745  0.00  0.00    +0.037 C 
ATOM      6  C   UNL     1      34.228 -22.019 -18.726  0.00  0.00    +0.037 C 
ENDROOT
BRANCH   4   7
ATOM      7  O   UNL     1      35.703 -22.995 -17.124  0.00  0.00    -0.473 OA
BRANCH   7   8
ATOM      8  C   UNL     1      36.005 -22.370 -15.880  0.00  0.00    +0.232 C 
BRANCH   8   9
ATOM      9  C   UNL     1      37.120 -23.154 -15.192  0.00  0.00    +0.133 C 
BRANCH   9  10
ATOM     10  O   UNL     1      38.267 -23.159 -16.048  0.00  0.00    -0.383 OA
ATOM     11  H   UNL     1      38.266 -22.357 -16.595  0.00  0.00    +0.210 HD
ENDBRANCH   9  10
BRANCH   9  12
ATOM     12  C   UNL     1      36.744 -24.606 -14.888  0.00  0.00    -0.048 C 
BRANCH  12  13
ATOM     13  N   UNL     1      37.781 -25.538 -15.310  0.00  0.00    +0.387 N 
ATOM     14  H   UNL     1      38.504 -25.028 -15.817  0.00  0.00    -0.084 HD
ATOM     15  H   UNL     1      37.358 -26.247 -15.909  0.00  0.00    -0.084 HD
BRANCH  13  16
ATOM     16  C   UNL     1      38.383 -26.202 -14.160  0.00  0.00    -0.062 C 
ATOM     17  C   UNL     1      39.741 -25.572 -13.865  0.00  0.00    -0.023 C 
ATOM     18  C   UNL     1      37.458 -26.106 -12.950  0.00  0.00    -0.023 C 
ENDBRANCH  13  16
ENDBRANCH  12  13
ENDBRANCH   9  12
ENDBRANCH   8   9
ENDBRANCH   7   8
ENDBRANCH   4   7
BRANCH   1  19
ATOM     19  C   UNL     1      34.888 -19.581 -21.541  0.00  0.00    +0.058 C 
BRANCH  19  20
ATOM     20  C   UNL     1      35.301 -18.134 -21.262  0.00  0.00    +0.147 C 
BRANCH  20  21
ATOM     21  O   UNL     1      34.221 -17.262 -21.572  0.00  0.00    -0.353 OA
BRANCH  21  22
ATOM     22  C   UNL     1      34.675 -15.941 -21.828  0.00  0.00    +0.142 C 
BRANCH  22  23
ATOM     23  C   UNL     1      34.083 -15.008 -20.827  0.00  0.00    +0.030 C 
ATOM     24  C   UNL     1      32.992 -14.077 -21.257  0.00  0.00    +0.003 C 
ATOM     25  C   UNL     1      32.679 -15.239 -20.361  0.00  0.00    +0.003 C 
ENDBRANCH  22  23
ENDBRANCH  21  22
ENDBRANCH  20  21
ENDBRANCH  19  20
ENDBRANCH   1  19
TORSDOF 12
ENDMDL
MODEL 7
REMARK VINA RESULT:      -8.1      2.984      8.794
REMARK  Name = 2369
REMARK  12 active torsions:
REMARK  status: ('A' for Active; 'I' for Inactive)
REMARK    1  A    between atoms: C_1  and  C_19
REMARK    2  A    between atoms: C_4  and  O_7
REMARK    3  A    between atoms: O_7  and  C_8
REMARK    4  A    between atoms: C_8  and  C_9
REMARK    5  A    between atoms: C_9  and  O_10
REMARK    6  A    between atoms: C_9  and  C_12
REMARK    7  A    between atoms: C_12  and  N_13
REMARK    8  A    between atoms: N_13  and  C_16
REMARK    9  A    between atoms: C_19  and  C_20
REMARK   10  A    between atoms: C_20  and  O_21
REMARK   11  A    between atoms: O_21  and  C_22
REMARK   12  A    between atoms: C_22  and  C_23
REMARK                            x       y       z     vdW  Elec       q    Type
REMARK                         _______ _______ _______ _____ _____    ______ ____
ROOT
ATOM      1  C   UNL     1      33.986 -21.275 -19.628  0.00  0.00    -0.019 C 
ATOM      2  C   UNL     1      33.139 -20.385 -20.287  0.00  0.00    -0.001 C 
ATOM      3  C   UNL     1      35.365 -21.197 -19.817  0.00  0.00    -0.001 C 
ATOM      4  C   UNL     1      35.048 -19.342 -21.322  0.00  0.00    +0.139 C 
ATOM      5  C   UNL     1      33.671 -19.415 -21.136  0.00  0.00    +0.037 C 
ATOM      6  C   UNL     1      35.898 -20.227 -20.667  0.00  0.00    +0.037 C 
ENDROOT
BRANCH   4   7
ATOM      7  O   UNL     1      35.571 -18.390 -22.155  0.00  0.00    -0.473 OA
BRANCH   7   8
ATOM      8  C   UNL     1      35.357 -18.576 -23.552  0.00  0.00    +0.232 C 
BRANCH   8   9
ATOM      9  C   UNL     1      34.620 -17.358 -24.104  0.00  0.00    +0.133 C 
BRANCH   9  10
ATOM     10  O   UNL     1      34.972 -17.200 -25.482  0.00  0.00    -0.383 OA
ATOM     11  H   UNL     1      34.199 -17.387 -26.037  0.00  0.00    +0.210 HD
ENDBRANCH   9  10
BRANCH   9  12
ATOM     12  C   UNL     1      34.961 -16.058 -23.371  0.00  0.00    -0.048 C 
BRANCH  12  13
ATOM     13  N   UNL     1      34.063 -15.809 -22.253  0.00  0.00    +0.387 N 
ATOM     14  H   UNL     1      34.611 -15.541 -21.436  0.00  0.00    -0.084 HD
ATOM     15  H   UNL     1      33.534 -16.661 -22.064  0.00  0.00    -0.084 HD
BRANCH  13  16
ATOM     16  C   UNL     1      33.124 -14.739 -22.567  0.00  0.00    -0.062 C 
ATOM     17  C   UNL     1      32.597 -14.129 -21.272  0.00  0.00    -0.023 C 
ATOM     18  C   UNL     1      33.799 -13.682 -23.437  0.00  0.00    -0.023 C 
ENDBRANCH  13  16
ENDBRANCH  12  13
ENDBRANCH   9  12
ENDBRANCH   8   9
ENDBRANCH   7   8
ENDBRANCH   4   7
BRANCH   1  19
ATOM     19  C   UNL     1      33.417 -22.312 -18.719  0.00  0.00    +0.058 C 
BRANCH  19  20
ATOM     20  C   UNL     1      34.421 -22.809 -17.676  0.00  0.00    +0.147 C 
BRANCH  20  21
ATOM     21  O   UNL     1      33.728 -23.211 -16.501  0.00  0.00    -0.353 OA
BRANCH  21  22
ATOM     22  C   UNL     1      32.320 -23.182 -16.691  0.00  0.00    +0.142 C 
BRANCH  22  23
ATOM     23  C   UNL     1      31.641 -23.648 -15.448  0.00  0.00    +0.030 C 
ATOM     24  C   UNL     1      31.283 -22.645 -14.395  0.00  0.00    +0.003 C 
ATOM     25  C   UNL     1      30.207 -23.283 -15.223  0.00  0.00    +0.003 C 
ENDBRANCH  22  23
ENDBRANCH  21  22
ENDBRANCH  20  21
ENDBRANCH  19  20
ENDBRANCH   1  19
TORSDOF 12
ENDMDL
MODEL 8
REMARK VINA RESULT:      -8.0      1.669      2.986
REMARK  Name = 2369
REMARK  12 active torsions:
REMARK  status: ('A' for Active; 'I' for Inactive)
REMARK    1  A    between atoms: C_1  and  C_19
REMARK    2  A    between atoms: C_4  and  O_7
REMARK    3  A    between atoms: O_7  and  C_8
REMARK    4  A    between atoms: C_8  and  C_9
REMARK    5  A    between atoms: C_9  and  O_10
REMARK    6  A    between atoms: C_9  and  C_12
REMARK    7  A    between atoms: C_12  and  N_13
REMARK    8  A    between atoms: N_13  and  C_16
REMARK    9  A    between atoms: C_19  and  C_20
REMARK   10  A    between atoms: C_20  and  O_21
REMARK   11  A    between atoms: O_21  and  C_22
REMARK   12  A    between atoms: C_22  and  C_23
REMARK                            x       y       z     vdW  Elec       q    Type
REMARK                         _______ _______ _______ _____ _____    ______ ____
ROOT
ATOM      1  C   UNL     1      34.522 -20.144 -20.652  0.00  0.00    -0.019 C 
ATOM      2  C   UNL     1      33.266 -20.497 -20.161  0.00  0.00    -0.001 C 
ATOM      3  C   UNL     1      35.663 -20.793 -20.182  0.00  0.00    -0.001 C 
ATOM      4  C   UNL     1      34.291 -22.144 -18.734  0.00  0.00    +0.139 C 
ATOM      5  C   UNL     1      33.149 -21.500 -19.199  0.00  0.00    +0.037 C 
ATOM      6  C   UNL     1      35.547 -21.797 -19.220  0.00  0.00    +0.037 C 
ENDROOT
BRANCH   4   7
ATOM      7  O   UNL     1      34.177 -23.129 -17.790  0.00  0.00    -0.473 OA
BRANCH   7   8
ATOM      8  C   UNL     1      32.941 -23.200 -17.085  0.00  0.00    +0.232 C 
BRANCH   8   9
ATOM      9  C   UNL     1      33.208 -23.708 -15.670  0.00  0.00    +0.133 C 
BRANCH   9  10
ATOM     10  O   UNL     1      32.733 -22.730 -14.740  0.00  0.00    -0.383 OA
ATOM     11  H   UNL     1      33.461 -22.452 -14.162  0.00  0.00    +0.210 HD
ENDBRANCH   9  10
BRANCH   9  12
ATOM     12  C   UNL     1      34.691 -23.958 -15.385  0.00  0.00    -0.048 C 
BRANCH  12  13
ATOM     13  N   UNL     1      35.366 -22.758 -14.911  0.00  0.00    +0.387 N 
ATOM     14  H   UNL     1      35.100 -22.585 -13.941  0.00  0.00    -0.084 HD
ATOM     15  H   UNL     1      35.091 -21.974 -15.502  0.00  0.00    -0.084 HD
BRANCH  13  16
ATOM     16  C   UNL     1      36.814 -22.911 -14.986  0.00  0.00    -0.062 C 
ATOM     17  C   UNL     1      37.164 -24.393 -15.078  0.00  0.00    -0.023 C 
ATOM     18  C   UNL     1      37.364 -22.142 -16.184  0.00  0.00    -0.023 C 
ENDBRANCH  13  16
ENDBRANCH  12  13
ENDBRANCH   9  12
ENDBRANCH   8   9
ENDBRANCH   7   8
ENDBRANCH   4   7
BRANCH   1  19
ATOM     19  C   UNL     1      34.646 -19.071 -21.681  0.00  0.00    +0.058 C 
BRANCH  19  20
ATOM     20  C   UNL     1      35.132 -17.740 -21.102  0.00  0.00    +0.147 C 
BRANCH  20  21
ATOM     21  O   UNL     1      34.060 -16.807 -21.089  0.00  0.00    -0.353 OA
BRANCH  21  22
ATOM     22  C   UNL     1      34.514 -15.495 -20.784  0.00  0.00    +0.142 C 
BRANCH  22  23
ATOM     23  C   UNL     1      34.250 -14.595 -21.943  0.00  0.00    +0.030 C 
ATOM     24  C   UNL     1      33.491 -15.128 -23.120  0.00  0.00    +0.003 C 
ATOM     25  C   UNL     1      32.849 -14.132 -22.199  0.00  0.00    +0.003 C 
ENDBRANCH  22  23
ENDBRANCH  21  22
ENDBRANCH  20  21
ENDBRANCH  19  20
ENDBRANCH   1  19
TORSDOF 12
ENDMDL
MODEL 9
REMARK VINA RESULT:      -7.9      5.675      8.968
REMARK  Name = 2369
REMARK  12 active torsions:
REMARK  status: ('A' for Active; 'I' for Inactive)
REMARK    1  A    between atoms: C_1  and  C_19
REMARK    2  A    between atoms: C_4  and  O_7
REMARK    3  A    between atoms: O_7  and  C_8
REMARK    4  A    between atoms: C_8  and  C_9
REMARK    5  A    between atoms: C_9  and  O_10
REMARK    6  A    between atoms: C_9  and  C_12
REMARK    7  A    between atoms: C_12  and  N_13
REMARK    8  A    between atoms: N_13  and  C_16
REMARK    9  A    between atoms: C_19  and  C_20
REMARK   10  A    between atoms: C_20  and  O_21
REMARK   11  A    between atoms: O_21  and  C_22
REMARK   12  A    between atoms: C_22  and  C_23
REMARK                            x       y       z     vdW  Elec       q    Type
REMARK                         _______ _______ _______ _____ _____    ______ ____
ROOT
ATOM      1  C   UNL     1      31.940 -12.586 -21.272  0.00  0.00    -0.019 C 
ATOM      2  C   UNL     1      32.209 -12.625 -22.639  0.00  0.00    -0.001 C 
ATOM      3  C   UNL     1      32.340 -13.639 -20.451  0.00  0.00    -0.001 C 
ATOM      4  C   UNL     1      33.277 -14.766 -22.363  0.00  0.00    +0.139 C 
ATOM      5  C   UNL     1      32.880 -13.718 -23.187  0.00  0.00    +0.037 C 
ATOM      6  C   UNL     1      33.012 -14.734 -20.998  0.00  0.00    +0.037 C 
ENDROOT
BRANCH   4   7
ATOM      7  O   UNL     1      33.936 -15.840 -22.900  0.00  0.00    -0.473 OA
BRANCH   7   8
ATOM      8  C   UNL     1      34.035 -15.884 -24.321  0.00  0.00    +0.232 C 
BRANCH   8   9
ATOM      9  C   UNL     1      34.826 -17.127 -24.722  0.00  0.00    +0.133 C 
BRANCH   9  10
ATOM     10  O   UNL     1      33.973 -17.981 -25.489  0.00  0.00    -0.383 OA
ATOM     11  H   UNL     1      34.154 -17.856 -26.434  0.00  0.00    +0.210 HD
ENDBRANCH   9  10
BRANCH   9  12
ATOM     12  C   UNL     1      35.351 -17.925 -23.525  0.00  0.00    -0.048 C 
BRANCH  12  13
ATOM     13  N   UNL     1      34.409 -18.950 -23.097  0.00  0.00    +0.387 N 
ATOM     14  H   UNL     1      34.457 -19.739 -23.742  0.00  0.00    -0.084 HD
ATOM     15  H   UNL     1      33.471 -18.550 -23.092  0.00  0.00    -0.084 HD
BRANCH  13  16
ATOM     16  C   UNL     1      34.723 -19.416 -21.752  0.00  0.00    -0.062 C 
ATOM     17  C   UNL     1      35.686 -18.437 -21.087  0.00  0.00    -0.023 C 
ATOM     18  C   UNL     1      33.443 -19.568 -20.934  0.00  0.00    -0.023 C 
ENDBRANCH  13  16
ENDBRANCH  12  13
ENDBRANCH   9  12
ENDBRANCH   8   9
ENDBRANCH   7   8
ENDBRANCH   4   7
BRANCH   1  19
ATOM     19  C   UNL     1      31.223 -11.416 -20.686  0.00  0.00    +0.058 C 
BRANCH  19  20
ATOM     20  C   UNL     1      31.711 -11.058 -19.280  0.00  0.00    +0.147 C 
BRANCH  20  21
ATOM     21  O   UNL     1      32.238  -9.738 -19.281  0.00  0.00    -0.353 OA
BRANCH  21  22
ATOM     22  C   UNL     1      31.990  -9.078 -20.515  0.00  0.00    +0.142 C 
BRANCH  22  23
ATOM     23  C   UNL     1      32.784  -7.818 -20.574  0.00  0.00    +0.030 C 
ATOM     24  C   UNL     1      32.927  -7.109 -21.885  0.00  0.00    +0.003 C 
ATOM     25  C   UNL     1      32.072  -6.521 -20.802  0.00  0.00    +0.003 C 
ENDBRANCH  22  23
ENDBRANCH  21  22
ENDBRANCH  20  21
ENDBRANCH  19  20
ENDBRANCH   1  19
TORSDOF 12
ENDMDL
