MODEL 1
REMARK VINA RESULT:      -5.4      0.000      0.000
REMARK  Name = 996
REMARK  1 active torsions:
REMARK  status: ('A' for Active; 'I' for Inactive)
REMARK    1  A    between atoms: C_1  and  O_7
REMARK                            x       y       z     vdW  Elec       q    Type
REMARK                         _______ _______ _______ _____ _____    ______ ____
ROOT
ATOM      1  C   UNL     1      33.528 -21.403 -19.516  0.00  0.00    +0.134 C 
ATOM      2  C   UNL     1      34.904 -21.621 -19.452  0.00  0.00    +0.037 C 
ATOM      3  C   UNL     1      33.022 -20.358 -20.289  0.00  0.00    +0.037 C 
ATOM      4  C   UNL     1      35.775 -20.793 -20.160  0.00  0.00    +0.003 C 
ATOM      5  C   UNL     1      33.893 -19.530 -20.997  0.00  0.00    +0.003 C 
ATOM      6  C   UNL     1      35.270 -19.747 -20.933  0.00  0.00    +0.000 C 
ENDROOT
BRANCH   1   7
ATOM      7  O   UNL     1      32.678 -22.211 -18.825  0.00  0.00    -0.506 OA
ATOM      8  H   UNL     1      31.761 -22.016 -18.800  0.00  0.00    +0.292 HD
ENDBRANCH   1   7
TORSDOF 1
ENDMDL
MODEL 2
REMARK VINA RESULT:      -5.4      0.004      1.826
REMARK  Name = 996
REMARK  1 active torsions:
REMARK  status: ('A' for Active; 'I' for Inactive)
REMARK    1  A    between atoms: C_1  and  O_7
REMARK                            x       y       z     vdW  Elec       q    Type
REMARK                         _______ _______ _______ _____ _____    ______ ____
ROOT
ATOM      1  C   UNL     1      33.525 -21.401 -19.516  0.00  0.00    +0.134 C 
ATOM      2  C   UNL     1      33.019 -20.356 -20.289  0.00  0.00    +0.037 C 
ATOM      3  C   UNL     1      34.900 -21.620 -19.452  0.00  0.00    +0.037 C 
ATOM      4  C   UNL     1      33.890 -19.529 -20.999  0.00  0.00    +0.003 C 
ATOM      5  C   UNL     1      35.772 -20.793 -20.162  0.00  0.00    +0.003 C 
ATOM      6  C   UNL     1      35.267 -19.747 -20.935  0.00  0.00    +0.000 C 
ENDROOT
BRANCH   1   7
ATOM      7  O   UNL     1      32.675 -22.208 -18.824  0.00  0.00    -0.506 OA
ATOM      8  H   UNL     1      31.751 -22.155 -18.975  0.00  0.00    +0.292 HD
ENDBRANCH   1   7
TORSDOF 1
ENDMDL
MODEL 3
REMARK VINA RESULT:      -5.3      0.923      2.042
REMARK  Name = 996
REMARK  1 active torsions:
REMARK  status: ('A' for Active; 'I' for Inactive)
REMARK    1  A    between atoms: C_1  and  O_7
REMARK                            x       y       z     vdW  Elec       q    Type
REMARK                         _______ _______ _______ _____ _____    ______ ____
ROOT
ATOM      1  C   UNL     1      34.680 -21.591 -19.441  0.00  0.00    +0.134 C 
ATOM      2  C   UNL     1      33.335 -21.259 -19.599  0.00  0.00    +0.037 C 
ATOM      3  C   UNL     1      35.662 -20.858 -20.107  0.00  0.00    +0.037 C 
ATOM      4  C   UNL     1      32.971 -20.195 -20.424  0.00  0.00    +0.003 C 
ATOM      5  C   UNL     1      35.299 -19.794 -20.932  0.00  0.00    +0.003 C 
ATOM      6  C   UNL     1      33.953 -19.461 -21.091  0.00  0.00    +0.000 C 
ENDROOT
BRANCH   1   7
ATOM      7  O   UNL     1      35.035 -22.630 -18.636  0.00  0.00    -0.506 OA
ATOM      8  H   UNL     1      34.686 -23.486 -18.795  0.00  0.00    +0.292 HD
ENDBRANCH   1   7
TORSDOF 1
ENDMDL
MODEL 4
REMARK VINA RESULT:      -5.2      2.119      2.796
REMARK  Name = 996
REMARK  1 active torsions:
REMARK  status: ('A' for Active; 'I' for Inactive)
REMARK    1  A    between atoms: C_1  and  O_7
REMARK                            x       y       z     vdW  Elec       q    Type
REMARK                         _______ _______ _______ _____ _____    ______ ____
ROOT
ATOM      1  C   UNL     1      35.255 -19.606 -20.938  0.00  0.00    +0.134 C 
ATOM      2  C   UNL     1      35.709 -20.688 -20.184  0.00  0.00    +0.037 C 
ATOM      3  C   UNL     1      33.887 -19.361 -21.054  0.00  0.00    +0.037 C 
ATOM      4  C   UNL     1      34.795 -21.525 -19.545  0.00  0.00    +0.003 C 
ATOM      5  C   UNL     1      32.972 -20.199 -20.415  0.00  0.00    +0.003 C 
ATOM      6  C   UNL     1      33.426 -21.281 -19.660  0.00  0.00    +0.000 C 
ENDROOT
BRANCH   1   7
ATOM      7  O   UNL     1      36.147 -18.789 -21.562  0.00  0.00    -0.506 OA
ATOM      8  H   UNL     1      36.527 -18.068 -21.097  0.00  0.00    +0.292 HD
ENDBRANCH   1   7
TORSDOF 1
ENDMDL
MODEL 5
REMARK VINA RESULT:      -5.2      2.117      3.338
REMARK  Name = 996
REMARK  1 active torsions:
REMARK  status: ('A' for Active; 'I' for Inactive)
REMARK    1  A    between atoms: C_1  and  O_7
REMARK                            x       y       z     vdW  Elec       q    Type
REMARK                         _______ _______ _______ _____ _____    ______ ____
ROOT
ATOM      1  C   UNL     1      35.253 -19.609 -20.933  0.00  0.00    +0.134 C 
ATOM      2  C   UNL     1      33.886 -19.370 -21.064  0.00  0.00    +0.037 C 
ATOM      3  C   UNL     1      35.704 -20.680 -20.162  0.00  0.00    +0.037 C 
ATOM      4  C   UNL     1      32.968 -20.202 -20.422  0.00  0.00    +0.003 C 
ATOM      5  C   UNL     1      34.786 -21.512 -19.520  0.00  0.00    +0.003 C 
ATOM      6  C   UNL     1      33.418 -21.273 -19.650  0.00  0.00    +0.000 C 
ENDROOT
BRANCH   1   7
ATOM      7  O   UNL     1      36.149 -18.797 -21.559  0.00  0.00    -0.506 OA
ATOM      8  H   UNL     1      37.050 -19.051 -21.619  0.00  0.00    +0.292 HD
ENDBRANCH   1   7
TORSDOF 1
ENDMDL
MODEL 6
REMARK VINA RESULT:      -5.1      1.669      2.676
REMARK  Name = 996
REMARK  1 active torsions:
REMARK  status: ('A' for Active; 'I' for Inactive)
REMARK    1  A    between atoms: C_1  and  O_7
REMARK                            x       y       z     vdW  Elec       q    Type
REMARK                         _______ _______ _______ _____ _____    ______ ____
ROOT
ATOM      1  C   UNL     1      35.517 -20.926 -20.070  0.00  0.00    +0.134 C 
ATOM      2  C   UNL     1      35.263 -19.831 -20.896  0.00  0.00    +0.037 C 
ATOM      3  C   UNL     1      34.460 -21.592 -19.450  0.00  0.00    +0.037 C 
ATOM      4  C   UNL     1      33.952 -19.403 -21.102  0.00  0.00    +0.003 C 
ATOM      5  C   UNL     1      33.149 -21.163 -19.656  0.00  0.00    +0.003 C 
ATOM      6  C   UNL     1      32.894 -20.068 -20.482  0.00  0.00    +0.000 C 
ENDROOT
BRANCH   1   7
ATOM      7  O   UNL     1      36.796 -21.345 -19.870  0.00  0.00    -0.506 OA
ATOM      8  H   UNL     1      37.046 -21.711 -19.043  0.00  0.00    +0.292 HD
ENDBRANCH   1   7
TORSDOF 1
ENDMDL
MODEL 7
REMARK VINA RESULT:      -5.0      5.044      6.012
REMARK  Name = 996
REMARK  1 active torsions:
REMARK  status: ('A' for Active; 'I' for Inactive)
REMARK    1  A    between atoms: C_1  and  O_7
REMARK                            x       y       z     vdW  Elec       q    Type
REMARK                         _______ _______ _______ _____ _____    ______ ____
ROOT
ATOM      1  C   UNL     1      34.488 -16.896 -24.990  0.00  0.00    +0.134 C 
ATOM      2  C   UNL     1      34.436 -18.286 -25.082  0.00  0.00    +0.037 C 
ATOM      3  C   UNL     1      34.936 -16.290 -23.817  0.00  0.00    +0.037 C 
ATOM      4  C   UNL     1      34.833 -19.072 -24.000  0.00  0.00    +0.003 C 
ATOM      5  C   UNL     1      35.332 -17.075 -22.734  0.00  0.00    +0.003 C 
ATOM      6  C   UNL     1      35.281 -18.467 -22.825  0.00  0.00    +0.000 C 
ENDROOT
BRANCH   1   7
ATOM      7  O   UNL     1      34.101 -16.129 -26.046  0.00  0.00    -0.506 OA
ATOM      8  H   UNL     1      34.357 -16.366 -26.917  0.00  0.00    +0.292 HD
ENDBRANCH   1   7
TORSDOF 1
ENDMDL
MODEL 8
REMARK VINA RESULT:      -5.0      5.044      6.036
REMARK  Name = 996
REMARK  1 active torsions:
REMARK  status: ('A' for Active; 'I' for Inactive)
REMARK    1  A    between atoms: C_1  and  O_7
REMARK                            x       y       z     vdW  Elec       q    Type
REMARK                         _______ _______ _______ _____ _____    ______ ____
ROOT
ATOM      1  C   UNL     1      34.487 -16.896 -24.989  0.00  0.00    +0.134 C 
ATOM      2  C   UNL     1      34.937 -16.289 -23.817  0.00  0.00    +0.037 C 
ATOM      3  C   UNL     1      34.434 -18.286 -25.080  0.00  0.00    +0.037 C 
ATOM      4  C   UNL     1      35.335 -17.074 -22.734  0.00  0.00    +0.003 C 
ATOM      5  C   UNL     1      34.832 -19.071 -23.997  0.00  0.00    +0.003 C 
ATOM      6  C   UNL     1      35.282 -18.466 -22.824  0.00  0.00    +0.000 C 
ENDROOT
BRANCH   1   7
ATOM      7  O   UNL     1      34.099 -16.130 -26.045  0.00  0.00    -0.506 OA
ATOM      8  H   UNL     1      33.761 -15.267 -25.900  0.00  0.00    +0.292 HD
ENDBRANCH   1   7
TORSDOF 1
ENDMDL
MODEL 9
REMARK VINA RESULT:      -4.8      3.481      4.472
REMARK  Name = 996
REMARK  1 active torsions:
REMARK  status: ('A' for Active; 'I' for Inactive)
REMARK    1  A    between atoms: C_1  and  O_7
REMARK                            x       y       z     vdW  Elec       q    Type
REMARK                         _______ _______ _______ _____ _____    ______ ____
ROOT
ATOM      1  C   UNL     1      35.025 -17.235 -21.377  0.00  0.00    +0.134 C 
ATOM      2  C   UNL     1      35.154 -16.742 -22.675  0.00  0.00    +0.037 C 
ATOM      3  C   UNL     1      34.795 -18.594 -21.166  0.00  0.00    +0.037 C 
ATOM      4  C   UNL     1      35.053 -17.610 -23.763  0.00  0.00    +0.003 C 
ATOM      5  C   UNL     1      34.693 -19.461 -22.254  0.00  0.00    +0.003 C 
ATOM      6  C   UNL     1      34.823 -18.969 -23.553  0.00  0.00    +0.000 C 
ENDROOT
BRANCH   1   7
ATOM      7  O   UNL     1      35.124 -16.389 -20.315  0.00  0.00    -0.506 OA
ATOM      8  H   UNL     1      34.911 -16.691 -19.454  0.00  0.00    +0.292 HD
ENDBRANCH   1   7
TORSDOF 1
ENDMDL
