MODEL 1
REMARK VINA RESULT:      -8.8      0.000      0.000
REMARK  Name = 3369
REMARK  1 active torsions:
REMARK  status: ('A' for Active; 'I' for Inactive)
REMARK    1  A    between atoms: C_7  and  C_16
REMARK                            x       y       z     vdW  Elec       q    Type
REMARK                         _______ _______ _______ _____ _____    ______ ____
ROOT
ATOM      1 CL   UNL     1      35.737 -21.708 -18.808  0.00  0.00    -0.082 Cl
ATOM      2  O   UNL     1      30.860 -24.546 -13.001  0.00  0.00    -0.272 OA
ATOM      3  N   UNL     1      31.661 -24.124 -15.148  0.00  0.00    -0.255 N 
ATOM      4  N   UNL     1      33.975 -23.855 -13.200  0.00  0.00    -0.260 NA
ATOM      5  C   UNL     1      34.028 -23.464 -15.628  0.00  0.00    +0.032 C 
ATOM      6  C   UNL     1      32.676 -23.582 -16.010  0.00  0.00    +0.055 C 
ATOM      7  C   UNL     1      34.552 -24.016 -14.342  0.00  0.00    +0.080 C 
ATOM      8  C   UNL     1      32.736 -23.106 -13.170  0.00  0.00    +0.210 C 
ATOM      9  C   UNL     1      31.676 -24.006 -13.754  0.00  0.00    +0.254 C 
ATOM     10  C   UNL     1      34.965 -22.867 -16.492  0.00  0.00    +0.014 C 
ATOM     11  C   UNL     1      32.326 -23.157 -17.307  0.00  0.00    +0.016 C 
ATOM     12  C   UNL     1      30.510 -24.781 -15.768  0.00  0.00    +0.120 C 
ATOM     13  C   UNL     1      34.582 -22.428 -17.756  0.00  0.00    +0.058 C 
ATOM     14  C   UNL     1      33.265 -22.585 -18.168  0.00  0.00    +0.013 C 
ENDROOT
BRANCH   7  16
ATOM     15  F   UNL     1      36.907 -23.196 -13.019  0.00  0.00    -0.204 F 
ATOM     16  C   UNL     1      35.808 -24.819 -14.362  0.00  0.00    +0.045 C 
ATOM     17  C   UNL     1      36.933 -24.358 -13.688  0.00  0.00    +0.142 C 
ATOM     18  C   UNL     1      35.840 -26.024 -15.055  0.00  0.00    +0.004 C 
ATOM     19  C   UNL     1      38.107 -25.112 -13.707  0.00  0.00    +0.030 C 
ATOM     20  C   UNL     1      37.014 -26.778 -15.074  0.00  0.00    +0.000 C 
ATOM     21  C   UNL     1      38.146 -26.321 -14.400  0.00  0.00    +0.002 C 
ENDBRANCH   7  16
TORSDOF 1
ENDMDL
MODEL 2
REMARK VINA RESULT:      -8.6     11.846     14.123
REMARK  Name = 3369
REMARK  1 active torsions:
REMARK  status: ('A' for Active; 'I' for Inactive)
REMARK    1  A    between atoms: C_7  and  C_16
REMARK                            x       y       z     vdW  Elec       q    Type
REMARK                         _______ _______ _______ _____ _____    ______ ____
ROOT
ATOM      1 CL   UNL     1      31.243 -11.519 -20.490  0.00  0.00    -0.082 Cl
ATOM      2  O   UNL     1      34.318 -13.239 -27.780  0.00  0.00    -0.272 OA
ATOM      3  N   UNL     1      33.956 -12.067 -25.799  0.00  0.00    -0.255 N 
ATOM      4  N   UNL     1      33.164 -14.964 -25.348  0.00  0.00    -0.260 NA
ATOM      5  C   UNL     1      32.973 -13.109 -23.744  0.00  0.00    +0.032 C 
ATOM      6  C   UNL     1      33.335 -11.978 -24.506  0.00  0.00    +0.055 C 
ATOM      7  C   UNL     1      33.326 -14.501 -24.156  0.00  0.00    +0.080 C 
ATOM      8  C   UNL     1      32.620 -14.071 -26.350  0.00  0.00    +0.210 C 
ATOM      9  C   UNL     1      33.721 -13.105 -26.708  0.00  0.00    +0.254 C 
ATOM     10  C   UNL     1      32.312 -12.958 -22.512  0.00  0.00    +0.014 C 
ATOM     11  C   UNL     1      33.081 -10.709 -23.948  0.00  0.00    +0.016 C 
ATOM     12  C   UNL     1      34.836 -10.976 -26.217  0.00  0.00    +0.120 C 
ATOM     13  C   UNL     1      32.046 -11.691 -22.001  0.00  0.00    +0.058 C 
ATOM     14  C   UNL     1      32.442 -10.567 -22.714  0.00  0.00    +0.013 C 
ENDROOT
BRANCH   7  16
ATOM     15  F   UNL     1      35.222 -16.482 -24.827  0.00  0.00    -0.204 F 
ATOM     16  C   UNL     1      33.921 -15.422 -23.145  0.00  0.00    +0.045 C 
ATOM     17  C   UNL     1      34.850 -16.376 -23.542  0.00  0.00    +0.142 C 
ATOM     18  C   UNL     1      33.538 -15.317 -21.813  0.00  0.00    +0.004 C 
ATOM     19  C   UNL     1      35.405 -17.237 -22.595  0.00  0.00    +0.030 C 
ATOM     20  C   UNL     1      34.093 -16.177 -20.865  0.00  0.00    +0.000 C 
ATOM     21  C   UNL     1      35.025 -17.137 -21.256  0.00  0.00    +0.002 C 
ENDBRANCH   7  16
TORSDOF 1
ENDMDL
MODEL 3
REMARK VINA RESULT:      -8.0     15.372     17.858
REMARK  Name = 3369
REMARK  1 active torsions:
REMARK  status: ('A' for Active; 'I' for Inactive)
REMARK    1  A    between atoms: C_7  and  C_16
REMARK                            x       y       z     vdW  Elec       q    Type
REMARK                         _______ _______ _______ _____ _____    ______ ____
ROOT
ATOM      1 CL   UNL     1      30.850 -11.026 -19.705  0.00  0.00    -0.082 Cl
ATOM      2  O   UNL     1      35.450 -10.492 -26.348  0.00  0.00    -0.272 OA
ATOM      3  N   UNL     1      33.758 -11.248 -24.934  0.00  0.00    -0.255 N 
ATOM      4  N   UNL     1      34.586  -8.470 -24.027  0.00  0.00    -0.260 NA
ATOM      5  C   UNL     1      32.924  -9.942 -22.967  0.00  0.00    +0.032 C 
ATOM      6  C   UNL     1      33.040 -11.145 -23.694  0.00  0.00    +0.055 C 
ATOM      7  C   UNL     1      33.425  -8.635 -23.491  0.00  0.00    +0.080 C 
ATOM      8  C   UNL     1      35.447  -9.629 -24.140  0.00  0.00    +0.210 C 
ATOM      9  C   UNL     1      34.883 -10.477 -25.251  0.00  0.00    +0.254 C 
ATOM     10  C   UNL     1      32.261  -9.918 -21.727  0.00  0.00    +0.014 C 
ATOM     11  C   UNL     1      32.401 -12.287 -23.169  0.00  0.00    +0.016 C 
ATOM     12  C   UNL     1      33.329 -12.262 -25.897  0.00  0.00    +0.120 C 
ATOM     13  C   UNL     1      31.666 -11.069 -21.219  0.00  0.00    +0.058 C 
ATOM     14  C   UNL     1      31.726 -12.250 -21.947  0.00  0.00    +0.013 C 
ENDROOT
BRANCH   7  16
ATOM     15  F   UNL     1      33.310  -6.964 -21.218  0.00  0.00    -0.204 F 
ATOM     16  C   UNL     1      32.536  -7.440 -23.414  0.00  0.00    +0.045 C 
ATOM     17  C   UNL     1      32.528  -6.659 -22.264  0.00  0.00    +0.142 C 
ATOM     18  C   UNL     1      31.723  -7.120 -24.495  0.00  0.00    +0.004 C 
ATOM     19  C   UNL     1      31.696  -5.541 -22.196  0.00  0.00    +0.030 C 
ATOM     20  C   UNL     1      30.891  -6.002 -24.426  0.00  0.00    +0.000 C 
ATOM     21  C   UNL     1      30.878  -5.213 -23.277  0.00  0.00    +0.002 C 
ENDBRANCH   7  16
TORSDOF 1
ENDMDL
MODEL 4
REMARK VINA RESULT:      -8.0      2.222      4.925
REMARK  Name = 3369
REMARK  1 active torsions:
REMARK  status: ('A' for Active; 'I' for Inactive)
REMARK    1  A    between atoms: C_7  and  C_16
REMARK                            x       y       z     vdW  Elec       q    Type
REMARK                         _______ _______ _______ _____ _____    ______ ____
ROOT
ATOM      1 CL   UNL     1      35.772 -21.144 -19.298  0.00  0.00    -0.082 Cl
ATOM      2  O   UNL     1      36.575 -25.504 -12.522  0.00  0.00    -0.272 OA
ATOM      3  N   UNL     1      36.846 -23.726 -14.003  0.00  0.00    -0.255 N 
ATOM      4  N   UNL     1      34.345 -25.254 -14.798  0.00  0.00    -0.260 NA
ATOM      5  C   UNL     1      35.324 -23.313 -15.949  0.00  0.00    +0.032 C 
ATOM      6  C   UNL     1      36.536 -23.098 -15.258  0.00  0.00    +0.055 C 
ATOM      7  C   UNL     1      34.199 -24.107 -15.370  0.00  0.00    +0.080 C 
ATOM      8  C   UNL     1      35.685 -25.792 -14.700  0.00  0.00    +0.210 C 
ATOM      9  C   UNL     1      36.391 -24.996 -13.631  0.00  0.00    +0.254 C 
ATOM     10  C   UNL     1      35.103 -22.719 -17.204  0.00  0.00    +0.014 C 
ATOM     11  C   UNL     1      37.466 -22.212 -15.836  0.00  0.00    +0.016 C 
ATOM     12  C   UNL     1      37.743 -23.024 -13.085  0.00  0.00    +0.120 C 
ATOM     13  C   UNL     1      36.056 -21.872 -17.765  0.00  0.00    +0.058 C 
ATOM     14  C   UNL     1      37.231 -21.609 -17.074  0.00  0.00    +0.013 C 
ENDROOT
BRANCH   7  16
ATOM     15  F   UNL     1      32.744 -23.379 -13.063  0.00  0.00    -0.204 F 
ATOM     16  C   UNL     1      32.817 -23.550 -15.432  0.00  0.00    +0.045 C 
ATOM     17  C   UNL     1      32.156 -23.211 -14.256  0.00  0.00    +0.142 C 
ATOM     18  C   UNL     1      32.203 -23.374 -16.667  0.00  0.00    +0.004 C 
ATOM     19  C   UNL     1      30.864 -22.689 -14.317  0.00  0.00    +0.030 C 
ATOM     20  C   UNL     1      30.911 -22.852 -16.727  0.00  0.00    +0.000 C 
ATOM     21  C   UNL     1      30.242 -22.511 -15.552  0.00  0.00    +0.002 C 
ENDBRANCH   7  16
TORSDOF 1
ENDMDL
MODEL 5
REMARK VINA RESULT:      -7.8     14.941     17.042
REMARK  Name = 3369
REMARK  1 active torsions:
REMARK  status: ('A' for Active; 'I' for Inactive)
REMARK    1  A    between atoms: C_7  and  C_16
REMARK                            x       y       z     vdW  Elec       q    Type
REMARK                         _______ _______ _______ _____ _____    ______ ____
ROOT
ATOM      1 CL   UNL     1      31.848 -13.543 -20.610  0.00  0.00    -0.082 Cl
ATOM      2  O   UNL     1      31.545  -5.589 -22.094  0.00  0.00    -0.272 OA
ATOM      3  N   UNL     1      31.997  -7.567 -20.948  0.00  0.00    -0.255 N 
ATOM      4  N   UNL     1      31.710  -8.221 -23.900  0.00  0.00    -0.260 NA
ATOM      5  C   UNL     1      32.097  -9.808 -22.061  0.00  0.00    +0.032 C 
ATOM      6  C   UNL     1      32.001  -9.004 -20.906  0.00  0.00    +0.055 C 
ATOM      7  C   UNL     1      32.342  -9.238 -23.420  0.00  0.00    +0.080 C 
ATOM      8  C   UNL     1      30.715  -7.588 -23.059  0.00  0.00    +0.210 C 
ATOM      9  C   UNL     1      31.469  -6.818 -22.006  0.00  0.00    +0.254 C 
ATOM     10  C   UNL     1      32.032 -11.210 -21.962  0.00  0.00    +0.014 C 
ATOM     11  C   UNL     1      31.918  -9.659 -19.662  0.00  0.00    +0.016 C 
ATOM     12  C   UNL     1      32.518  -6.843 -19.789  0.00  0.00    +0.120 C 
ATOM     13  C   UNL     1      31.919 -11.828 -20.720  0.00  0.00    +0.058 C 
ATOM     14  C   UNL     1      31.875 -11.052 -19.569  0.00  0.00    +0.013 C 
ENDROOT
BRANCH   7  16
ATOM     15  F   UNL     1      34.938  -8.160 -23.680  0.00  0.00    -0.204 F 
ATOM     16  C   UNL     1      33.388  -9.857 -24.284  0.00  0.00    +0.045 C 
ATOM     17  C   UNL     1      34.647  -9.275 -24.367  0.00  0.00    +0.142 C 
ATOM     18  C   UNL     1      33.091 -11.012 -24.999  0.00  0.00    +0.004 C 
ATOM     19  C   UNL     1      35.624  -9.856 -25.175  0.00  0.00    +0.030 C 
ATOM     20  C   UNL     1      34.068 -11.593 -25.807  0.00  0.00    +0.000 C 
ATOM     21  C   UNL     1      35.334 -11.015 -25.895  0.00  0.00    +0.002 C 
ENDBRANCH   7  16
TORSDOF 1
ENDMDL
MODEL 6
REMARK VINA RESULT:      -7.7      2.451      5.098
REMARK  Name = 3369
REMARK  1 active torsions:
REMARK  status: ('A' for Active; 'I' for Inactive)
REMARK    1  A    between atoms: C_7  and  C_16
REMARK                            x       y       z     vdW  Elec       q    Type
REMARK                         _______ _______ _______ _____ _____    ______ ____
ROOT
ATOM      1 CL   UNL     1      35.916 -21.135 -19.153  0.00  0.00    -0.082 Cl
ATOM      2  O   UNL     1      36.522 -25.536 -12.383  0.00  0.00    -0.272 OA
ATOM      3  N   UNL     1      36.844 -23.752 -13.848  0.00  0.00    -0.255 N 
ATOM      4  N   UNL     1      34.348 -25.254 -14.710  0.00  0.00    -0.260 NA
ATOM      5  C   UNL     1      35.372 -23.316 -15.827  0.00  0.00    +0.032 C 
ATOM      6  C   UNL     1      36.568 -23.115 -15.107  0.00  0.00    +0.055 C 
ATOM      7  C   UNL     1      34.226 -24.103 -15.279  0.00  0.00    +0.080 C 
ATOM      8  C   UNL     1      35.682 -25.805 -14.583  0.00  0.00    +0.210 C 
ATOM      9  C   UNL     1      36.369 -25.021 -13.494  0.00  0.00    +0.254 C 
ATOM     10  C   UNL     1      35.185 -22.714 -17.084  0.00  0.00    +0.014 C 
ATOM     11  C   UNL     1      37.519 -22.234 -15.658  0.00  0.00    +0.016 C 
ATOM     12  C   UNL     1      37.725 -23.063 -12.906  0.00  0.00    +0.120 C 
ATOM     13  C   UNL     1      36.158 -21.872 -17.617  0.00  0.00    +0.058 C 
ATOM     14  C   UNL     1      37.319 -21.623 -16.898  0.00  0.00    +0.013 C 
ENDROOT
BRANCH   7  16
ATOM     15  F   UNL     1      32.848 -23.831 -17.727  0.00  0.00    -0.204 F 
ATOM     16  C   UNL     1      32.851 -23.533 -15.370  0.00  0.00    +0.045 C 
ATOM     17  C   UNL     1      32.229 -23.428 -16.608  0.00  0.00    +0.142 C 
ATOM     18  C   UNL     1      32.205 -23.113 -14.213  0.00  0.00    +0.004 C 
ATOM     19  C   UNL     1      30.942 -22.895 -16.691  0.00  0.00    +0.030 C 
ATOM     20  C   UNL     1      30.918 -22.581 -14.295  0.00  0.00    +0.000 C 
ATOM     21  C   UNL     1      30.288 -22.472 -15.534  0.00  0.00    +0.002 C 
ENDBRANCH   7  16
TORSDOF 1
ENDMDL
MODEL 7
REMARK VINA RESULT:      -7.5     12.530     14.990
REMARK  Name = 3369
REMARK  1 active torsions:
REMARK  status: ('A' for Active; 'I' for Inactive)
REMARK    1  A    between atoms: C_7  and  C_16
REMARK                            x       y       z     vdW  Elec       q    Type
REMARK                         _______ _______ _______ _____ _____    ______ ____
ROOT
ATOM      1 CL   UNL     1      34.992 -15.737 -20.469  0.00  0.00    -0.082 Cl
ATOM      2  O   UNL     1      33.011 -12.545 -27.642  0.00  0.00    -0.272 OA
ATOM      3  N   UNL     1      33.138 -14.118 -25.927  0.00  0.00    -0.255 N 
ATOM      4  N   UNL     1      33.618 -11.367 -24.733  0.00  0.00    -0.260 NA
ATOM      5  C   UNL     1      33.691 -13.526 -23.558  0.00  0.00    +0.032 C 
ATOM      6  C   UNL     1      33.547 -14.471 -24.595  0.00  0.00    +0.055 C 
ATOM      7  C   UNL     1      33.301 -12.093 -23.715  0.00  0.00    +0.080 C 
ATOM      8  C   UNL     1      34.385 -11.989 -25.792  0.00  0.00    +0.210 C 
ATOM      9  C   UNL     1      33.435 -12.893 -26.537  0.00  0.00    +0.254 C 
ATOM     10  C   UNL     1      34.155 -13.923 -22.290  0.00  0.00    +0.014 C 
ATOM     11  C   UNL     1      33.806 -15.821 -24.287  0.00  0.00    +0.016 C 
ATOM     12  C   UNL     1      32.425 -15.121 -26.718  0.00  0.00    +0.120 C 
ATOM     13  C   UNL     1      34.433 -15.261 -22.025  0.00  0.00    +0.058 C 
ATOM     14  C   UNL     1      34.246 -16.211 -23.020  0.00  0.00    +0.013 C 
ENDROOT
BRANCH   7  16
ATOM     15  F   UNL     1      33.492  -9.345 -23.098  0.00  0.00    -0.204 F 
ATOM     16  C   UNL     1      32.481 -11.448 -22.650  0.00  0.00    +0.045 C 
ATOM     17  C   UNL     1      32.624 -10.088 -22.397  0.00  0.00    +0.142 C 
ATOM     18  C   UNL     1      31.580 -12.214 -21.920  0.00  0.00    +0.004 C 
ATOM     19  C   UNL     1      31.855  -9.487 -21.400  0.00  0.00    +0.030 C 
ATOM     20  C   UNL     1      30.811 -11.613 -20.923  0.00  0.00    +0.000 C 
ATOM     21  C   UNL     1      30.949 -10.250 -20.664  0.00  0.00    +0.002 C 
ENDBRANCH   7  16
TORSDOF 1
ENDMDL
MODEL 8
REMARK VINA RESULT:      -7.4      3.137      5.438
REMARK  Name = 3369
REMARK  1 active torsions:
REMARK  status: ('A' for Active; 'I' for Inactive)
REMARK    1  A    between atoms: C_7  and  C_16
REMARK                            x       y       z     vdW  Elec       q    Type
REMARK                         _______ _______ _______ _____ _____    ______ ____
ROOT
ATOM      1 CL   UNL     1      30.996 -22.805 -14.577  0.00  0.00    -0.082 Cl
ATOM      2  O   UNL     1      38.789 -24.949 -15.069  0.00  0.00    -0.272 OA
ATOM      3  N   UNL     1      36.479 -25.192 -14.886  0.00  0.00    -0.255 N 
ATOM      4  N   UNL     1      37.056 -22.471 -16.107  0.00  0.00    -0.260 NA
ATOM      5  C   UNL     1      34.853 -23.397 -15.524  0.00  0.00    +0.032 C 
ATOM      6  C   UNL     1      35.167 -24.605 -14.866  0.00  0.00    +0.055 C 
ATOM      7  C   UNL     1      35.822 -22.691 -16.414  0.00  0.00    +0.080 C 
ATOM      8  C   UNL     1      37.528 -22.956 -14.827  0.00  0.00    +0.210 C 
ATOM      9  C   UNL     1      37.665 -24.452 -14.957  0.00  0.00    +0.254 C 
ATOM     10  C   UNL     1      33.566 -22.839 -15.415  0.00  0.00    +0.014 C 
ATOM     11  C   UNL     1      34.129 -25.258 -14.173  0.00  0.00    +0.016 C 
ATOM     12  C   UNL     1      36.585 -26.646 -14.761  0.00  0.00    +0.120 C 
ATOM     13  C   UNL     1      32.569 -23.493 -14.697  0.00  0.00    +0.058 C 
ATOM     14  C   UNL     1      32.848 -24.709 -14.087  0.00  0.00    +0.013 C 
ENDROOT
BRANCH   7  16
ATOM     15  F   UNL     1      37.382 -21.006 -18.057  0.00  0.00    -0.204 F 
ATOM     16  C   UNL     1      35.360 -22.217 -17.750  0.00  0.00    +0.045 C 
ATOM     17  C   UNL     1      36.179 -21.388 -18.509  0.00  0.00    +0.142 C 
ATOM     18  C   UNL     1      34.114 -22.610 -18.223  0.00  0.00    +0.004 C 
ATOM     19  C   UNL     1      35.744 -20.947 -19.759  0.00  0.00    +0.030 C 
ATOM     20  C   UNL     1      33.680 -22.169 -19.474  0.00  0.00    +0.000 C 
ATOM     21  C   UNL     1      34.495 -21.337 -20.241  0.00  0.00    +0.002 C 
ENDBRANCH   7  16
TORSDOF 1
ENDMDL
MODEL 9
REMARK VINA RESULT:      -7.1      2.645      5.452
REMARK  Name = 3369
REMARK  1 active torsions:
REMARK  status: ('A' for Active; 'I' for Inactive)
REMARK    1  A    between atoms: C_7  and  C_16
REMARK                            x       y       z     vdW  Elec       q    Type
REMARK                         _______ _______ _______ _____ _____    ______ ____
ROOT
ATOM      1 CL   UNL     1      36.907 -27.800 -16.524  0.00  0.00    -0.082 Cl
ATOM      2  O   UNL     1      36.813 -22.751 -10.195  0.00  0.00    -0.272 OA
ATOM      3  N   UNL     1      37.568 -23.760 -12.154  0.00  0.00    -0.255 N 
ATOM      4  N   UNL     1      34.582 -24.260 -11.917  0.00  0.00    -0.260 NA
ATOM      5  C   UNL     1      36.090 -25.096 -13.671  0.00  0.00    +0.032 C 
ATOM      6  C   UNL     1      37.367 -24.700 -13.223  0.00  0.00    +0.055 C 
ATOM      7  C   UNL     1      34.831 -24.472 -13.164  0.00  0.00    +0.080 C 
ATOM      8  C   UNL     1      35.595 -24.638 -10.954  0.00  0.00    +0.210 C 
ATOM      9  C   UNL     1      36.699 -23.616 -11.067  0.00  0.00    +0.254 C 
ATOM     10  C   UNL     1      35.956 -26.068 -14.680  0.00  0.00    +0.014 C 
ATOM     11  C   UNL     1      38.486 -25.252 -13.877  0.00  0.00    +0.016 C 
ATOM     12  C   UNL     1      38.787 -22.951 -12.169  0.00  0.00    +0.120 C 
ATOM     13  C   UNL     1      37.082 -26.618 -15.286  0.00  0.00    +0.058 C 
ATOM     14  C   UNL     1      38.346 -26.201 -14.893  0.00  0.00    +0.013 C 
ENDROOT
BRANCH   7  16
ATOM     15  F   UNL     1      35.407 -22.794 -15.360  0.00  0.00    -0.204 F 
ATOM     16  C   UNL     1      33.792 -24.045 -14.146  0.00  0.00    +0.045 C 
ATOM     17  C   UNL     1      34.143 -23.217 -15.205  0.00  0.00    +0.142 C 
ATOM     18  C   UNL     1      32.481 -24.480 -13.990  0.00  0.00    +0.004 C 
ATOM     19  C   UNL     1      33.170 -22.819 -16.123  0.00  0.00    +0.030 C 
ATOM     20  C   UNL     1      31.508 -24.083 -14.907  0.00  0.00    +0.000 C 
ATOM     21  C   UNL     1      31.853 -23.252 -15.972  0.00  0.00    +0.002 C 
ENDBRANCH   7  16
TORSDOF 1
ENDMDL
