MODEL 1
REMARK VINA RESULT:      -7.7      0.000      0.000
REMARK  Name = 176885
REMARK  6 active torsions:
REMARK  status: ('A' for Active; 'I' for Inactive)
REMARK    1  A    between atoms: C_2  and  O_16
REMARK    2  A    between atoms: C_2  and  C_20
REMARK    3  A    between atoms: C_3  and  O_18
REMARK    4  A    between atoms: C_4  and  C_22
REMARK    5  A    between atoms: C_5  and  N_7
REMARK    6  A    between atoms: C_22  and  O_23
REMARK                            x       y       z     vdW  Elec       q    Type
REMARK                         _______ _______ _______ _____ _____    ______ ____
ROOT
ATOM      1  O   UNL     1      35.350 -17.082 -20.800  0.00  0.00    -0.331 OA
ATOM      2  C   UNL     1      34.833 -16.401 -23.009  0.00  0.00    +0.198 C 
ATOM      3  C   UNL     1      34.647 -17.908 -22.919  0.00  0.00    +0.197 C 
ATOM      4  C   UNL     1      34.751 -15.989 -21.535  0.00  0.00    +0.185 C 
ATOM      5  C   UNL     1      35.374 -18.256 -21.628  0.00  0.00    +0.237 C 
ENDROOT
BRANCH   5   7
ATOM      6  O   UNL     1      36.716 -20.183 -20.073  0.00  0.00    -0.193 OA
ATOM      7  N   UNL     1      34.745 -19.336 -20.922  0.00  0.00    -0.178 N 
ATOM      8  N   UNL     1      34.815 -21.285 -19.502  0.00  0.00    -0.306 NA
ATOM      9  N   UNL     1      32.865 -22.410 -18.921  0.00  0.00    -0.332 N 
ATOM     10  C   UNL     1      33.366 -19.465 -20.995  0.00  0.00    +0.083 C 
ATOM     11  C   UNL     1      35.490 -20.269 -20.157  0.00  0.00    +0.276 C 
ATOM     12  C   UNL     1      32.700 -20.436 -20.373  0.00  0.00    +0.065 C 
ATOM     13  C   UNL     1      33.516 -21.393 -19.580  0.00  0.00    +0.193 C 
ATOM     14  H   UNL     1      33.379 -23.060 -18.389  0.00  0.00    +0.145 HD
ATOM     15  H   UNL     1      31.885 -22.489 -18.983  0.00  0.00    +0.145 HD
ENDBRANCH   5   7
BRANCH   2  16
ATOM     16  O   UNL     1      36.141 -16.093 -23.496  0.00  0.00    -0.371 OA
ATOM     17  H   UNL     1      36.444 -16.804 -24.081  0.00  0.00    +0.212 HD
ENDBRANCH   2  16
BRANCH   3  18
ATOM     18  O   UNL     1      35.211 -18.606 -24.016  0.00  0.00    -0.377 OA
ATOM     19  H   UNL     1      35.847 -18.032 -24.470  0.00  0.00    +0.211 HD
ENDBRANCH   3  18
BRANCH   2  20
ATOM     20  C   UNL     1      33.849 -15.750 -23.876  0.00  0.00    -0.047 C 
ATOM     21  C   UNL     1      33.043 -15.216 -24.587  0.00  0.00    -0.012 C 
ENDBRANCH   2  20
BRANCH   4  22
ATOM     22  C   UNL     1      33.346 -15.789 -20.969  0.00  0.00    +0.170 C 
BRANCH  22  23
ATOM     23  O   UNL     1      33.192 -14.428 -20.616  0.00  0.00    -0.379 OA
ATOM     24  H   UNL     1      33.561 -14.279 -19.732  0.00  0.00    +0.211 HD
ENDBRANCH  22  23
ENDBRANCH   4  22
TORSDOF 6
ENDMDL
MODEL 2
REMARK VINA RESULT:      -7.6      8.641     10.820
REMARK  Name = 176885
REMARK  6 active torsions:
REMARK  status: ('A' for Active; 'I' for Inactive)
REMARK    1  A    between atoms: C_2  and  O_16
REMARK    2  A    between atoms: C_2  and  C_20
REMARK    3  A    between atoms: C_3  and  O_18
REMARK    4  A    between atoms: C_4  and  C_22
REMARK    5  A    between atoms: C_5  and  N_7
REMARK    6  A    between atoms: C_22  and  O_23
REMARK                            x       y       z     vdW  Elec       q    Type
REMARK                         _______ _______ _______ _____ _____    ______ ____
ROOT
ATOM      1  O   UNL     1      35.215 -24.248 -12.517  0.00  0.00    -0.331 OA
ATOM      2  C   UNL     1      37.181 -25.473 -13.006  0.00  0.00    +0.198 C 
ATOM      3  C   UNL     1      36.224 -25.620 -14.180  0.00  0.00    +0.197 C 
ATOM      4  C   UNL     1      36.649 -24.207 -12.327  0.00  0.00    +0.185 C 
ATOM      5  C   UNL     1      34.902 -25.151 -13.590  0.00  0.00    +0.237 C 
ENDROOT
BRANCH   5   7
ATOM      6  O   UNL     1      32.111 -24.814 -13.416  0.00  0.00    -0.193 OA
ATOM      7  N   UNL     1      34.088 -24.466 -14.553  0.00  0.00    -0.178 N 
ATOM      8  N   UNL     1      31.964 -23.661 -15.365  0.00  0.00    -0.306 NA
ATOM      9  N   UNL     1      31.819 -22.481 -17.364  0.00  0.00    -0.332 N 
ATOM     10  C   UNL     1      34.699 -23.916 -15.670  0.00  0.00    +0.083 C 
ATOM     11  C   UNL     1      32.685 -24.337 -14.395  0.00  0.00    +0.276 C 
ATOM     12  C   UNL     1      34.023 -23.265 -16.614  0.00  0.00    +0.065 C 
ATOM     13  C   UNL     1      32.554 -23.149 -16.412  0.00  0.00    +0.193 C 
ATOM     14  H   UNL     1      30.844 -22.389 -17.258  0.00  0.00    +0.145 HD
ATOM     15  H   UNL     1      32.267 -22.097 -18.152  0.00  0.00    +0.145 HD
ENDBRANCH   5   7
BRANCH   2  16
ATOM     16  O   UNL     1      37.032 -26.572 -12.104  0.00  0.00    -0.371 OA
ATOM     17  H   UNL     1      37.837 -26.665 -11.572  0.00  0.00    +0.212 HD
ENDBRANCH   2  16
BRANCH   3  18
ATOM     18  O   UNL     1      36.119 -26.953 -14.649  0.00  0.00    -0.377 OA
ATOM     19  H   UNL     1      36.963 -27.224 -15.041  0.00  0.00    +0.211 HD
ENDBRANCH   3  18
BRANCH   2  20
ATOM     20  C   UNL     1      38.586 -25.396 -13.415  0.00  0.00    -0.047 C 
ATOM     21  C   UNL     1      39.737 -25.334 -13.750  0.00  0.00    -0.012 C 
ENDBRANCH   2  20
BRANCH   4  22
ATOM     22  C   UNL     1      37.135 -22.878 -12.901  0.00  0.00    +0.170 C 
BRANCH  22  23
ATOM     23  O   UNL     1      37.838 -22.180 -11.890  0.00  0.00    -0.379 OA
ATOM     24  H   UNL     1      38.047 -21.286 -12.200  0.00  0.00    +0.211 HD
ENDBRANCH  22  23
ENDBRANCH   4  22
TORSDOF 6
ENDMDL
MODEL 3
REMARK VINA RESULT:      -7.5      3.036      6.169
REMARK  Name = 176885
REMARK  6 active torsions:
REMARK  status: ('A' for Active; 'I' for Inactive)
REMARK    1  A    between atoms: C_2  and  O_16
REMARK    2  A    between atoms: C_2  and  C_20
REMARK    3  A    between atoms: C_3  and  O_18
REMARK    4  A    between atoms: C_4  and  C_22
REMARK    5  A    between atoms: C_5  and  N_7
REMARK    6  A    between atoms: C_22  and  O_23
REMARK                            x       y       z     vdW  Elec       q    Type
REMARK                         _______ _______ _______ _____ _____    ______ ____
ROOT
ATOM      1  O   UNL     1      35.711 -17.558 -23.466  0.00  0.00    -0.331 OA
ATOM      2  C   UNL     1      34.748 -18.369 -21.460  0.00  0.00    +0.198 C 
ATOM      3  C   UNL     1      34.078 -17.049 -21.811  0.00  0.00    +0.197 C 
ATOM      4  C   UNL     1      35.329 -18.792 -22.813  0.00  0.00    +0.185 C 
ATOM      5  C   UNL     1      35.029 -16.459 -22.842  0.00  0.00    +0.237 C 
ENDROOT
BRANCH   5   7
ATOM      6  O   UNL     1      34.191 -13.781 -22.590  0.00  0.00    -0.193 OA
ATOM      7  N   UNL     1      34.339 -15.707 -23.852  0.00  0.00    -0.178 N 
ATOM      8  N   UNL     1      33.288 -13.696 -24.671  0.00  0.00    -0.306 NA
ATOM      9  N   UNL     1      32.362 -13.615 -26.803  0.00  0.00    -0.332 N 
ATOM     10  C   UNL     1      34.048 -16.325 -25.059  0.00  0.00    +0.083 C 
ATOM     11  C   UNL     1      33.949 -14.359 -23.651  0.00  0.00    +0.276 C 
ATOM     12  C   UNL     1      33.412 -15.705 -26.051  0.00  0.00    +0.065 C 
ATOM     13  C   UNL     1      33.020 -14.292 -25.802  0.00  0.00    +0.193 C 
ATOM     14  H   UNL     1      32.090 -12.678 -26.667  0.00  0.00    +0.145 HD
ATOM     15  H   UNL     1      32.162 -14.067 -27.654  0.00  0.00    +0.145 HD
ENDBRANCH   5   7
BRANCH   2  16
ATOM     16  O   UNL     1      35.826 -18.150 -20.549  0.00  0.00    -0.371 OA
ATOM     17  H   UNL     1      35.703 -17.299 -20.101  0.00  0.00    +0.212 HD
ENDBRANCH   2  16
BRANCH   3  18
ATOM     18  O   UNL     1      33.942 -16.181 -20.699  0.00  0.00    -0.377 OA
ATOM     19  H   UNL     1      33.001 -16.038 -20.515  0.00  0.00    +0.211 HD
ENDBRANCH   3  18
BRANCH   2  20
ATOM     20  C   UNL     1      33.827 -19.341 -20.866  0.00  0.00    -0.047 C 
ATOM     21  C   UNL     1      33.073 -20.137 -20.378  0.00  0.00    -0.012 C 
ENDBRANCH   2  20
BRANCH   4  22
ATOM     22  C   UNL     1      34.375 -19.518 -23.760  0.00  0.00    +0.170 C 
BRANCH  22  23
ATOM     23  O   UNL     1      35.064 -19.804 -24.962  0.00  0.00    -0.379 OA
ATOM     24  H   UNL     1      35.567 -19.024 -25.240  0.00  0.00    +0.211 HD
ENDBRANCH  22  23
ENDBRANCH   4  22
TORSDOF 6
ENDMDL
MODEL 4
REMARK VINA RESULT:      -7.4      8.416     10.524
REMARK  Name = 176885
REMARK  6 active torsions:
REMARK  status: ('A' for Active; 'I' for Inactive)
REMARK    1  A    between atoms: C_2  and  O_16
REMARK    2  A    between atoms: C_2  and  C_20
REMARK    3  A    between atoms: C_3  and  O_18
REMARK    4  A    between atoms: C_4  and  C_22
REMARK    5  A    between atoms: C_5  and  N_7
REMARK    6  A    between atoms: C_22  and  O_23
REMARK                            x       y       z     vdW  Elec       q    Type
REMARK                         _______ _______ _______ _____ _____    ______ ____
ROOT
ATOM      1  O   UNL     1      35.444 -24.381 -15.868  0.00  0.00    -0.331 OA
ATOM      2  C   UNL     1      36.939 -24.349 -14.032  0.00  0.00    +0.198 C 
ATOM      3  C   UNL     1      35.554 -23.973 -13.526  0.00  0.00    +0.197 C 
ATOM      4  C   UNL     1      36.607 -25.065 -15.345  0.00  0.00    +0.185 C 
ATOM      5  C   UNL     1      34.810 -23.643 -14.811  0.00  0.00    +0.237 C 
ENDROOT
BRANCH   5   7
ATOM      6  O   UNL     1      32.862 -22.985 -16.737  0.00  0.00    -0.193 OA
ATOM      7  N   UNL     1      33.425 -24.016 -14.751  0.00  0.00    -0.178 N 
ATOM      8  N   UNL     1      31.181 -24.042 -15.637  0.00  0.00    -0.306 NA
ATOM      9  N   UNL     1      29.463 -25.125 -14.505  0.00  0.00    -0.332 N 
ATOM     10  C   UNL     1      32.982 -24.759 -13.667  0.00  0.00    +0.083 C 
ATOM     11  C   UNL     1      32.502 -23.646 -15.762  0.00  0.00    +0.276 C 
ATOM     12  C   UNL     1      31.716 -25.148 -13.528  0.00  0.00    +0.065 C 
ATOM     13  C   UNL     1      30.780 -24.742 -14.609  0.00  0.00    +0.193 C 
ATOM     14  H   UNL     1      28.819 -24.871 -15.206  0.00  0.00    +0.145 HD
ATOM     15  H   UNL     1      29.163 -25.653 -13.729  0.00  0.00    +0.145 HD
ENDBRANCH   5   7
BRANCH   2  16
ATOM     16  O   UNL     1      37.692 -23.172 -14.332  0.00  0.00    -0.371 OA
ATOM     17  H   UNL     1      38.597 -23.274 -14.001  0.00  0.00    +0.212 HD
ENDBRANCH   2  16
BRANCH   3  18
ATOM     18  O   UNL     1      35.564 -22.858 -12.651  0.00  0.00    -0.377 OA
ATOM     19  H   UNL     1      35.625 -23.167 -11.735  0.00  0.00    +0.211 HD
ENDBRANCH   3  18
BRANCH   2  20
ATOM     20  C   UNL     1      37.701 -25.156 -13.077  0.00  0.00    -0.047 C 
ATOM     21  C   UNL     1      38.326 -25.818 -12.294  0.00  0.00    -0.012 C 
ENDBRANCH   2  20
BRANCH   4  22
ATOM     22  C   UNL     1      36.238 -26.543 -15.232  0.00  0.00    +0.170 C 
BRANCH  22  23
ATOM     23  O   UNL     1      36.828 -27.239 -16.313  0.00  0.00    -0.379 OA
ATOM     24  H   UNL     1      36.524 -28.159 -16.310  0.00  0.00    +0.211 HD
ENDBRANCH  22  23
ENDBRANCH   4  22
TORSDOF 6
ENDMDL
MODEL 5
REMARK VINA RESULT:      -7.0      7.619     10.510
REMARK  Name = 176885
REMARK  6 active torsions:
REMARK  status: ('A' for Active; 'I' for Inactive)
REMARK    1  A    between atoms: C_2  and  O_16
REMARK    2  A    between atoms: C_2  and  C_20
REMARK    3  A    between atoms: C_3  and  O_18
REMARK    4  A    between atoms: C_4  and  C_22
REMARK    5  A    between atoms: C_5  and  N_7
REMARK    6  A    between atoms: C_22  and  O_23
REMARK                            x       y       z     vdW  Elec       q    Type
REMARK                         _______ _______ _______ _____ _____    ______ ____
ROOT
ATOM      1  O   UNL     1      35.168 -24.033 -12.783  0.00  0.00    -0.331 OA
ATOM      2  C   UNL     1      37.091 -25.393 -13.019  0.00  0.00    +0.198 C 
ATOM      3  C   UNL     1      36.243 -25.547 -14.272  0.00  0.00    +0.197 C 
ATOM      4  C   UNL     1      36.577 -24.065 -12.455  0.00  0.00    +0.185 C 
ATOM      5  C   UNL     1      34.902 -24.972 -13.837  0.00  0.00    +0.237 C 
ENDROOT
BRANCH   5   7
ATOM      6  O   UNL     1      36.148 -23.893 -16.121  0.00  0.00    -0.193 OA
ATOM      7  N   UNL     1      34.228 -24.292 -14.906  0.00  0.00    -0.178 N 
ATOM      8  N   UNL     1      34.208 -23.131 -17.021  0.00  0.00    -0.306 NA
ATOM      9  N   UNL     1      32.218 -22.351 -17.937  0.00  0.00    -0.332 N 
ATOM     10  C   UNL     1      32.851 -24.139 -14.834  0.00  0.00    +0.083 C 
ATOM     11  C   UNL     1      34.925 -23.775 -16.027  0.00  0.00    +0.276 C 
ATOM     12  C   UNL     1      32.144 -23.522 -15.778  0.00  0.00    +0.065 C 
ATOM     13  C   UNL     1      32.911 -22.995 -16.938  0.00  0.00    +0.193 C 
ATOM     14  H   UNL     1      32.699 -21.992 -18.717  0.00  0.00    +0.145 HD
ATOM     15  H   UNL     1      31.240 -22.250 -17.871  0.00  0.00    +0.145 HD
ENDBRANCH   5   7
BRANCH   2  16
ATOM     16  O   UNL     1      36.788 -26.433 -12.086  0.00  0.00    -0.371 OA
ATOM     17  H   UNL     1      36.131 -27.032 -12.472  0.00  0.00    +0.212 HD
ENDBRANCH   2  16
BRANCH   3  18
ATOM     18  O   UNL     1      36.099 -26.894 -14.687  0.00  0.00    -0.377 OA
ATOM     19  H   UNL     1      35.483 -26.938 -15.434  0.00  0.00    +0.211 HD
ENDBRANCH   3  18
BRANCH   2  20
ATOM     20  C   UNL     1      38.530 -25.419 -13.292  0.00  0.00    -0.047 C 
ATOM     21  C   UNL     1      39.709 -25.441 -13.516  0.00  0.00    -0.012 C 
ENDBRANCH   2  20
BRANCH   4  22
ATOM     22  C   UNL     1      37.198 -22.798 -13.041  0.00  0.00    +0.170 C 
BRANCH  22  23
ATOM     23  O   UNL     1      37.897 -22.123 -12.013  0.00  0.00    -0.379 OA
ATOM     24  H   UNL     1      37.762 -21.167 -12.105  0.00  0.00    +0.211 HD
ENDBRANCH  22  23
ENDBRANCH   4  22
TORSDOF 6
ENDMDL
MODEL 6
REMARK VINA RESULT:      -6.9      6.814      9.428
REMARK  Name = 176885
REMARK  6 active torsions:
REMARK  status: ('A' for Active; 'I' for Inactive)
REMARK    1  A    between atoms: C_2  and  O_16
REMARK    2  A    between atoms: C_2  and  C_20
REMARK    3  A    between atoms: C_3  and  O_18
REMARK    4  A    between atoms: C_4  and  C_22
REMARK    5  A    between atoms: C_5  and  N_7
REMARK    6  A    between atoms: C_22  and  O_23
REMARK                            x       y       z     vdW  Elec       q    Type
REMARK                         _______ _______ _______ _____ _____    ______ ____
ROOT
ATOM      1  O   UNL     1      35.616 -25.016 -15.565  0.00  0.00    -0.331 OA
ATOM      2  C   UNL     1      37.155 -23.623 -14.425  0.00  0.00    +0.198 C 
ATOM      3  C   UNL     1      36.141 -22.735 -15.132  0.00  0.00    +0.197 C 
ATOM      4  C   UNL     1      36.403 -24.956 -14.352  0.00  0.00    +0.185 C 
ATOM      5  C   UNL     1      35.490 -23.695 -16.117  0.00  0.00    +0.237 C 
ENDROOT
BRANCH   5   7
ATOM      6  O   UNL     1      34.306 -23.040 -18.587  0.00  0.00    -0.193 OA
ATOM      7  N   UNL     1      34.098 -23.408 -16.319  0.00  0.00    -0.178 N 
ATOM      8  N   UNL     1      32.221 -22.820 -17.716  0.00  0.00    -0.306 NA
ATOM      9  N   UNL     1      30.088 -22.594 -16.818  0.00  0.00    -0.332 N 
ATOM     10  C   UNL     1      33.245 -23.447 -15.226  0.00  0.00    +0.083 C 
ATOM     11  C   UNL     1      33.575 -23.085 -17.596  0.00  0.00    +0.276 C 
ATOM     12  C   UNL     1      31.941 -23.193 -15.321  0.00  0.00    +0.065 C 
ATOM     13  C   UNL     1      31.431 -22.861 -16.677  0.00  0.00    +0.193 C 
ATOM     14  H   UNL     1      29.721 -22.370 -17.704  0.00  0.00    +0.145 HD
ATOM     15  H   UNL     1      29.495 -22.625 -16.033  0.00  0.00    +0.145 HD
ENDBRANCH   5   7
BRANCH   2  16
ATOM     16  O   UNL     1      38.315 -23.797 -15.241  0.00  0.00    -0.371 OA
ATOM     17  H   UNL     1      38.897 -24.460 -14.839  0.00  0.00    +0.212 HD
ENDBRANCH   2  16
BRANCH   3  18
ATOM     18  O   UNL     1      36.736 -21.645 -15.814  0.00  0.00    -0.377 OA
ATOM     19  H   UNL     1      37.546 -21.944 -16.256  0.00  0.00    +0.211 HD
ENDBRANCH   3  18
BRANCH   2  20
ATOM     20  C   UNL     1      37.576 -23.093 -13.126  0.00  0.00    -0.047 C 
ATOM     21  C   UNL     1      37.921 -22.660 -12.061  0.00  0.00    -0.012 C 
ENDBRANCH   2  20
BRANCH   4  22
ATOM     22  C   UNL     1      35.432 -25.120 -13.185  0.00  0.00    +0.170 C 
BRANCH  22  23
ATOM     23  O   UNL     1      36.111 -25.761 -12.121  0.00  0.00    -0.379 OA
ATOM     24  H   UNL     1      35.482 -26.296 -11.613  0.00  0.00    +0.211 HD
ENDBRANCH  22  23
ENDBRANCH   4  22
TORSDOF 6
ENDMDL
MODEL 7
REMARK VINA RESULT:      -6.6      7.490      9.745
REMARK  Name = 176885
REMARK  6 active torsions:
REMARK  status: ('A' for Active; 'I' for Inactive)
REMARK    1  A    between atoms: C_2  and  O_16
REMARK    2  A    between atoms: C_2  and  C_20
REMARK    3  A    between atoms: C_3  and  O_18
REMARK    4  A    between atoms: C_4  and  C_22
REMARK    5  A    between atoms: C_5  and  N_7
REMARK    6  A    between atoms: C_22  and  O_23
REMARK                            x       y       z     vdW  Elec       q    Type
REMARK                         _______ _______ _______ _____ _____    ______ ____
ROOT
ATOM      1  O   UNL     1      33.831  -8.225 -22.406  0.00  0.00    -0.331 OA
ATOM      2  C   UNL     1      32.057  -6.687 -22.713  0.00  0.00    +0.198 C 
ATOM      3  C   UNL     1      31.653  -8.012 -23.340  0.00  0.00    +0.197 C 
ATOM      4  C   UNL     1      33.162  -7.124 -21.746  0.00  0.00    +0.185 C 
ATOM      5  C   UNL     1      32.979  -8.753 -23.434  0.00  0.00    +0.237 C 
ENDROOT
BRANCH   5   7
ATOM      6  O   UNL     1      34.453 -10.750 -24.766  0.00  0.00    -0.193 OA
ATOM      7  N   UNL     1      32.830 -10.166 -23.234  0.00  0.00    -0.178 N 
ATOM      8  N   UNL     1      33.412 -12.461 -23.698  0.00  0.00    -0.306 NA
ATOM      9  N   UNL     1      32.341 -14.210 -22.602  0.00  0.00    -0.332 N 
ATOM     10  C   UNL     1      31.889 -10.613 -22.317  0.00  0.00    +0.083 C 
ATOM     11  C   UNL     1      33.611 -11.113 -23.944  0.00  0.00    +0.276 C 
ATOM     12  C   UNL     1      31.683 -11.904 -22.068  0.00  0.00    +0.065 C 
ATOM     13  C   UNL     1      32.522 -12.865 -22.831  0.00  0.00    +0.193 C 
ATOM     14  H   UNL     1      32.882 -14.870 -23.092  0.00  0.00    +0.145 HD
ATOM     15  H   UNL     1      31.669 -14.512 -21.948  0.00  0.00    +0.145 HD
ENDBRANCH   5   7
BRANCH   2  16
ATOM     16  O   UNL     1      32.630  -5.826 -23.700  0.00  0.00    -0.371 OA
ATOM     17  H   UNL     1      33.544  -6.099 -23.876  0.00  0.00    +0.212 HD
ENDBRANCH   2  16
BRANCH   3  18
ATOM     18  O   UNL     1      31.068  -7.866 -24.623  0.00  0.00    -0.377 OA
ATOM     19  H   UNL     1      31.359  -8.593 -25.195  0.00  0.00    +0.211 HD
ENDBRANCH   3  18
BRANCH   2  20
ATOM     20  C   UNL     1      30.939  -5.986 -22.078  0.00  0.00    -0.047 C 
ATOM     21  C   UNL     1      30.023  -5.411 -21.557  0.00  0.00    -0.012 C 
ENDBRANCH   2  20
BRANCH   4  22
ATOM     22  C   UNL     1      32.701  -7.638 -20.383  0.00  0.00    +0.170 C 
BRANCH  22  23
ATOM     23  O   UNL     1      33.274  -6.825 -19.377  0.00  0.00    -0.379 OA
ATOM     24  H   UNL     1      33.012  -7.157 -18.505  0.00  0.00    +0.211 HD
ENDBRANCH  22  23
ENDBRANCH   4  22
TORSDOF 6
ENDMDL
MODEL 8
REMARK VINA RESULT:      -6.6      6.382      9.924
REMARK  Name = 176885
REMARK  6 active torsions:
REMARK  status: ('A' for Active; 'I' for Inactive)
REMARK    1  A    between atoms: C_2  and  O_16
REMARK    2  A    between atoms: C_2  and  C_20
REMARK    3  A    between atoms: C_3  and  O_18
REMARK    4  A    between atoms: C_4  and  C_22
REMARK    5  A    between atoms: C_5  and  N_7
REMARK    6  A    between atoms: C_22  and  O_23
REMARK                            x       y       z     vdW  Elec       q    Type
REMARK                         _______ _______ _______ _____ _____    ______ ____
ROOT
ATOM      1  O   UNL     1      35.488 -23.275 -14.027  0.00  0.00    -0.331 OA
ATOM      2  C   UNL     1      37.015 -25.041 -13.630  0.00  0.00    +0.198 C 
ATOM      3  C   UNL     1      36.781 -24.942 -15.130  0.00  0.00    +0.197 C 
ATOM      4  C   UNL     1      36.579 -23.652 -13.154  0.00  0.00    +0.185 C 
ATOM      5  C   UNL     1      35.527 -24.084 -15.214  0.00  0.00    +0.237 C 
ENDROOT
BRANCH   5   7
ATOM      6  O   UNL     1      33.355 -23.700 -16.966  0.00  0.00    -0.193 OA
ATOM      7  N   UNL     1      35.530 -23.224 -16.363  0.00  0.00    -0.178 N 
ATOM      8  N   UNL     1      34.471 -22.233 -18.290  0.00  0.00    -0.306 NA
ATOM      9  N   UNL     1      35.620 -20.732 -19.645  0.00  0.00    -0.332 N 
ATOM     10  C   UNL     1      36.684 -22.513 -16.658  0.00  0.00    +0.083 C 
ATOM     11  C   UNL     1      34.395 -23.082 -17.199  0.00  0.00    +0.276 C 
ATOM     12  C   UNL     1      36.777 -21.693 -17.704  0.00  0.00    +0.065 C 
ATOM     13  C   UNL     1      35.565 -21.570 -18.556  0.00  0.00    +0.193 C 
ATOM     14  H   UNL     1      34.833 -20.630 -20.228  0.00  0.00    +0.145 HD
ATOM     15  H   UNL     1      36.446 -20.234 -19.843  0.00  0.00    +0.145 HD
ENDBRANCH   5   7
BRANCH   2  16
ATOM     16  O   UNL     1      36.140 -26.015 -13.057  0.00  0.00    -0.371 OA
ATOM     17  H   UNL     1      36.336 -26.887 -13.432  0.00  0.00    +0.212 HD
ENDBRANCH   2  16
BRANCH   3  18
ATOM     18  O   UNL     1      36.570 -26.201 -15.746  0.00  0.00    -0.377 OA
ATOM     19  H   UNL     1      36.272 -26.839 -15.080  0.00  0.00    +0.211 HD
ENDBRANCH   3  18
BRANCH   2  20
ATOM     20  C   UNL     1      38.393 -25.396 -13.285  0.00  0.00    -0.047 C 
ATOM     21  C   UNL     1      39.523 -25.686 -13.001  0.00  0.00    -0.012 C 
ENDBRANCH   2  20
BRANCH   4  22
ATOM     22  C   UNL     1      37.629 -22.546 -13.253  0.00  0.00    +0.170 C 
BRANCH  22  23
ATOM     23  O   UNL     1      37.918 -22.082 -11.948  0.00  0.00    -0.379 OA
ATOM     24  H   UNL     1      38.748 -21.581 -11.959  0.00  0.00    +0.211 HD
ENDBRANCH  22  23
ENDBRANCH   4  22
TORSDOF 6
ENDMDL
MODEL 9
REMARK VINA RESULT:      -6.4      7.639      9.347
REMARK  Name = 176885
REMARK  6 active torsions:
REMARK  status: ('A' for Active; 'I' for Inactive)
REMARK    1  A    between atoms: C_2  and  O_16
REMARK    2  A    between atoms: C_2  and  C_20
REMARK    3  A    between atoms: C_3  and  O_18
REMARK    4  A    between atoms: C_4  and  C_22
REMARK    5  A    between atoms: C_5  and  N_7
REMARK    6  A    between atoms: C_22  and  O_23
REMARK                            x       y       z     vdW  Elec       q    Type
REMARK                         _______ _______ _______ _____ _____    ______ ____
ROOT
ATOM      1  O   UNL     1      31.580 -22.785 -14.099  0.00  0.00    -0.331 OA
ATOM      2  C   UNL     1      30.009 -23.101 -15.843  0.00  0.00    +0.198 C 
ATOM      3  C   UNL     1      31.406 -23.268 -16.423  0.00  0.00    +0.197 C 
ATOM      4  C   UNL     1      30.264 -23.331 -14.349  0.00  0.00    +0.185 C 
ATOM      5  C   UNL     1      32.289 -22.661 -15.343  0.00  0.00    +0.237 C 
ENDROOT
BRANCH   5   7
ATOM      6  O   UNL     1      34.297 -22.704 -17.318  0.00  0.00    -0.193 OA
ATOM      7  N   UNL     1      33.551 -23.336 -15.228  0.00  0.00    -0.178 N 
ATOM      8  N   UNL     1      35.710 -23.984 -16.087  0.00  0.00    -0.306 NA
ATOM      9  N   UNL     1      37.153 -25.298 -14.822  0.00  0.00    -0.332 N 
ATOM     10  C   UNL     1      33.830 -24.031 -14.061  0.00  0.00    +0.083 C 
ATOM     11  C   UNL     1      34.514 -23.312 -16.268  0.00  0.00    +0.276 C 
ATOM     12  C   UNL     1      34.974 -24.686 -13.868  0.00  0.00    +0.065 C 
ATOM     13  C   UNL     1      35.958 -24.635 -14.981  0.00  0.00    +0.193 C 
ATOM     14  H   UNL     1      37.824 -25.282 -15.542  0.00  0.00    +0.145 HD
ATOM     15  H   UNL     1      37.337 -25.788 -13.987  0.00  0.00    +0.145 HD
ENDBRANCH   5   7
BRANCH   2  16
ATOM     16  O   UNL     1      29.555 -21.758 -16.026  0.00  0.00    -0.371 OA
ATOM     17  H   UNL     1      28.665 -21.664 -15.654  0.00  0.00    +0.212 HD
ENDBRANCH   2  16
BRANCH   3  18
ATOM     18  O   UNL     1      31.582 -22.590 -17.655  0.00  0.00    -0.377 OA
ATOM     19  H   UNL     1      32.218 -21.867 -17.537  0.00  0.00    +0.211 HD
ENDBRANCH   3  18
BRANCH   2  20
ATOM     20  C   UNL     1      29.026 -24.009 -16.437  0.00  0.00    -0.047 C 
ATOM     21  C   UNL     1      28.220 -24.753 -16.923  0.00  0.00    -0.012 C 
ENDBRANCH   2  20
BRANCH   4  22
ATOM     22  C   UNL     1      30.290 -24.786 -13.886  0.00  0.00    +0.170 C 
BRANCH  22  23
ATOM     23  O   UNL     1      30.430 -24.809 -12.479  0.00  0.00    -0.379 OA
ATOM     24  H   UNL     1      30.928 -24.029 -12.191  0.00  0.00    +0.211 HD
ENDBRANCH  22  23
ENDBRANCH   4  22
TORSDOF 6
ENDMDL
