MODEL 1
REMARK VINA RESULT:      -7.2      0.000      0.000
REMARK  Name = 18381
REMARK  5 active torsions:
REMARK  status: ('A' for Active; 'I' for Inactive)
REMARK    1  A    between atoms: N_2  and  CA_11
REMARK    2  A    between atoms: C_3  and  C_21
REMARK    3  A    between atoms: CA_10  and  C_16
REMARK    4  A    between atoms: C_16  and  O_17
REMARK    5  A    between atoms: C_22  and  C_27
REMARK                            x       y       z     vdW  Elec       q    Type
REMARK                         _______ _______ _______ _____ _____    ______ ____
ROOT
ATOM      1  O   UNL     1      31.211  -9.434 -23.271  0.00  0.00    -0.270 OA
ATOM      2  N   UNL     1      32.797 -11.094 -23.062  0.00  0.00    -0.293 N 
ATOM      3  C   UNL     1      32.393  -9.776 -23.306  0.00  0.00    +0.251 C 
ATOM      4  H   UNL     1      33.757 -11.309 -23.103  0.00  0.00    +0.150 HD
ENDROOT
BRANCH   2  11
ATOM      5  S   UNL     1      33.691 -13.787 -24.234  0.00  0.00    -0.118 S 
ATOM      6  O   UNL     1      32.274 -12.537 -20.254  0.00  0.00    -0.273 OA
ATOM      7  N   UNL     1      32.322 -14.070 -22.049  0.00  0.00    -0.260 N 
ATOM      8  C   UNL     1      32.083 -13.540 -23.395  0.00  0.00    +0.151 C 
ATOM      9  C   UNL     1      34.031 -15.310 -23.219  0.00  0.00    +0.068 C 
ATOM     10  CA  UNL     1      33.441 -14.964 -21.834  0.00  0.00    +0.184 C 
ATOM     11  CA  UNL     1      31.846 -12.170 -22.744  0.00  0.00    +0.178 C 
ATOM     12  C   UNL     1      32.130 -12.880 -21.406  0.00  0.00    +0.247 C 
ATOM     13  C   UNL     1      33.361 -16.503 -23.916  0.00  0.00    +0.013 C 
ATOM     14  C   UNL     1      35.543 -15.529 -23.141  0.00  0.00    +0.013 C 
BRANCH  10  16
ATOM     15  OXT UNL     1      31.764 -16.299 -20.724  0.00  0.00    -0.248 OA
ATOM     16  C   UNL     1      32.929 -16.129 -21.047  0.00  0.00    +0.333 C 
BRANCH  16  17
ATOM     17  O   UNL     1      33.941 -16.976 -20.735  0.00  0.00    -0.479 OA
ATOM     18  H   UNL     1      34.811 -16.795 -21.029  0.00  0.00    +0.295 HD
ENDBRANCH  16  17
ENDBRANCH  10  16
ENDBRANCH   2  11
BRANCH   3  21
ATOM     19  O   UNL     1      35.383  -7.973 -24.236  0.00  0.00    -0.358 OA
ATOM     20  N   UNL     1      34.644  -6.908 -23.732  0.00  0.00    -0.077 NA
ATOM     21  C   UNL     1      33.462  -8.807 -23.579  0.00  0.00    +0.107 A 
ATOM     22  C   UNL     1      33.485  -7.446 -23.342  0.00  0.00    +0.129 A 
ATOM     23  C   UNL     1      34.652  -9.113 -24.136  0.00  0.00    +0.159 A 
ATOM     24  C   UNL     1      35.291 -10.340 -24.629  0.00  0.00    +0.076 C 
BRANCH  22  27
ATOM     25 CL   UNL     1      32.073  -5.527 -25.246  0.00  0.00    -0.082 Cl
ATOM     26 CL   UNL     1      32.995  -7.829 -20.356  0.00  0.00    -0.082 Cl
ATOM     27  C   UNL     1      32.461  -6.619 -22.760  0.00  0.00    +0.042 C 
ATOM     28  C   UNL     1      31.758  -5.709 -23.554  0.00  0.00    +0.060 C 
ATOM     29  C   UNL     1      32.165  -6.722 -21.398  0.00  0.00    +0.060 C 
ATOM     30  C   UNL     1      30.766  -4.908 -22.989  0.00  0.00    +0.011 C 
ATOM     31  C   UNL     1      31.174  -5.920 -20.834  0.00  0.00    +0.011 C 
ATOM     32  C   UNL     1      30.474  -5.013 -21.629  0.00  0.00    +0.002 C 
ENDBRANCH  22  27
ENDBRANCH   3  21
TORSDOF 5
ENDMDL
MODEL 2
REMARK VINA RESULT:      -7.2      0.027      1.668
REMARK  Name = 18381
REMARK  5 active torsions:
REMARK  status: ('A' for Active; 'I' for Inactive)
REMARK    1  A    between atoms: N_2  and  CA_11
REMARK    2  A    between atoms: C_3  and  C_21
REMARK    3  A    between atoms: CA_10  and  C_16
REMARK    4  A    between atoms: C_16  and  O_17
REMARK    5  A    between atoms: C_22  and  C_27
REMARK                            x       y       z     vdW  Elec       q    Type
REMARK                         _______ _______ _______ _____ _____    ______ ____
ROOT
ATOM      1  O   UNL     1      31.211  -9.445 -23.270  0.00  0.00    -0.270 OA
ATOM      2  N   UNL     1      32.799 -11.104 -23.069  0.00  0.00    -0.293 N 
ATOM      3  C   UNL     1      32.393  -9.785 -23.306  0.00  0.00    +0.251 C 
ATOM      4  H   UNL     1      33.758 -11.318 -23.111  0.00  0.00    +0.150 HD
ENDROOT
BRANCH   2  11
ATOM      5  S   UNL     1      33.693 -13.789 -24.259  0.00  0.00    -0.118 S 
ATOM      6  O   UNL     1      32.277 -12.565 -20.271  0.00  0.00    -0.273 OA
ATOM      7  N   UNL     1      32.326 -14.086 -22.076  0.00  0.00    -0.260 N 
ATOM      8  C   UNL     1      32.086 -13.548 -23.418  0.00  0.00    +0.151 C 
ATOM      9  C   UNL     1      34.035 -15.318 -23.254  0.00  0.00    +0.068 C 
ATOM     10  CA  UNL     1      33.445 -14.982 -21.866  0.00  0.00    +0.184 C 
ATOM     11  CA  UNL     1      31.849 -12.182 -22.758  0.00  0.00    +0.178 C 
ATOM     12  C   UNL     1      32.133 -12.901 -21.425  0.00  0.00    +0.247 C 
ATOM     13  C   UNL     1      33.366 -16.507 -23.958  0.00  0.00    +0.013 C 
ATOM     14  C   UNL     1      35.547 -15.537 -23.178  0.00  0.00    +0.013 C 
BRANCH  10  16
ATOM     15  OXT UNL     1      31.771 -16.322 -20.759  0.00  0.00    -0.248 OA
ATOM     16  C   UNL     1      32.935 -16.152 -21.087  0.00  0.00    +0.333 C 
BRANCH  16  17
ATOM     17  O   UNL     1      33.946 -17.004 -20.787  0.00  0.00    -0.479 OA
ATOM     18  H   UNL     1      34.836 -16.731 -20.893  0.00  0.00    +0.295 HD
ENDBRANCH  16  17
ENDBRANCH  10  16
ENDBRANCH   2  11
BRANCH   3  21
ATOM     19  O   UNL     1      35.384  -7.975 -24.221  0.00  0.00    -0.358 OA
ATOM     20  N   UNL     1      34.641  -6.912 -23.719  0.00  0.00    -0.077 NA
ATOM     21  C   UNL     1      33.462  -8.814 -23.574  0.00  0.00    +0.107 A 
ATOM     22  C   UNL     1      33.481  -7.453 -23.334  0.00  0.00    +0.129 A 
ATOM     23  C   UNL     1      34.654  -9.116 -24.125  0.00  0.00    +0.159 A 
ATOM     24  C   UNL     1      35.299 -10.341 -24.617  0.00  0.00    +0.076 C 
BRANCH  22  27
ATOM     25 CL   UNL     1      32.978  -7.840 -20.351  0.00  0.00    -0.082 Cl
ATOM     26 CL   UNL     1      32.075  -5.534 -25.242  0.00  0.00    -0.082 Cl
ATOM     27  C   UNL     1      32.453  -6.628 -22.755  0.00  0.00    +0.042 C 
ATOM     28  C   UNL     1      32.152  -6.734 -21.395  0.00  0.00    +0.060 C 
ATOM     29  C   UNL     1      31.752  -5.718 -23.551  0.00  0.00    +0.060 C 
ATOM     30  C   UNL     1      31.156  -5.934 -20.835  0.00  0.00    +0.011 C 
ATOM     31  C   UNL     1      30.756  -4.920 -22.990  0.00  0.00    +0.011 C 
ATOM     32  C   UNL     1      30.458  -5.027 -21.632  0.00  0.00    +0.002 C 
ENDBRANCH  22  27
ENDBRANCH   3  21
TORSDOF 5
ENDMDL
MODEL 3
REMARK VINA RESULT:      -6.8      2.699      4.035
REMARK  Name = 18381
REMARK  5 active torsions:
REMARK  status: ('A' for Active; 'I' for Inactive)
REMARK    1  A    between atoms: N_2  and  CA_11
REMARK    2  A    between atoms: C_3  and  C_21
REMARK    3  A    between atoms: CA_10  and  C_16
REMARK    4  A    between atoms: C_16  and  O_17
REMARK    5  A    between atoms: C_22  and  C_27
REMARK                            x       y       z     vdW  Elec       q    Type
REMARK                         _______ _______ _______ _____ _____    ______ ____
ROOT
ATOM      1  O   UNL     1      34.885  -8.647 -23.540  0.00  0.00    -0.270 OA
ATOM      2  N   UNL     1      33.307  -9.975 -24.571  0.00  0.00    -0.293 N 
ATOM      3  C   UNL     1      33.706  -8.860 -23.823  0.00  0.00    +0.251 C 
ATOM      4  H   UNL     1      32.350 -10.094 -24.767  0.00  0.00    +0.150 HD
ENDROOT
BRANCH   2  11
ATOM      5  S   UNL     1      33.745 -12.252 -22.558  0.00  0.00    -0.118 S 
ATOM      6  O   UNL     1      32.889 -12.152 -26.878  0.00  0.00    -0.273 OA
ATOM      7  N   UNL     1      34.031 -13.039 -25.012  0.00  0.00    -0.260 N 
ATOM      8  C   UNL     1      34.694 -12.089 -24.114  0.00  0.00    +0.151 C 
ATOM      9  C   UNL     1      33.394 -14.046 -22.913  0.00  0.00    +0.068 C 
ATOM     10  CA  UNL     1      33.203 -14.083 -24.445  0.00  0.00    +0.184 C 
ATOM     11  CA  UNL     1      34.260 -10.974 -25.076  0.00  0.00    +0.178 C 
ATOM     12  C   UNL     1      33.608 -12.097 -25.906  0.00  0.00    +0.247 C 
ATOM     13  C   UNL     1      34.583 -14.870 -22.400  0.00  0.00    +0.013 C 
ATOM     14  C   UNL     1      32.116 -14.457 -22.181  0.00  0.00    +0.013 C 
BRANCH  10  16
ATOM     15  OXT UNL     1      33.895 -16.394 -24.522  0.00  0.00    -0.248 OA
ATOM     16  C   UNL     1      33.594 -15.366 -25.108  0.00  0.00    +0.333 C 
BRANCH  16  17
ATOM     17  O   UNL     1      33.574 -15.232 -26.457  0.00  0.00    -0.479 OA
ATOM     18  H   UNL     1      34.020 -15.855 -26.996  0.00  0.00    +0.295 HD
ENDBRANCH  16  17
ENDBRANCH  10  16
ENDBRANCH   2  11
BRANCH   3  21
ATOM     19  O   UNL     1      31.279  -6.214 -23.418  0.00  0.00    -0.358 OA
ATOM     20  N   UNL     1      30.957  -6.968 -22.295  0.00  0.00    -0.077 NA
ATOM     21  C   UNL     1      32.641  -7.935 -23.415  0.00  0.00    +0.107 A 
ATOM     22  C   UNL     1      31.800  -8.005 -22.322  0.00  0.00    +0.129 A 
ATOM     23  C   UNL     1      32.299  -6.814 -24.083  0.00  0.00    +0.159 A 
ATOM     24  C   UNL     1      32.764  -6.141 -25.303  0.00  0.00    +0.076 C 
BRANCH  22  27
ATOM     25 CL   UNL     1      30.441 -10.630 -23.071  0.00  0.00    -0.082 Cl
ATOM     26 CL   UNL     1      33.066  -7.240 -19.655  0.00  0.00    -0.082 Cl
ATOM     27  C   UNL     1      31.750  -9.006 -21.289  0.00  0.00    +0.042 C 
ATOM     28  C   UNL     1      31.148 -10.242 -21.540  0.00  0.00    +0.060 C 
ATOM     29  C   UNL     1      32.303  -8.748 -20.033  0.00  0.00    +0.060 C 
ATOM     30  C   UNL     1      31.100 -11.213 -20.539  0.00  0.00    +0.011 C 
ATOM     31  C   UNL     1      32.255  -9.719 -19.033  0.00  0.00    +0.011 C 
ATOM     32  C   UNL     1      31.653 -10.951 -19.286  0.00  0.00    +0.002 C 
ENDBRANCH  22  27
ENDBRANCH   3  21
TORSDOF 5
ENDMDL
MODEL 4
REMARK VINA RESULT:      -6.8     10.369     14.327
REMARK  Name = 18381
REMARK  5 active torsions:
REMARK  status: ('A' for Active; 'I' for Inactive)
REMARK    1  A    between atoms: N_2  and  CA_11
REMARK    2  A    between atoms: C_3  and  C_21
REMARK    3  A    between atoms: CA_10  and  C_16
REMARK    4  A    between atoms: C_16  and  O_17
REMARK    5  A    between atoms: C_22  and  C_27
REMARK                            x       y       z     vdW  Elec       q    Type
REMARK                         _______ _______ _______ _____ _____    ______ ____
ROOT
ATOM      1  O   UNL     1      36.473 -20.898 -17.723  0.00  0.00    -0.270 OA
ATOM      2  N   UNL     1      35.657 -22.509 -16.290  0.00  0.00    -0.293 N 
ATOM      3  C   UNL     1      35.619 -21.745 -17.463  0.00  0.00    +0.251 C 
ATOM      4  H   UNL     1      34.946 -23.172 -16.134  0.00  0.00    +0.150 HD
ENDROOT
BRANCH   2  11
ATOM      5  S   UNL     1      35.692 -24.866 -14.323  0.00  0.00    -0.118 S 
ATOM      6  O   UNL     1      38.820 -22.820 -16.655  0.00  0.00    -0.273 OA
ATOM      7  N   UNL     1      38.048 -23.838 -14.670  0.00  0.00    -0.260 N 
ATOM      8  C   UNL     1      36.757 -23.389 -14.141  0.00  0.00    +0.151 C 
ATOM      9  C   UNL     1      37.150 -25.996 -14.069  0.00  0.00    +0.068 C 
ATOM     10  CA  UNL     1      38.310 -25.259 -14.773  0.00  0.00    +0.184 C 
ATOM     11  CA  UNL     1      36.717 -22.363 -15.282  0.00  0.00    +0.178 C 
ATOM     12  C   UNL     1      38.074 -22.955 -15.712  0.00  0.00    +0.247 C 
ATOM     13  C   UNL     1      37.342 -26.188 -12.558  0.00  0.00    +0.013 C 
ATOM     14  C   UNL     1      36.860 -27.342 -14.736  0.00  0.00    +0.013 C 
BRANCH  10  16
ATOM     15  OXT UNL     1      40.271 -24.720 -13.472  0.00  0.00    -0.248 OA
ATOM     16  C   UNL     1      39.668 -25.500 -14.193  0.00  0.00    +0.333 C 
BRANCH  16  17
ATOM     17  O   UNL     1      40.145 -26.708 -14.581  0.00  0.00    -0.479 OA
ATOM     18  H   UNL     1      39.736 -27.493 -14.276  0.00  0.00    +0.295 HD
ENDBRANCH  16  17
ENDBRANCH  10  16
ENDBRANCH   2  11
BRANCH   3  21
ATOM     19  O   UNL     1      32.701 -22.929 -19.235  0.00  0.00    -0.358 OA
ATOM     20  N   UNL     1      33.131 -21.976 -20.152  0.00  0.00    -0.077 NA
ATOM     21  C   UNL     1      34.513 -22.027 -18.387  0.00  0.00    +0.107 A 
ATOM     22  C   UNL     1      34.231 -21.447 -19.610  0.00  0.00    +0.129 A 
ATOM     23  C   UNL     1      33.549 -22.945 -18.175  0.00  0.00    +0.159 A 
ATOM     24  C   UNL     1      33.234 -23.903 -17.106  0.00  0.00    +0.076 C 
BRANCH  22  27
ATOM     25 CL   UNL     1      37.203 -21.961 -20.062  0.00  0.00    -0.082 Cl
ATOM     26 CL   UNL     1      32.600 -19.007 -20.439  0.00  0.00    -0.082 Cl
ATOM     27  C   UNL     1      34.953 -20.411 -20.300  0.00  0.00    +0.042 C 
ATOM     28  C   UNL     1      36.319 -20.557 -20.554  0.00  0.00    +0.060 C 
ATOM     29  C   UNL     1      34.292 -19.254 -20.719  0.00  0.00    +0.060 C 
ATOM     30  C   UNL     1      37.018 -19.552 -21.223  0.00  0.00    +0.011 C 
ATOM     31  C   UNL     1      34.991 -18.250 -21.387  0.00  0.00    +0.011 C 
ATOM     32  C   UNL     1      36.355 -18.399 -21.639  0.00  0.00    +0.002 C 
ENDBRANCH  22  27
ENDBRANCH   3  21
TORSDOF 5
ENDMDL
MODEL 5
REMARK VINA RESULT:      -6.5      5.078     10.084
REMARK  Name = 18381
REMARK  5 active torsions:
REMARK  status: ('A' for Active; 'I' for Inactive)
REMARK    1  A    between atoms: N_2  and  CA_11
REMARK    2  A    between atoms: C_3  and  C_21
REMARK    3  A    between atoms: CA_10  and  C_16
REMARK    4  A    between atoms: C_16  and  O_17
REMARK    5  A    between atoms: C_22  and  C_27
REMARK                            x       y       z     vdW  Elec       q    Type
REMARK                         _______ _______ _______ _____ _____    ______ ____
ROOT
ATOM      1  O   UNL     1      35.729 -17.376 -20.301  0.00  0.00    -0.270 OA
ATOM      2  N   UNL     1      34.407 -16.103 -21.697  0.00  0.00    -0.293 N 
ATOM      3  C   UNL     1      35.117 -17.263 -21.363  0.00  0.00    +0.251 C 
ATOM      4  H   UNL     1      33.936 -16.070 -22.561  0.00  0.00    +0.150 HD
ENDROOT
BRANCH   2  11
ATOM      5  S   UNL     1      34.082 -13.491 -23.277  0.00  0.00    -0.118 S 
ATOM      6  O   UNL     1      32.014 -15.193 -19.778  0.00  0.00    -0.273 OA
ATOM      7  N   UNL     1      32.971 -13.371 -20.936  0.00  0.00    -0.260 N 
ATOM      8  C   UNL     1      34.327 -13.545 -21.464  0.00  0.00    +0.151 C 
ATOM      9  C   UNL     1      32.643 -12.324 -23.086  0.00  0.00    +0.068 C 
ATOM     10  CA  UNL     1      31.948 -12.810 -21.795  0.00  0.00    +0.184 C 
ATOM     11  CA  UNL     1      34.335 -14.934 -20.809  0.00  0.00    +0.178 C 
ATOM     12  C   UNL     1      32.908 -14.596 -20.334  0.00  0.00    +0.247 C 
ATOM     13  C   UNL     1      33.199 -10.895 -23.010  0.00  0.00    +0.013 C 
ATOM     14  C   UNL     1      31.723 -12.465 -24.300  0.00  0.00    +0.013 C 
BRANCH  10  16
ATOM     15  OXT UNL     1      31.669 -11.239 -19.983  0.00  0.00    -0.248 OA
ATOM     16  C   UNL     1      31.245 -11.750 -21.008  0.00  0.00    +0.333 C 
BRANCH  16  17
ATOM     17  O   UNL     1      30.062 -11.430 -21.588  0.00  0.00    -0.479 OA
ATOM     18  H   UNL     1      29.942 -10.585 -21.974  0.00  0.00    +0.295 HD
ENDBRANCH  16  17
ENDBRANCH  10  16
ENDBRANCH   2  11
BRANCH   3  21
ATOM     19  O   UNL     1      35.013 -19.420 -24.260  0.00  0.00    -0.358 OA
ATOM     20  N   UNL     1      34.996 -20.397 -23.271  0.00  0.00    -0.077 NA
ATOM     21  C   UNL     1      35.070 -18.359 -22.340  0.00  0.00    +0.107 A 
ATOM     22  C   UNL     1      35.031 -19.722 -22.118  0.00  0.00    +0.129 A 
ATOM     23  C   UNL     1      35.059 -18.194 -23.679  0.00  0.00    +0.159 A 
ATOM     24  C   UNL     1      35.084 -17.043 -24.591  0.00  0.00    +0.076 C 
BRANCH  22  27
ATOM     25 CL   UNL     1      32.292 -20.560 -21.071  0.00  0.00    -0.082 Cl
ATOM     26 CL   UNL     1      37.757 -20.194 -20.835  0.00  0.00    -0.082 Cl
ATOM     27  C   UNL     1      35.024 -20.427 -20.864  0.00  0.00    +0.042 C 
ATOM     28  C   UNL     1      33.816 -20.853 -20.305  0.00  0.00    +0.060 C 
ATOM     29  C   UNL     1      36.224 -20.690 -20.199  0.00  0.00    +0.060 C 
ATOM     30  C   UNL     1      33.810 -21.537 -19.089  0.00  0.00    +0.011 C 
ATOM     31  C   UNL     1      36.217 -21.374 -18.984  0.00  0.00    +0.011 C 
ATOM     32  C   UNL     1      35.010 -21.797 -18.429  0.00  0.00    +0.002 C 
ENDBRANCH  22  27
ENDBRANCH   3  21
TORSDOF 5
ENDMDL
MODEL 6
REMARK VINA RESULT:      -6.2      3.148      7.647
REMARK  Name = 18381
REMARK  5 active torsions:
REMARK  status: ('A' for Active; 'I' for Inactive)
REMARK    1  A    between atoms: N_2  and  CA_11
REMARK    2  A    between atoms: C_3  and  C_21
REMARK    3  A    between atoms: CA_10  and  C_16
REMARK    4  A    between atoms: C_16  and  O_17
REMARK    5  A    between atoms: C_22  and  C_27
REMARK                            x       y       z     vdW  Elec       q    Type
REMARK                         _______ _______ _______ _____ _____    ______ ____
ROOT
ATOM      1  O   UNL     1      35.357 -10.813 -24.020  0.00  0.00    -0.270 OA
ATOM      2  N   UNL     1      33.248 -10.416 -23.178  0.00  0.00    -0.293 N 
ATOM      3  C   UNL     1      34.173 -11.140 -23.940  0.00  0.00    +0.251 C 
ATOM      4  H   UNL     1      32.314 -10.726 -23.150  0.00  0.00    +0.150 HD
ENDROOT
BRANCH   2  11
ATOM      5  S   UNL     1      32.673  -7.847 -24.756  0.00  0.00    -0.118 S 
ATOM      6  O   UNL     1      31.786  -9.134 -20.637  0.00  0.00    -0.273 OA
ATOM      7  N   UNL     1      32.467  -7.496 -22.195  0.00  0.00    -0.260 N 
ATOM      8  C   UNL     1      33.528  -7.863 -23.138  0.00  0.00    +0.151 C 
ATOM      9  C   UNL     1      31.524  -6.499 -24.180  0.00  0.00    +0.068 C 
ATOM     10  CA  UNL     1      31.276  -6.842 -22.695  0.00  0.00    +0.184 C 
ATOM     11  CA  UNL     1      33.616  -9.214 -22.416  0.00  0.00    +0.178 C 
ATOM     12  C   UNL     1      32.489  -8.678 -21.511  0.00  0.00    +0.247 C 
ATOM     13  C   UNL     1      32.221  -5.151 -24.414  0.00  0.00    +0.013 C 
ATOM     14  C   UNL     1      30.229  -6.568 -24.992  0.00  0.00    +0.013 C 
BRANCH  10  16
ATOM     15  OXT UNL     1      29.986  -5.003 -21.812  0.00  0.00    -0.248 OA
ATOM     16  C   UNL     1      31.008  -5.671 -21.804  0.00  0.00    +0.333 C 
BRANCH  16  17
ATOM     17  O   UNL     1      32.062  -5.446 -20.981  0.00  0.00    -0.479 OA
ATOM     18  H   UNL     1      32.112  -4.649 -20.490  0.00  0.00    +0.295 HD
ENDBRANCH  16  17
ENDBRANCH  10  16
ENDBRANCH   2  11
BRANCH   3  21
ATOM     19  O   UNL     1      33.044 -13.704 -26.223  0.00  0.00    -0.358 OA
ATOM     20  N   UNL     1      32.822 -14.376 -25.026  0.00  0.00    -0.077 NA
ATOM     21  C   UNL     1      33.661 -12.337 -24.620  0.00  0.00    +0.107 A 
ATOM     22  C   UNL     1      33.206 -13.521 -24.073  0.00  0.00    +0.129 A 
ATOM     23  C   UNL     1      33.552 -12.473 -25.957  0.00  0.00    +0.159 A 
ATOM     24  C   UNL     1      33.847 -11.627 -27.122  0.00  0.00    +0.076 C 
BRANCH  22  27
ATOM     25 CL   UNL     1      35.123 -15.702 -23.139  0.00  0.00    -0.082 Cl
ATOM     26 CL   UNL     1      31.115 -12.029 -22.430  0.00  0.00    -0.082 Cl
ATOM     27  C   UNL     1      33.112 -13.892 -22.686  0.00  0.00    +0.042 C 
ATOM     28  C   UNL     1      33.950 -14.881 -22.166  0.00  0.00    +0.060 C 
ATOM     29  C   UNL     1      32.182 -13.264 -21.853  0.00  0.00    +0.060 C 
ATOM     30  C   UNL     1      33.859 -15.240 -20.820  0.00  0.00    +0.011 C 
ATOM     31  C   UNL     1      32.091 -13.624 -20.509  0.00  0.00    +0.011 C 
ATOM     32  C   UNL     1      32.930 -14.611 -19.992  0.00  0.00    +0.002 C 
ENDBRANCH  22  27
ENDBRANCH   3  21
TORSDOF 5
ENDMDL
MODEL 7
REMARK VINA RESULT:      -5.8     10.283     15.335
REMARK  Name = 18381
REMARK  5 active torsions:
REMARK  status: ('A' for Active; 'I' for Inactive)
REMARK    1  A    between atoms: N_2  and  CA_11
REMARK    2  A    between atoms: C_3  and  C_21
REMARK    3  A    between atoms: CA_10  and  C_16
REMARK    4  A    between atoms: C_16  and  O_17
REMARK    5  A    between atoms: C_22  and  C_27
REMARK                            x       y       z     vdW  Elec       q    Type
REMARK                         _______ _______ _______ _____ _____    ______ ____
ROOT
ATOM      1  O   UNL     1      37.267 -22.907 -16.437  0.00  0.00    -0.270 OA
ATOM      2  N   UNL     1      35.545 -22.654 -17.949  0.00  0.00    -0.293 N 
ATOM      3  C   UNL     1      36.069 -23.012 -16.701  0.00  0.00    +0.251 C 
ATOM      4  H   UNL     1      34.579 -22.760 -18.104  0.00  0.00    +0.150 HD
ENDROOT
BRANCH   2  11
ATOM      5  S   UNL     1      33.845 -21.603 -20.280  0.00  0.00    -0.118 S 
ATOM      6  O   UNL     1      37.249 -19.947 -18.026  0.00  0.00    -0.273 OA
ATOM      7  N   UNL     1      36.093 -20.331 -20.048  0.00  0.00    -0.260 N 
ATOM      8  C   UNL     1      35.672 -21.705 -20.334  0.00  0.00    +0.151 C 
ATOM      9  C   UNL     1      33.886 -19.846 -20.897  0.00  0.00    +0.068 C 
ATOM     10  CA  UNL     1      35.142 -19.252 -20.222  0.00  0.00    +0.184 C 
ATOM     11  CA  UNL     1      36.379 -22.124 -19.037  0.00  0.00    +0.178 C 
ATOM     12  C   UNL     1      36.737 -20.632 -18.882  0.00  0.00    +0.247 C 
ATOM     13  C   UNL     1      33.946 -19.885 -22.430  0.00  0.00    +0.013 C 
ATOM     14  C   UNL     1      32.615 -19.128 -20.439  0.00  0.00    +0.013 C 
BRANCH  10  16
ATOM     15  OXT UNL     1      36.691 -18.359 -21.843  0.00  0.00    -0.248 OA
ATOM     16  C   UNL     1      35.833 -18.174 -20.994  0.00  0.00    +0.333 C 
BRANCH  16  17
ATOM     17  O   UNL     1      35.380 -16.952 -20.619  0.00  0.00    -0.479 OA
ATOM     18  H   UNL     1      35.198 -16.301 -21.268  0.00  0.00    +0.295 HD
ENDBRANCH  16  17
ENDBRANCH  10  16
ENDBRANCH   2  11
BRANCH   3  21
ATOM     19  O   UNL     1      33.205 -23.869 -14.671  0.00  0.00    -0.358 OA
ATOM     20  N   UNL     1      34.192 -24.494 -13.916  0.00  0.00    -0.077 NA
ATOM     21  C   UNL     1      35.105 -23.498 -15.705  0.00  0.00    +0.107 A 
ATOM     22  C   UNL     1      35.332 -24.251 -14.569  0.00  0.00    +0.129 A 
ATOM     23  C   UNL     1      33.776 -23.273 -15.749  0.00  0.00    +0.159 A 
ATOM     24  C   UNL     1      32.865 -22.563 -16.657  0.00  0.00    +0.076 C 
BRANCH  22  27
ATOM     25 CL   UNL     1      36.401 -26.769 -15.917  0.00  0.00    -0.082 Cl
ATOM     26 CL   UNL     1      36.581 -22.673 -12.278  0.00  0.00    -0.082 Cl
ATOM     27  C   UNL     1      36.580 -24.757 -14.062  0.00  0.00    +0.042 C 
ATOM     28  C   UNL     1      37.149 -25.905 -14.617  0.00  0.00    +0.060 C 
ATOM     29  C   UNL     1      37.228 -24.102 -13.012  0.00  0.00    +0.060 C 
ATOM     30  C   UNL     1      38.359 -26.395 -14.125  0.00  0.00    +0.011 C 
ATOM     31  C   UNL     1      38.437 -24.592 -12.520  0.00  0.00    +0.011 C 
ATOM     32  C   UNL     1      39.003 -25.739 -13.077  0.00  0.00    +0.002 C 
ENDBRANCH  22  27
ENDBRANCH   3  21
TORSDOF 5
ENDMDL
MODEL 8
REMARK VINA RESULT:      -5.7      2.508      3.516
REMARK  Name = 18381
REMARK  5 active torsions:
REMARK  status: ('A' for Active; 'I' for Inactive)
REMARK    1  A    between atoms: N_2  and  CA_11
REMARK    2  A    between atoms: C_3  and  C_21
REMARK    3  A    between atoms: CA_10  and  C_16
REMARK    4  A    between atoms: C_16  and  O_17
REMARK    5  A    between atoms: C_22  and  C_27
REMARK                            x       y       z     vdW  Elec       q    Type
REMARK                         _______ _______ _______ _____ _____    ______ ____
ROOT
ATOM      1  O   UNL     1      30.764  -9.231 -22.737  0.00  0.00    -0.270 OA
ATOM      2  N   UNL     1      31.967 -10.701 -21.431  0.00  0.00    -0.293 N 
ATOM      3  C   UNL     1      31.550  -9.419 -21.809  0.00  0.00    +0.251 C 
ATOM      4  H   UNL     1      32.597 -10.791 -20.680  0.00  0.00    +0.150 HD
ENDROOT
BRANCH   2  11
ATOM      5  S   UNL     1      32.789 -10.747 -24.388  0.00  0.00    -0.118 S 
ATOM      6  O   UNL     1      33.045 -13.698 -21.127  0.00  0.00    -0.273 OA
ATOM      7  N   UNL     1      32.614 -13.129 -23.377  0.00  0.00    -0.260 N 
ATOM      8  C   UNL     1      31.703 -12.009 -23.627  0.00  0.00    +0.151 C 
ATOM      9  C   UNL     1      33.849 -12.069 -25.160  0.00  0.00    +0.068 C 
ATOM     10  CA  UNL     1      33.872 -13.187 -24.094  0.00  0.00    +0.184 C 
ATOM     11  CA  UNL     1      31.499 -11.919 -22.108  0.00  0.00    +0.178 C 
ATOM     12  C   UNL     1      32.483 -13.102 -22.018  0.00  0.00    +0.247 C 
ATOM     13  C   UNL     1      33.204 -12.475 -26.493  0.00  0.00    +0.013 C 
ATOM     14  C   UNL     1      35.249 -11.505 -25.405  0.00  0.00    +0.013 C 
BRANCH  10  16
ATOM     15  OXT UNL     1      33.350 -15.049 -25.538  0.00  0.00    -0.248 OA
ATOM     16  C   UNL     1      34.013 -14.577 -24.627  0.00  0.00    +0.333 C 
BRANCH  16  17
ATOM     17  O   UNL     1      34.980 -15.250 -23.957  0.00  0.00    -0.479 OA
ATOM     18  H   UNL     1      35.063 -16.178 -24.060  0.00  0.00    +0.295 HD
ENDBRANCH  16  17
ENDBRANCH  10  16
ENDBRANCH   2  11
BRANCH   3  21
ATOM     19  O   UNL     1      32.794  -7.135 -19.300  0.00  0.00    -0.358 OA
ATOM     20  N   UNL     1      32.890  -6.301 -20.410  0.00  0.00    -0.077 NA
ATOM     21  C   UNL     1      32.081  -8.302 -21.017  0.00  0.00    +0.107 A 
ATOM     22  C   UNL     1      32.451  -7.038 -21.434  0.00  0.00    +0.129 A 
ATOM     23  C   UNL     1      32.303  -8.340 -19.688  0.00  0.00    +0.159 A 
ATOM     24  C   UNL     1      32.139  -9.345 -18.628  0.00  0.00    +0.076 C 
BRANCH  22  27
ATOM     25 CL   UNL     1      34.772  -7.782 -23.267  0.00  0.00    -0.082 Cl
ATOM     26 CL   UNL     1      30.054  -5.262 -22.066  0.00  0.00    -0.082 Cl
ATOM     27  C   UNL     1      32.410  -6.482 -22.761  0.00  0.00    +0.042 C 
ATOM     28  C   UNL     1      33.429  -6.768 -23.673  0.00  0.00    +0.060 C 
ATOM     29  C   UNL     1      31.351  -5.655 -23.144  0.00  0.00    +0.060 C 
ATOM     30  C   UNL     1      33.388  -6.230 -24.960  0.00  0.00    +0.011 C 
ATOM     31  C   UNL     1      31.311  -5.117 -24.430  0.00  0.00    +0.011 C 
ATOM     32  C   UNL     1      32.330  -5.404 -25.338  0.00  0.00    +0.002 C 
ENDBRANCH  22  27
ENDBRANCH   3  21
TORSDOF 5
ENDMDL
MODEL 9
REMARK VINA RESULT:      -5.4      9.423     14.386
REMARK  Name = 18381
REMARK  5 active torsions:
REMARK  status: ('A' for Active; 'I' for Inactive)
REMARK    1  A    between atoms: N_2  and  CA_11
REMARK    2  A    between atoms: C_3  and  C_21
REMARK    3  A    between atoms: CA_10  and  C_16
REMARK    4  A    between atoms: C_16  and  O_17
REMARK    5  A    between atoms: C_22  and  C_27
REMARK                            x       y       z     vdW  Elec       q    Type
REMARK                         _______ _______ _______ _____ _____    ______ ____
ROOT
ATOM      1  O   UNL     1      34.010 -24.002 -18.932  0.00  0.00    -0.270 OA
ATOM      2  N   UNL     1      35.150 -22.071 -18.398  0.00  0.00    -0.293 N 
ATOM      3  C   UNL     1      34.317 -23.155 -18.094  0.00  0.00    +0.251 C 
ATOM      4  H   UNL     1      35.361 -21.424 -17.687  0.00  0.00    +0.150 HD
ENDROOT
BRANCH   2  11
ATOM      5  S   UNL     1      33.152 -20.713 -20.293  0.00  0.00    -0.118 S 
ATOM      6  O   UNL     1      37.382 -19.968 -19.310  0.00  0.00    -0.273 OA
ATOM      7  N   UNL     1      35.611 -20.120 -20.864  0.00  0.00    -0.260 N 
ATOM      8  C   UNL     1      34.788 -21.332 -20.832  0.00  0.00    +0.151 C 
ATOM      9  C   UNL     1      33.451 -19.078 -21.132  0.00  0.00    +0.068 C 
ATOM     10  CA  UNL     1      34.959 -18.827 -20.916  0.00  0.00    +0.184 C 
ATOM     11  CA  UNL     1      35.723 -21.861 -19.735  0.00  0.00    +0.178 C 
ATOM     12  C   UNL     1      36.478 -20.526 -19.890  0.00  0.00    +0.247 C 
ATOM     13  C   UNL     1      33.033 -19.218 -22.603  0.00  0.00    +0.013 C 
ATOM     14  C   UNL     1      32.604 -18.004 -20.447  0.00  0.00    +0.013 C 
BRANCH  10  16
ATOM     15  OXT UNL     1      36.341 -18.504 -22.869  0.00  0.00    -0.248 OA
ATOM     16  C   UNL     1      35.636 -18.034 -21.989  0.00  0.00    +0.333 C 
BRANCH  16  17
ATOM     17  O   UNL     1      35.364 -16.713 -21.851  0.00  0.00    -0.479 OA
ATOM     18  H   UNL     1      35.502 -16.290 -21.026  0.00  0.00    +0.295 HD
ENDBRANCH  16  17
ENDBRANCH  10  16
ENDBRANCH   2  11
BRANCH   3  21
ATOM     19  O   UNL     1      32.515 -23.194 -14.962  0.00  0.00    -0.358 OA
ATOM     20  N   UNL     1      33.773 -23.545 -14.485  0.00  0.00    -0.077 NA
ATOM     21  C   UNL     1      33.847 -23.246 -16.706  0.00  0.00    +0.107 A 
ATOM     22  C   UNL     1      34.558 -23.568 -15.566  0.00  0.00    +0.129 A 
ATOM     23  C   UNL     1      32.579 -23.018 -16.307  0.00  0.00    +0.159 A 
ATOM     24  C   UNL     1      31.325 -22.643 -16.973  0.00  0.00    +0.076 C 
BRANCH  22  27
ATOM     25 CL   UNL     1      36.523 -21.310 -16.150  0.00  0.00    -0.082 Cl
ATOM     26 CL   UNL     1      35.185 -26.438 -14.750  0.00  0.00    -0.082 Cl
ATOM     27  C   UNL     1      35.954 -23.897 -15.441  0.00  0.00    +0.042 C 
ATOM     28  C   UNL     1      36.929 -22.928 -15.688  0.00  0.00    +0.060 C 
ATOM     29  C   UNL     1      36.340 -25.189 -15.073  0.00  0.00    +0.060 C 
ATOM     30  C   UNL     1      38.281 -23.248 -15.566  0.00  0.00    +0.011 C 
ATOM     31  C   UNL     1      37.692 -25.508 -14.952  0.00  0.00    +0.011 C 
ATOM     32  C   UNL     1      38.663 -24.538 -15.199  0.00  0.00    +0.002 C 
ENDBRANCH  22  27
ENDBRANCH   3  21
TORSDOF 5
ENDMDL
