MODEL 1
REMARK VINA RESULT:      -4.3      0.000      0.000
REMARK  Name = 2033049
REMARK  5 active torsions:
REMARK  status: ('A' for Active; 'I' for Inactive)
REMARK    1  A    between atoms: CA_1  and  N_2
REMARK    2  A    between atoms: CA_1  and  CB_6
REMARK    3  A    between atoms: CA_1  and  C_10
REMARK    4  A    between atoms: CB_6  and  OG1_8
REMARK    5  A    between atoms: C_10  and  O_11
REMARK                            x       y       z     vdW  Elec       q    Type
REMARK                         _______ _______ _______ _____ _____    ______ ____
ROOT
ATOM      1  CA  THR A   1      38.546 -24.950 -14.669  0.00  0.00    -0.008 C 
ENDROOT
BRANCH   1   2
ATOM      2  N   THR A   1      38.557 -23.941 -15.731  0.00  0.00    +0.385 N 
ATOM      3  H1  THR A   1      37.769 -23.305 -15.603  0.00  0.00    -0.089 HD
ATOM      4  H2  THR A   1      38.478 -24.401 -16.638  0.00  0.00    -0.089 HD
ATOM      5  H3  THR A   1      39.429 -23.414 -15.691  0.00  0.00    -0.089 HD
ENDBRANCH   1   2
BRANCH   1   6
ATOM      6  CB  THR A   1      37.328 -25.891 -14.803  0.00  0.00    +0.093 C 
ATOM      7  CG2 THR A   1      36.006 -25.144 -14.948  0.00  0.00    +0.030 C 
BRANCH   6   8
ATOM      8  OG1 THR A   1      37.502 -26.756 -15.923  0.00  0.00    -0.386 OA
ATOM      9  HG1 THR A   1      36.635 -27.064 -16.231  0.00  0.00    +0.210 HD
ENDBRANCH   6   8
ENDBRANCH   1   6
BRANCH   1  10
ATOM     10  C   THR A   1      39.879 -25.712 -14.688  0.00  0.00    +0.118 C 
BRANCH  10  11
ATOM     11  O   THR A   1      40.312 -25.888 -16.031  0.00  0.00    -0.384 OA
ATOM     12  H   THR A   1      39.693 -26.470 -16.496  0.00  0.00    +0.210 HD
ENDBRANCH  10  11
ENDBRANCH   1  10
TORSDOF 5
ENDMDL
MODEL 2
REMARK VINA RESULT:      -4.2      1.938      2.115
REMARK  Name = 2033049
REMARK  5 active torsions:
REMARK  status: ('A' for Active; 'I' for Inactive)
REMARK    1  A    between atoms: CA_1  and  N_2
REMARK    2  A    between atoms: CA_1  and  CB_6
REMARK    3  A    between atoms: CA_1  and  C_10
REMARK    4  A    between atoms: CB_6  and  OG1_8
REMARK    5  A    between atoms: C_10  and  O_11
REMARK                            x       y       z     vdW  Elec       q    Type
REMARK                         _______ _______ _______ _____ _____    ______ ____
ROOT
ATOM      1  CA  THR A   1      38.541 -25.716 -14.629  0.00  0.00    -0.008 C 
ENDROOT
BRANCH   1   2
ATOM      2  N   THR A   1      38.227 -26.109 -13.252  0.00  0.00    +0.385 N 
ATOM      3  H1  THR A   1      37.865 -25.303 -12.743  0.00  0.00    -0.089 HD
ATOM      4  H2  THR A   1      39.072 -26.449 -12.794  0.00  0.00    -0.089 HD
ATOM      5  H3  THR A   1      37.524 -26.848 -13.262  0.00  0.00    -0.089 HD
ENDBRANCH   1   2
BRANCH   1   6
ATOM      6  CB  THR A   1      37.839 -24.392 -15.006  0.00  0.00    +0.093 C 
ATOM      7  CG2 THR A   1      37.318 -23.623 -13.796  0.00  0.00    +0.030 C 
BRANCH   6   8
ATOM      8  OG1 THR A   1      38.733 -23.559 -15.740  0.00  0.00    -0.386 OA
ATOM      9  HG1 THR A   1      39.221 -24.096 -16.383  0.00  0.00    +0.210 HD
ENDBRANCH   6   8
ENDBRANCH   1   6
BRANCH   1  10
ATOM     10  C   THR A   1      40.066 -25.638 -14.792  0.00  0.00    +0.118 C 
BRANCH  10  11
ATOM     11  O   THR A   1      40.423 -25.966 -16.128  0.00  0.00    -0.384 OA
ATOM     12  H   THR A   1      40.823 -25.193 -16.555  0.00  0.00    +0.210 HD
ENDBRANCH  10  11
ENDBRANCH   1  10
TORSDOF 5
ENDMDL
MODEL 3
REMARK VINA RESULT:      -4.1      1.950      2.831
REMARK  Name = 2033049
REMARK  5 active torsions:
REMARK  status: ('A' for Active; 'I' for Inactive)
REMARK    1  A    between atoms: CA_1  and  N_2
REMARK    2  A    between atoms: CA_1  and  CB_6
REMARK    3  A    between atoms: CA_1  and  C_10
REMARK    4  A    between atoms: CB_6  and  OG1_8
REMARK    5  A    between atoms: C_10  and  O_11
REMARK                            x       y       z     vdW  Elec       q    Type
REMARK                         _______ _______ _______ _____ _____    ______ ____
ROOT
ATOM      1  CA  THR A   1      38.096 -26.150 -14.399  0.00  0.00    -0.008 C 
ENDROOT
BRANCH   1   2
ATOM      2  N   THR A   1      38.664 -25.009 -15.123  0.00  0.00    +0.385 N 
ATOM      3  H1  THR A   1      39.365 -25.342 -15.784  0.00  0.00    -0.089 HD
ATOM      4  H2  THR A   1      39.098 -24.367 -14.460  0.00  0.00    -0.089 HD
ATOM      5  H3  THR A   1      37.923 -24.525 -15.630  0.00  0.00    -0.089 HD
ENDBRANCH   1   2
BRANCH   1   6
ATOM      6  CB  THR A   1      38.055 -25.882 -12.878  0.00  0.00    +0.093 C 
ATOM      7  CG2 THR A   1      38.074 -24.397 -12.529  0.00  0.00    +0.030 C 
BRANCH   6   8
ATOM      8  OG1 THR A   1      36.893 -26.481 -12.310  0.00  0.00    -0.386 OA
ATOM      9  HG1 THR A   1      36.817 -26.220 -11.379  0.00  0.00    +0.210 HD
ENDBRANCH   6   8
ENDBRANCH   1   6
BRANCH   1  10
ATOM     10  C   THR A   1      36.710 -26.469 -14.976  0.00  0.00    +0.118 C 
BRANCH  10  11
ATOM     11  O   THR A   1      36.851 -27.206 -16.185  0.00  0.00    -0.384 OA
ATOM     12  H   THR A   1      36.693 -28.146 -16.010  0.00  0.00    +0.210 HD
ENDBRANCH  10  11
ENDBRANCH   1  10
TORSDOF 5
ENDMDL
MODEL 4
REMARK VINA RESULT:      -4.1     11.773     12.247
REMARK  Name = 2033049
REMARK  5 active torsions:
REMARK  status: ('A' for Active; 'I' for Inactive)
REMARK    1  A    between atoms: CA_1  and  N_2
REMARK    2  A    between atoms: CA_1  and  CB_6
REMARK    3  A    between atoms: CA_1  and  C_10
REMARK    4  A    between atoms: CB_6  and  OG1_8
REMARK    5  A    between atoms: C_10  and  O_11
REMARK                            x       y       z     vdW  Elec       q    Type
REMARK                         _______ _______ _______ _____ _____    ______ ____
ROOT
ATOM      1  CA  THR A   1      41.318 -14.519 -14.985  0.00  0.00    -0.008 C 
ENDROOT
BRANCH   1   2
ATOM      2  N   THR A   1      40.448 -15.651 -15.315  0.00  0.00    +0.385 N 
ATOM      3  H1  THR A   1      39.634 -15.645 -14.700  0.00  0.00    -0.089 HD
ATOM      4  H2  THR A   1      40.962 -16.523 -15.190  0.00  0.00    -0.089 HD
ATOM      5  H3  THR A   1      40.141 -15.573 -16.284  0.00  0.00    -0.089 HD
ENDBRANCH   1   2
BRANCH   1   6
ATOM      6  CB  THR A   1      42.011 -13.959 -16.248  0.00  0.00    +0.093 C 
ATOM      7  CG2 THR A   1      41.244 -14.254 -17.533  0.00  0.00    +0.030 C 
BRANCH   6   8
ATOM      8  OG1 THR A   1      42.188 -12.550 -16.122  0.00  0.00    -0.386 OA
ATOM      9  HG1 THR A   1      42.925 -12.370 -15.517  0.00  0.00    +0.210 HD
ENDBRANCH   6   8
ENDBRANCH   1   6
BRANCH   1  10
ATOM     10  C   THR A   1      40.495 -13.454 -14.247  0.00  0.00    +0.118 C 
BRANCH  10  11
ATOM     11  O   THR A   1      40.927 -13.364 -12.895  0.00  0.00    -0.384 OA
ATOM     12  H   THR A   1      41.451 -12.556 -12.777  0.00  0.00    +0.210 HD
ENDBRANCH  10  11
ENDBRANCH   1  10
TORSDOF 5
ENDMDL
MODEL 5
REMARK VINA RESULT:      -4.1      3.972      4.608
REMARK  Name = 2033049
REMARK  5 active torsions:
REMARK  status: ('A' for Active; 'I' for Inactive)
REMARK    1  A    between atoms: CA_1  and  N_2
REMARK    2  A    between atoms: CA_1  and  CB_6
REMARK    3  A    between atoms: CA_1  and  C_10
REMARK    4  A    between atoms: CB_6  and  OG1_8
REMARK    5  A    between atoms: C_10  and  O_11
REMARK                            x       y       z     vdW  Elec       q    Type
REMARK                         _______ _______ _______ _____ _____    ______ ____
ROOT
ATOM      1  CA  THR A   1      36.820 -24.119 -12.208  0.00  0.00    -0.008 C 
ENDROOT
BRANCH   1   2
ATOM      2  N   THR A   1      37.983 -23.501 -11.565  0.00  0.00    +0.385 N 
ATOM      3  H1  THR A   1      38.181 -23.983 -10.688  0.00  0.00    -0.089 HD
ATOM      4  H2  THR A   1      37.785 -22.519 -11.376  0.00  0.00    -0.089 HD
ATOM      5  H3  THR A   1      38.791 -23.574 -12.182  0.00  0.00    -0.089 HD
ENDBRANCH   1   2
BRANCH   1   6
ATOM      6  CB  THR A   1      37.179 -25.496 -12.809  0.00  0.00    +0.093 C 
ATOM      7  CG2 THR A   1      38.655 -25.625 -13.175  0.00  0.00    +0.030 C 
BRANCH   6   8
ATOM      8  OG1 THR A   1      36.832 -26.533 -11.894  0.00  0.00    -0.386 OA
ATOM      9  HG1 THR A   1      36.879 -27.390 -12.344  0.00  0.00    +0.210 HD
ENDBRANCH   6   8
ENDBRANCH   1   6
BRANCH   1  10
ATOM     10  C   THR A   1      35.672 -24.205 -11.193  0.00  0.00    +0.118 C 
BRANCH  10  11
ATOM     11  O   THR A   1      36.200 -24.230  -9.872  0.00  0.00    -0.384 OA
ATOM     12  H   THR A   1      35.832 -23.492  -9.363  0.00  0.00    +0.210 HD
ENDBRANCH  10  11
ENDBRANCH   1  10
TORSDOF 5
ENDMDL
MODEL 6
REMARK VINA RESULT:      -3.9     10.607     11.171
REMARK  Name = 2033049
REMARK  5 active torsions:
REMARK  status: ('A' for Active; 'I' for Inactive)
REMARK    1  A    between atoms: CA_1  and  N_2
REMARK    2  A    between atoms: CA_1  and  CB_6
REMARK    3  A    between atoms: CA_1  and  C_10
REMARK    4  A    between atoms: CB_6  and  OG1_8
REMARK    5  A    between atoms: C_10  and  O_11
REMARK                            x       y       z     vdW  Elec       q    Type
REMARK                         _______ _______ _______ _____ _____    ______ ____
ROOT
ATOM      1  CA  THR A   1      41.276 -14.720 -16.927  0.00  0.00    -0.008 C 
ENDROOT
BRANCH   1   2
ATOM      2  N   THR A   1      42.079 -13.742 -17.667  0.00  0.00    +0.385 N 
ATOM      3  H1  THR A   1      42.173 -12.891 -17.112  0.00  0.00    -0.089 HD
ATOM      4  H2  THR A   1      41.619 -13.523 -18.550  0.00  0.00    -0.089 HD
ATOM      5  H3  THR A   1      43.003 -14.131 -17.851  0.00  0.00    -0.089 HD
ENDBRANCH   1   2
BRANCH   1   6
ATOM      6  CB  THR A   1      41.861 -16.143 -17.066  0.00  0.00    +0.093 C 
ATOM      7  CG2 THR A   1      42.555 -16.378 -18.404  0.00  0.00    +0.030 C 
BRANCH   6   8
ATOM      8  OG1 THR A   1      42.784 -16.396 -16.009  0.00  0.00    -0.386 OA
ATOM      9  HG1 THR A   1      43.620 -15.941 -16.195  0.00  0.00    +0.210 HD
ENDBRANCH   6   8
ENDBRANCH   1   6
BRANCH   1  10
ATOM     10  C   THR A   1      41.166 -14.272 -15.463  0.00  0.00    +0.118 C 
BRANCH  10  11
ATOM     11  O   THR A   1      40.408 -15.223 -14.725  0.00  0.00    -0.384 OA
ATOM     12  H   THR A   1      40.308 -14.916 -13.811  0.00  0.00    +0.210 HD
ENDBRANCH  10  11
ENDBRANCH   1  10
TORSDOF 5
ENDMDL
MODEL 7
REMARK VINA RESULT:      -3.9      1.550      2.692
REMARK  Name = 2033049
REMARK  5 active torsions:
REMARK  status: ('A' for Active; 'I' for Inactive)
REMARK    1  A    between atoms: CA_1  and  N_2
REMARK    2  A    between atoms: CA_1  and  CB_6
REMARK    3  A    between atoms: CA_1  and  C_10
REMARK    4  A    between atoms: CB_6  and  OG1_8
REMARK    5  A    between atoms: C_10  and  O_11
REMARK                            x       y       z     vdW  Elec       q    Type
REMARK                         _______ _______ _______ _____ _____    ______ ____
ROOT
ATOM      1  CA  THR A   1      37.375 -25.242 -15.051  0.00  0.00    -0.008 C 
ENDROOT
BRANCH   1   2
ATOM      2  N   THR A   1      36.616 -24.096 -14.542  0.00  0.00    +0.385 N 
ATOM      3  H1  THR A   1      36.165 -23.615 -15.321  0.00  0.00    -0.089 HD
ATOM      4  H2  THR A   1      37.247 -23.453 -14.065  0.00  0.00    -0.089 HD
ATOM      5  H3  THR A   1      35.905 -24.423 -13.889  0.00  0.00    -0.089 HD
ENDBRANCH   1   2
BRANCH   1   6
ATOM      6  CB  THR A   1      38.593 -25.549 -14.151  0.00  0.00    +0.093 C 
ATOM      7  CG2 THR A   1      38.222 -25.740 -12.684  0.00  0.00    +0.030 C 
BRANCH   6   8
ATOM      8  OG1 THR A   1      39.263 -26.716 -14.621  0.00  0.00    -0.386 OA
ATOM      9  HG1 THR A   1      40.184 -26.704 -14.317  0.00  0.00    +0.210 HD
ENDBRANCH   6   8
ENDBRANCH   1   6
BRANCH   1  10
ATOM     10  C   THR A   1      36.432 -26.445 -15.191  0.00  0.00    +0.118 C 
BRANCH  10  11
ATOM     11  O   THR A   1      36.856 -27.264 -16.274  0.00  0.00    -0.384 OA
ATOM     12  H   THR A   1      37.521 -26.789 -16.797  0.00  0.00    +0.210 HD
ENDBRANCH  10  11
ENDBRANCH   1  10
TORSDOF 5
ENDMDL
MODEL 8
REMARK VINA RESULT:      -3.9      2.795      3.517
REMARK  Name = 2033049
REMARK  5 active torsions:
REMARK  status: ('A' for Active; 'I' for Inactive)
REMARK    1  A    between atoms: CA_1  and  N_2
REMARK    2  A    between atoms: CA_1  and  CB_6
REMARK    3  A    between atoms: CA_1  and  C_10
REMARK    4  A    between atoms: CB_6  and  OG1_8
REMARK    5  A    between atoms: C_10  and  O_11
REMARK                            x       y       z     vdW  Elec       q    Type
REMARK                         _______ _______ _______ _____ _____    ______ ____
ROOT
ATOM      1  CA  THR A   1      38.270 -25.715 -13.045  0.00  0.00    -0.008 C 
ENDROOT
BRANCH   1   2
ATOM      2  N   THR A   1      36.941 -26.330 -13.102  0.00  0.00    +0.385 N 
ATOM      3  H1  THR A   1      36.367 -25.966 -12.341  0.00  0.00    -0.089 HD
ATOM      4  H2  THR A   1      37.029 -27.341 -13.008  0.00  0.00    -0.089 HD
ATOM      5  H3  THR A   1      36.502 -26.107 -13.995  0.00  0.00    -0.089 HD
ENDBRANCH   1   2
BRANCH   1   6
ATOM      6  CB  THR A   1      38.876 -25.560 -14.458  0.00  0.00    +0.093 C 
ATOM      7  CG2 THR A   1      40.370 -25.868 -14.507  0.00  0.00    +0.030 C 
BRANCH   6   8
ATOM      8  OG1 THR A   1      38.193 -26.410 -15.376  0.00  0.00    -0.386 OA
ATOM      9  HG1 THR A   1      38.376 -27.336 -15.157  0.00  0.00    +0.210 HD
ENDBRANCH   6   8
ENDBRANCH   1   6
BRANCH   1  10
ATOM     10  C   THR A   1      38.171 -24.376 -12.300  0.00  0.00    +0.118 C 
BRANCH  10  11
ATOM     11  O   THR A   1      37.479 -24.560 -11.071  0.00  0.00    -0.384 OA
ATOM     12  H   THR A   1      37.730 -23.858 -10.451  0.00  0.00    +0.210 HD
ENDBRANCH  10  11
ENDBRANCH   1  10
TORSDOF 5
ENDMDL
MODEL 9
REMARK VINA RESULT:      -3.8      2.125      3.144
REMARK  Name = 2033049
REMARK  5 active torsions:
REMARK  status: ('A' for Active; 'I' for Inactive)
REMARK    1  A    between atoms: CA_1  and  N_2
REMARK    2  A    between atoms: CA_1  and  CB_6
REMARK    3  A    between atoms: CA_1  and  C_10
REMARK    4  A    between atoms: CB_6  and  OG1_8
REMARK    5  A    between atoms: C_10  and  O_11
REMARK                            x       y       z     vdW  Elec       q    Type
REMARK                         _______ _______ _______ _____ _____    ______ ____
ROOT
ATOM      1  CA  THR A   1      36.422 -25.434 -14.501  0.00  0.00    -0.008 C 
ENDROOT
BRANCH   1   2
ATOM      2  N   THR A   1      36.053 -26.701 -15.139  0.00  0.00    +0.385 N 
ATOM      3  H1  THR A   1      35.051 -26.857 -15.029  0.00  0.00    -0.089 HD
ATOM      4  H2  THR A   1      36.566 -27.465 -14.700  0.00  0.00    -0.089 HD
ATOM      5  H3  THR A   1      36.283 -26.661 -16.131  0.00  0.00    -0.089 HD
ENDBRANCH   1   2
BRANCH   1   6
ATOM      6  CB  THR A   1      37.956 -25.285 -14.399  0.00  0.00    +0.093 C 
ATOM      7  CG2 THR A   1      38.512 -25.707 -13.042  0.00  0.00    +0.030 C 
BRANCH   6   8
ATOM      8  OG1 THR A   1      38.589 -26.050 -15.422  0.00  0.00    -0.386 OA
ATOM      9  HG1 THR A   1      38.976 -25.453 -16.080  0.00  0.00    +0.210 HD
ENDBRANCH   6   8
ENDBRANCH   1   6
BRANCH   1  10
ATOM     10  C   THR A   1      35.770 -24.277 -15.271  0.00  0.00    +0.118 C 
BRANCH  10  11
ATOM     11  O   THR A   1      36.741 -23.640 -16.093  0.00  0.00    -0.384 OA
ATOM     12  H   THR A   1      36.669 -23.979 -16.999  0.00  0.00    +0.210 HD
ENDBRANCH  10  11
ENDBRANCH   1  10
TORSDOF 5
ENDMDL
