MODEL 1
REMARK VINA RESULT:     -10.9      0.000      0.000
REMARK  Name = 6918446
REMARK  10 active torsions:
REMARK  status: ('A' for Active; 'I' for Inactive)
REMARK    1  A    between atoms: N_1  and  C_4
REMARK    2  A    between atoms: N_1  and  C_18
REMARK    3  A    between atoms: C_4  and  C_7
REMARK    4  A    between atoms: C_7  and  C_8
REMARK    5  A    between atoms: C_18  and  C_19
REMARK    6  A    between atoms: C_19  and  O_20
REMARK    7  A    between atoms: C_19  and  C_22
REMARK    8  A    between atoms: C_22  and  O_23
REMARK    9  A    between atoms: O_23  and  C_25
REMARK   10  A    between atoms: C_26  and  C_32
REMARK                            x       y       z     vdW  Elec       q    Type
REMARK                         _______ _______ _______ _____ _____    ______ ____
ROOT
ATOM      1  N   UNL     1      34.481 -14.206 -22.732  0.00  0.00    +0.388 N 
ATOM      2  H   UNL     1      35.268 -14.450 -23.333  0.00  0.00    -0.084 HD
ATOM      3  H   UNL     1      34.748 -13.458 -22.093  0.00  0.00    -0.084 HD
ENDROOT
BRANCH   1   4
ATOM      4  C   UNL     1      34.086 -15.389 -21.946  0.00  0.00    -0.042 C 
ATOM      5  C   UNL     1      34.808 -15.295 -20.595  0.00  0.00    -0.021 C 
ATOM      6  C   UNL     1      32.569 -15.305 -21.732  0.00  0.00    -0.021 C 
BRANCH   4   7
ATOM      7  C   UNL     1      34.495 -16.669 -22.741  0.00  0.00    +0.007 C 
BRANCH   7   8
ATOM      8  C   UNL     1      34.853 -17.876 -21.942  0.00  0.00    -0.024 C 
ATOM      9  C   UNL     1      33.847 -18.675 -21.397  0.00  0.00    -0.004 C 
ATOM     10  C   UNL     1      36.190 -18.206 -21.741  0.00  0.00    -0.004 C 
ATOM     11  C   UNL     1      34.168 -19.816 -20.642  0.00  0.00    -0.000 C 
ATOM     12  C   UNL     1      35.528 -20.150 -20.438  0.00  0.00    -0.000 C 
ATOM     13  C   UNL     1      36.527 -19.334 -20.994  0.00  0.00    -0.000 C 
ATOM     14  C   UNL     1      33.169 -20.630 -20.086  0.00  0.00    -0.000 C 
ATOM     15  C   UNL     1      35.848 -21.290 -19.683  0.00  0.00    -0.000 C 
ATOM     16  C   UNL     1      33.506 -21.760 -19.339  0.00  0.00    -0.000 C 
ATOM     17  C   UNL     1      34.843 -22.089 -19.138  0.00  0.00    -0.000 C 
ENDBRANCH   7   8
ENDBRANCH   4   7
ENDBRANCH   1   4
BRANCH   1  18
ATOM     18  C   UNL     1      33.373 -13.754 -23.552  0.00  0.00    -0.048 C 
BRANCH  18  19
ATOM     19  C   UNL     1      33.837 -13.263 -24.925  0.00  0.00    +0.133 C 
BRANCH  19  20
ATOM     20  O   UNL     1      32.938 -13.777 -25.912  0.00  0.00    -0.383 OA
ATOM     21  H   UNL     1      32.292 -14.363 -25.485  0.00  0.00    +0.210 HD
ENDBRANCH  19  20
BRANCH  19  22
ATOM     22  C   UNL     1      33.867 -11.740 -25.044  0.00  0.00    +0.232 C 
BRANCH  22  23
ATOM     23  O   UNL     1      33.874 -11.176 -23.736  0.00  0.00    -0.472 OA
BRANCH  23  25
ATOM     24 CL   UNL     1      31.205  -7.035 -22.255  0.00  0.00    -0.081 Cl
ATOM     25  C   UNL     1      33.756  -9.815 -23.652  0.00  0.00    +0.149 C 
ATOM     26  C   UNL     1      32.648  -9.223 -23.052  0.00  0.00    +0.113 C 
ATOM     27  C   UNL     1      34.774  -9.028 -24.183  0.00  0.00    +0.038 C 
ATOM     28  C   UNL     1      32.556  -7.832 -22.984  0.00  0.00    +0.070 C 
ATOM     29  C   UNL     1      34.683  -7.637 -24.115  0.00  0.00    +0.004 C 
ATOM     30  C   UNL     1      33.574  -7.039 -23.515  0.00  0.00    +0.012 C 
BRANCH  26  32
ATOM     31  N   UNL     1      30.777 -10.729 -22.080  0.00  0.00    -0.191 NA
ATOM     32  C   UNL     1      31.612 -10.057 -22.514  0.00  0.00    +0.104 C 
ENDBRANCH  26  32
ENDBRANCH  23  25
ENDBRANCH  22  23
ENDBRANCH  19  22
ENDBRANCH  18  19
ENDBRANCH   1  18
TORSDOF 10
ENDMDL
MODEL 2
REMARK VINA RESULT:     -10.6      1.447      2.300
REMARK  Name = 6918446
REMARK  10 active torsions:
REMARK  status: ('A' for Active; 'I' for Inactive)
REMARK    1  A    between atoms: N_1  and  C_4
REMARK    2  A    between atoms: N_1  and  C_18
REMARK    3  A    between atoms: C_4  and  C_7
REMARK    4  A    between atoms: C_7  and  C_8
REMARK    5  A    between atoms: C_18  and  C_19
REMARK    6  A    between atoms: C_19  and  O_20
REMARK    7  A    between atoms: C_19  and  C_22
REMARK    8  A    between atoms: C_22  and  O_23
REMARK    9  A    between atoms: O_23  and  C_25
REMARK   10  A    between atoms: C_26  and  C_32
REMARK                            x       y       z     vdW  Elec       q    Type
REMARK                         _______ _______ _______ _____ _____    ______ ____
ROOT
ATOM      1  N   UNL     1      34.309 -14.403 -22.348  0.00  0.00    +0.388 N 
ATOM      2  H   UNL     1      35.271 -14.109 -22.180  0.00  0.00    -0.084 HD
ATOM      3  H   UNL     1      33.664 -13.669 -22.057  0.00  0.00    -0.084 HD
ENDROOT
BRANCH   1   4
ATOM      4  C   UNL     1      34.031 -15.622 -21.567  0.00  0.00    -0.042 C 
ATOM      5  C   UNL     1      34.806 -15.500 -20.248  0.00  0.00    -0.021 C 
ATOM      6  C   UNL     1      32.522 -15.642 -21.282  0.00  0.00    -0.021 C 
BRANCH   4   7
ATOM      7  C   UNL     1      34.485 -16.858 -22.402  0.00  0.00    +0.007 C 
BRANCH   7   8
ATOM      8  C   UNL     1      34.836 -18.094 -21.645  0.00  0.00    -0.024 C 
ATOM      9  C   UNL     1      33.826 -18.897 -21.115  0.00  0.00    -0.004 C 
ATOM     10  C   UNL     1      36.170 -18.447 -21.469  0.00  0.00    -0.004 C 
ATOM     11  C   UNL     1      34.140 -20.065 -20.400  0.00  0.00    -0.000 C 
ATOM     12  C   UNL     1      35.497 -20.423 -20.221  0.00  0.00    -0.000 C 
ATOM     13  C   UNL     1      36.500 -19.602 -20.762  0.00  0.00    -0.000 C 
ATOM     14  C   UNL     1      33.136 -20.884 -19.858  0.00  0.00    -0.000 C 
ATOM     15  C   UNL     1      35.810 -21.590 -19.505  0.00  0.00    -0.000 C 
ATOM     16  C   UNL     1      33.466 -22.041 -19.151  0.00  0.00    -0.000 C 
ATOM     17  C   UNL     1      34.801 -22.393 -18.974  0.00  0.00    -0.000 C 
ENDBRANCH   7   8
ENDBRANCH   4   7
ENDBRANCH   1   4
BRANCH   1  18
ATOM     18  C   UNL     1      34.126 -14.660 -23.763  0.00  0.00    -0.048 C 
BRANCH  18  19
ATOM     19  C   UNL     1      33.278 -13.580 -24.439  0.00  0.00    +0.133 C 
BRANCH  19  20
ATOM     20  O   UNL     1      32.580 -14.179 -25.534  0.00  0.00    -0.383 OA
ATOM     21  H   UNL     1      33.153 -14.187 -26.317  0.00  0.00    +0.210 HD
ENDBRANCH  19  20
BRANCH  19  22
ATOM     22  C   UNL     1      32.254 -12.940 -23.502  0.00  0.00    +0.232 C 
BRANCH  22  23
ATOM     23  O   UNL     1      32.643 -11.595 -23.245  0.00  0.00    -0.472 OA
BRANCH  23  25
ATOM     24 CL   UNL     1      32.096  -7.501 -20.178  0.00  0.00    -0.081 Cl
ATOM     25  C   UNL     1      32.257 -11.061 -22.045  0.00  0.00    +0.149 C 
ATOM     26  C   UNL     1      32.374  -9.697 -21.791  0.00  0.00    +0.113 C 
ATOM     27  C   UNL     1      31.742 -11.916 -21.075  0.00  0.00    +0.038 C 
ATOM     28  C   UNL     1      31.974  -9.184 -20.557  0.00  0.00    +0.070 C 
ATOM     29  C   UNL     1      31.342 -11.403 -19.840  0.00  0.00    +0.004 C 
ATOM     30  C   UNL     1      31.457 -10.037 -19.582  0.00  0.00    +0.012 C 
BRANCH  26  32
ATOM     31  N   UNL     1      33.342  -8.146 -23.628  0.00  0.00    -0.191 NA
ATOM     32  C   UNL     1      32.910  -8.838 -22.808  0.00  0.00    +0.104 C 
ENDBRANCH  26  32
ENDBRANCH  23  25
ENDBRANCH  22  23
ENDBRANCH  19  22
ENDBRANCH  18  19
ENDBRANCH   1  18
TORSDOF 10
ENDMDL
MODEL 3
REMARK VINA RESULT:     -10.3      1.539      2.159
REMARK  Name = 6918446
REMARK  10 active torsions:
REMARK  status: ('A' for Active; 'I' for Inactive)
REMARK    1  A    between atoms: N_1  and  C_4
REMARK    2  A    between atoms: N_1  and  C_18
REMARK    3  A    between atoms: C_4  and  C_7
REMARK    4  A    between atoms: C_7  and  C_8
REMARK    5  A    between atoms: C_18  and  C_19
REMARK    6  A    between atoms: C_19  and  O_20
REMARK    7  A    between atoms: C_19  and  C_22
REMARK    8  A    between atoms: C_22  and  O_23
REMARK    9  A    between atoms: O_23  and  C_25
REMARK   10  A    between atoms: C_26  and  C_32
REMARK                            x       y       z     vdW  Elec       q    Type
REMARK                         _______ _______ _______ _____ _____    ______ ____
ROOT
ATOM      1  N   UNL     1      33.395 -14.946 -22.974  0.00  0.00    +0.388 N 
ATOM      2  H   UNL     1      33.878 -14.063 -22.807  0.00  0.00    -0.084 HD
ATOM      3  H   UNL     1      32.386 -14.804 -22.939  0.00  0.00    -0.084 HD
ENDROOT
BRANCH   1   4
ATOM      4  C   UNL     1      33.778 -15.914 -21.930  0.00  0.00    -0.042 C 
ATOM      5  C   UNL     1      34.793 -15.214 -21.016  0.00  0.00    -0.021 C 
ATOM      6  C   UNL     1      32.508 -16.249 -21.135  0.00  0.00    -0.021 C 
BRANCH   4   7
ATOM      7  C   UNL     1      34.384 -17.173 -22.623  0.00  0.00    +0.007 C 
BRANCH   7   8
ATOM      8  C   UNL     1      34.786 -18.304 -21.738  0.00  0.00    -0.024 C 
ATOM      9  C   UNL     1      33.813 -19.149 -21.202  0.00  0.00    -0.004 C 
ATOM     10  C   UNL     1      36.130 -18.519 -21.449  0.00  0.00    -0.004 C 
ATOM     11  C   UNL     1      34.175 -20.219 -20.367  0.00  0.00    -0.000 C 
ATOM     12  C   UNL     1      35.542 -20.437 -20.073  0.00  0.00    -0.000 C 
ATOM     13  C   UNL     1      36.507 -19.576 -20.623  0.00  0.00    -0.000 C 
ATOM     14  C   UNL     1      33.210 -21.078 -19.817  0.00  0.00    -0.000 C 
ATOM     15  C   UNL     1      35.904 -21.506 -19.238  0.00  0.00    -0.000 C 
ATOM     16  C   UNL     1      33.587 -22.137 -18.990  0.00  0.00    -0.000 C 
ATOM     17  C   UNL     1      34.932 -22.350 -18.701  0.00  0.00    -0.000 C 
ENDBRANCH   7   8
ENDBRANCH   4   7
ENDBRANCH   1   4
BRANCH   1  18
ATOM     18  C   UNL     1      33.756 -15.450 -24.285  0.00  0.00    -0.048 C 
BRANCH  18  19
ATOM     19  C   UNL     1      33.411 -14.459 -25.398  0.00  0.00    +0.133 C 
BRANCH  19  20
ATOM     20  O   UNL     1      32.451 -15.073 -26.262  0.00  0.00    -0.383 OA
ATOM     21  H   UNL     1      31.889 -14.387 -26.659  0.00  0.00    +0.210 HD
ENDBRANCH  19  20
BRANCH  19  22
ATOM     22  C   UNL     1      32.826 -13.146 -24.879  0.00  0.00    +0.232 C 
BRANCH  22  23
ATOM     23  O   UNL     1      33.857 -12.410 -24.227  0.00  0.00    -0.472 OA
BRANCH  23  25
ATOM     24 CL   UNL     1      34.525  -7.310 -24.155  0.00  0.00    -0.081 Cl
ATOM     25  C   UNL     1      33.516 -11.180 -23.730  0.00  0.00    +0.149 C 
ATOM     26  C   UNL     1      34.147 -10.022 -24.175  0.00  0.00    +0.113 C 
ATOM     27  C   UNL     1      32.517 -11.111 -22.762  0.00  0.00    +0.038 C 
ATOM     28  C   UNL     1      33.778  -8.785 -23.647  0.00  0.00    +0.070 C 
ATOM     29  C   UNL     1      32.148  -9.873 -22.234  0.00  0.00    +0.004 C 
ATOM     30  C   UNL     1      32.778  -8.710 -22.677  0.00  0.00    +0.012 C 
BRANCH  26  32
ATOM     31  N   UNL     1      36.002 -10.202 -25.976  0.00  0.00    -0.191 NA
ATOM     32  C   UNL     1      35.174 -10.122 -25.172  0.00  0.00    +0.104 C 
ENDBRANCH  26  32
ENDBRANCH  23  25
ENDBRANCH  22  23
ENDBRANCH  19  22
ENDBRANCH  18  19
ENDBRANCH   1  18
TORSDOF 10
ENDMDL
MODEL 4
REMARK VINA RESULT:     -10.1      5.844     11.438
REMARK  Name = 6918446
REMARK  10 active torsions:
REMARK  status: ('A' for Active; 'I' for Inactive)
REMARK    1  A    between atoms: N_1  and  C_4
REMARK    2  A    between atoms: N_1  and  C_18
REMARK    3  A    between atoms: C_4  and  C_7
REMARK    4  A    between atoms: C_7  and  C_8
REMARK    5  A    between atoms: C_18  and  C_19
REMARK    6  A    between atoms: C_19  and  O_20
REMARK    7  A    between atoms: C_19  and  C_22
REMARK    8  A    between atoms: C_22  and  O_23
REMARK    9  A    between atoms: O_23  and  C_25
REMARK   10  A    between atoms: C_26  and  C_32
REMARK                            x       y       z     vdW  Elec       q    Type
REMARK                         _______ _______ _______ _____ _____    ______ ____
ROOT
ATOM      1  N   UNL     1      35.324 -20.177 -20.590  0.00  0.00    +0.388 N 
ATOM      2  H   UNL     1      35.972 -19.751 -19.927  0.00  0.00    -0.084 HD
ATOM      3  H   UNL     1      35.832 -20.785 -21.232  0.00  0.00    -0.084 HD
ENDROOT
BRANCH   1   4
ATOM      4  C   UNL     1      34.655 -19.116 -21.365  0.00  0.00    -0.042 C 
ATOM      5  C   UNL     1      34.815 -19.471 -22.849  0.00  0.00    -0.021 C 
ATOM      6  C   UNL     1      33.169 -19.144 -20.981  0.00  0.00    -0.021 C 
BRANCH   4   7
ATOM      7  C   UNL     1      35.325 -17.751 -21.013  0.00  0.00    +0.007 C 
BRANCH   7   8
ATOM      8  C   UNL     1      34.713 -16.526 -21.603  0.00  0.00    -0.024 C 
ATOM      9  C   UNL     1      33.887 -15.715 -20.824  0.00  0.00    -0.004 C 
ATOM     10  C   UNL     1      34.967 -16.190 -22.929  0.00  0.00    -0.004 C 
ATOM     11  C   UNL     1      33.303 -14.557 -21.365  0.00  0.00    -0.000 C 
ATOM     12  C   UNL     1      33.562 -14.217 -22.714  0.00  0.00    -0.000 C 
ATOM     13  C   UNL     1      34.397 -15.045 -23.483  0.00  0.00    -0.000 C 
ATOM     14  C   UNL     1      32.468 -13.731 -20.596  0.00  0.00    -0.000 C 
ATOM     15  C   UNL     1      32.978 -13.060 -23.254  0.00  0.00    -0.000 C 
ATOM     16  C   UNL     1      31.896 -12.584 -21.149  0.00  0.00    -0.000 C 
ATOM     17  C   UNL     1      32.151 -12.249 -22.476  0.00  0.00    -0.000 C 
ENDBRANCH   7   8
ENDBRANCH   4   7
ENDBRANCH   1   4
BRANCH   1  18
ATOM     18  C   UNL     1      34.345 -20.965 -19.866  0.00  0.00    -0.048 C 
BRANCH  18  19
ATOM     19  C   UNL     1      34.902 -22.325 -19.441  0.00  0.00    +0.133 C 
BRANCH  19  20
ATOM     20  O   UNL     1      35.941 -22.104 -18.484  0.00  0.00    -0.383 OA
ATOM     21  H   UNL     1      35.995 -22.866 -17.884  0.00  0.00    +0.210 HD
ENDBRANCH  19  20
BRANCH  19  22
ATOM     22  C   UNL     1      33.852 -23.241 -18.814  0.00  0.00    +0.232 C 
BRANCH  22  23
ATOM     23  O   UNL     1      33.197 -22.537 -17.763  0.00  0.00    -0.472 OA
BRANCH  23  25
ATOM     24 CL   UNL     1      30.404 -24.249 -13.797  0.00  0.00    -0.081 Cl
ATOM     25  C   UNL     1      33.131 -23.166 -16.549  0.00  0.00    +0.149 C 
ATOM     26  C   UNL     1      31.915 -23.350 -15.897  0.00  0.00    +0.113 C 
ATOM     27  C   UNL     1      34.314 -23.622 -15.974  0.00  0.00    +0.038 C 
ATOM     28  C   UNL     1      31.881 -23.993 -14.659  0.00  0.00    +0.070 C 
ATOM     29  C   UNL     1      34.281 -24.265 -14.736  0.00  0.00    +0.004 C 
ATOM     30  C   UNL     1      33.064 -24.451 -14.079  0.00  0.00    +0.012 C 
BRANCH  26  32
ATOM     31  N   UNL     1      29.740 -22.482 -17.006  0.00  0.00    -0.191 NA
ATOM     32  C   UNL     1      30.710 -22.869 -16.511  0.00  0.00    +0.104 C 
ENDBRANCH  26  32
ENDBRANCH  23  25
ENDBRANCH  22  23
ENDBRANCH  19  22
ENDBRANCH  18  19
ENDBRANCH   1  18
TORSDOF 10
ENDMDL
MODEL 5
REMARK VINA RESULT:     -10.1      7.923     11.298
REMARK  Name = 6918446
REMARK  10 active torsions:
REMARK  status: ('A' for Active; 'I' for Inactive)
REMARK    1  A    between atoms: N_1  and  C_4
REMARK    2  A    between atoms: N_1  and  C_18
REMARK    3  A    between atoms: C_4  and  C_7
REMARK    4  A    between atoms: C_7  and  C_8
REMARK    5  A    between atoms: C_18  and  C_19
REMARK    6  A    between atoms: C_19  and  O_20
REMARK    7  A    between atoms: C_19  and  C_22
REMARK    8  A    between atoms: C_22  and  O_23
REMARK    9  A    between atoms: O_23  and  C_25
REMARK   10  A    between atoms: C_26  and  C_32
REMARK                            x       y       z     vdW  Elec       q    Type
REMARK                         _______ _______ _______ _____ _____    ______ ____
ROOT
ATOM      1  N   UNL     1      35.097 -22.605 -14.755  0.00  0.00    +0.388 N 
ATOM      2  H   UNL     1      35.641 -21.924 -14.225  0.00  0.00    -0.084 HD
ATOM      3  H   UNL     1      34.166 -22.236 -14.944  0.00  0.00    -0.084 HD
ENDROOT
BRANCH   1   4
ATOM      4  C   UNL     1      34.970 -23.844 -13.966  0.00  0.00    -0.042 C 
ATOM      5  C   UNL     1      34.936 -25.011 -14.961  0.00  0.00    -0.021 C 
ATOM      6  C   UNL     1      36.222 -23.950 -13.084  0.00  0.00    -0.021 C 
BRANCH   4   7
ATOM      7  C   UNL     1      33.663 -23.757 -13.118  0.00  0.00    +0.007 C 
BRANCH   7   8
ATOM      8  C   UNL     1      32.377 -24.006 -13.831  0.00  0.00    -0.024 C 
ATOM      9  C   UNL     1      31.850 -23.031 -14.678  0.00  0.00    -0.004 C 
ATOM     10  C   UNL     1      31.704 -25.211 -13.653  0.00  0.00    -0.004 C 
ATOM     11  C   UNL     1      30.639 -23.250 -15.356  0.00  0.00    -0.000 C 
ATOM     12  C   UNL     1      29.955 -24.475 -15.175  0.00  0.00    -0.000 C 
ATOM     13  C   UNL     1      30.502 -25.445 -14.318  0.00  0.00    -0.000 C 
ATOM     14  C   UNL     1      30.093 -22.279 -16.211  0.00  0.00    -0.000 C 
ATOM     15  C   UNL     1      28.745 -24.693 -15.853  0.00  0.00    -0.000 C 
ATOM     16  C   UNL     1      28.890 -22.513 -16.878  0.00  0.00    -0.000 C 
ATOM     17  C   UNL     1      28.217 -23.718 -16.699  0.00  0.00    -0.000 C 
ENDBRANCH   7   8
ENDBRANCH   4   7
ENDBRANCH   1   4
BRANCH   1  18
ATOM     18  C   UNL     1      35.764 -22.876 -16.014  0.00  0.00    -0.048 C 
BRANCH  18  19
ATOM     19  C   UNL     1      37.105 -22.146 -16.123  0.00  0.00    +0.133 C 
BRANCH  19  20
ATOM     20  O   UNL     1      38.151 -23.117 -16.034  0.00  0.00    -0.383 OA
ATOM     21  H   UNL     1      37.862 -23.942 -16.456  0.00  0.00    +0.210 HD
ENDBRANCH  19  20
BRANCH  19  22
ATOM     22  C   UNL     1      37.269 -21.375 -17.432  0.00  0.00    +0.232 C 
BRANCH  22  23
ATOM     23  O   UNL     1      36.411 -21.948 -18.414  0.00  0.00    -0.472 OA
BRANCH  23  25
ATOM     24 CL   UNL     1      32.392 -20.128 -21.059  0.00  0.00    -0.081 Cl
ATOM     25  C   UNL     1      35.908 -21.098 -19.362  0.00  0.00    +0.149 C 
ATOM     26  C   UNL     1      34.549 -21.077 -19.663  0.00  0.00    +0.113 C 
ATOM     27  C   UNL     1      36.789 -20.249 -20.026  0.00  0.00    +0.038 C 
ATOM     28  C   UNL     1      34.067 -20.201 -20.637  0.00  0.00    +0.070 C 
ATOM     29  C   UNL     1      36.308 -19.373 -20.999  0.00  0.00    +0.004 C 
ATOM     30  C   UNL     1      34.947 -19.348 -21.304  0.00  0.00    +0.012 C 
BRANCH  26  32
ATOM     31  N   UNL     1      32.948 -22.678 -18.403  0.00  0.00    -0.191 NA
ATOM     32  C   UNL     1      33.662 -21.964 -18.966  0.00  0.00    +0.104 C 
ENDBRANCH  26  32
ENDBRANCH  23  25
ENDBRANCH  22  23
ENDBRANCH  19  22
ENDBRANCH  18  19
ENDBRANCH   1  18
TORSDOF 10
ENDMDL
MODEL 6
REMARK VINA RESULT:     -10.0      6.078     11.671
REMARK  Name = 6918446
REMARK  10 active torsions:
REMARK  status: ('A' for Active; 'I' for Inactive)
REMARK    1  A    between atoms: N_1  and  C_4
REMARK    2  A    between atoms: N_1  and  C_18
REMARK    3  A    between atoms: C_4  and  C_7
REMARK    4  A    between atoms: C_7  and  C_8
REMARK    5  A    between atoms: C_18  and  C_19
REMARK    6  A    between atoms: C_19  and  O_20
REMARK    7  A    between atoms: C_19  and  C_22
REMARK    8  A    between atoms: C_22  and  O_23
REMARK    9  A    between atoms: O_23  and  C_25
REMARK   10  A    between atoms: C_26  and  C_32
REMARK                            x       y       z     vdW  Elec       q    Type
REMARK                         _______ _______ _______ _____ _____    ______ ____
ROOT
ATOM      1  N   UNL     1      35.452 -20.147 -20.921  0.00  0.00    +0.388 N 
ATOM      2  H   UNL     1      36.305 -19.773 -20.504  0.00  0.00    -0.084 HD
ATOM      3  H   UNL     1      35.679 -20.913 -21.553  0.00  0.00    -0.084 HD
ENDROOT
BRANCH   1   4
ATOM      4  C   UNL     1      34.777 -19.081 -21.683  0.00  0.00    -0.042 C 
ATOM      5  C   UNL     1      34.926 -19.426 -23.171  0.00  0.00    -0.021 C 
ATOM      6  C   UNL     1      33.293 -19.113 -21.289  0.00  0.00    -0.021 C 
BRANCH   4   7
ATOM      7  C   UNL     1      35.447 -17.718 -21.327  0.00  0.00    +0.007 C 
BRANCH   7   8
ATOM      8  C   UNL     1      34.774 -16.483 -21.822  0.00  0.00    -0.024 C 
ATOM      9  C   UNL     1      33.977 -15.730 -20.959  0.00  0.00    -0.004 C 
ATOM     10  C   UNL     1      34.943 -16.081 -23.143  0.00  0.00    -0.004 C 
ATOM     11  C   UNL     1      33.337 -14.564 -21.410  0.00  0.00    -0.000 C 
ATOM     12  C   UNL     1      33.508 -14.156 -22.754  0.00  0.00    -0.000 C 
ATOM     13  C   UNL     1      34.315 -14.926 -23.608  0.00  0.00    -0.000 C 
ATOM     14  C   UNL     1      32.530 -13.795 -20.556  0.00  0.00    -0.000 C 
ATOM     15  C   UNL     1      32.867 -12.990 -23.204  0.00  0.00    -0.000 C 
ATOM     16  C   UNL     1      31.901 -12.639 -21.021  0.00  0.00    -0.000 C 
ATOM     17  C   UNL     1      32.070 -12.237 -22.343  0.00  0.00    -0.000 C 
ENDBRANCH   7   8
ENDBRANCH   4   7
ENDBRANCH   1   4
BRANCH   1  18
ATOM     18  C   UNL     1      34.582 -20.642 -19.870  0.00  0.00    -0.048 C 
BRANCH  18  19
ATOM     19  C   UNL     1      34.904 -22.090 -19.494  0.00  0.00    +0.133 C 
BRANCH  19  20
ATOM     20  O   UNL     1      36.061 -22.088 -18.653  0.00  0.00    -0.383 OA
ATOM     21  H   UNL     1      36.857 -22.176 -19.201  0.00  0.00    +0.210 HD
ENDBRANCH  19  20
BRANCH  19  22
ATOM     22  C   UNL     1      33.766 -22.789 -18.751  0.00  0.00    +0.232 C 
BRANCH  22  23
ATOM     23  O   UNL     1      34.318 -23.576 -17.700  0.00  0.00    -0.472 OA
BRANCH  23  25
ATOM     24 CL   UNL     1      34.432 -24.079 -12.582  0.00  0.00    -0.081 Cl
ATOM     25  C   UNL     1      33.672 -23.534 -16.494  0.00  0.00    +0.149 C 
ATOM     26  C   UNL     1      34.344 -23.802 -15.305  0.00  0.00    +0.113 C 
ATOM     27  C   UNL     1      32.316 -23.215 -16.480  0.00  0.00    +0.038 C 
ATOM     28  C   UNL     1      33.656 -23.753 -14.092  0.00  0.00    +0.070 C 
ATOM     29  C   UNL     1      31.628 -23.165 -15.267  0.00  0.00    +0.004 C 
ATOM     30  C   UNL     1      32.298 -23.434 -14.074  0.00  0.00    +0.012 C 
BRANCH  26  32
ATOM     31  N   UNL     1      36.865 -24.395 -15.382  0.00  0.00    -0.191 NA
ATOM     32  C   UNL     1      35.740 -24.130 -15.348  0.00  0.00    +0.104 C 
ENDBRANCH  26  32
ENDBRANCH  23  25
ENDBRANCH  22  23
ENDBRANCH  19  22
ENDBRANCH  18  19
ENDBRANCH   1  18
TORSDOF 10
ENDMDL
MODEL 7
REMARK VINA RESULT:     -10.0      3.160      5.143
REMARK  Name = 6918446
REMARK  10 active torsions:
REMARK  status: ('A' for Active; 'I' for Inactive)
REMARK    1  A    between atoms: N_1  and  C_4
REMARK    2  A    between atoms: N_1  and  C_18
REMARK    3  A    between atoms: C_4  and  C_7
REMARK    4  A    between atoms: C_7  and  C_8
REMARK    5  A    between atoms: C_18  and  C_19
REMARK    6  A    between atoms: C_19  and  O_20
REMARK    7  A    between atoms: C_19  and  C_22
REMARK    8  A    between atoms: C_22  and  O_23
REMARK    9  A    between atoms: O_23  and  C_25
REMARK   10  A    between atoms: C_26  and  C_32
REMARK                            x       y       z     vdW  Elec       q    Type
REMARK                         _______ _______ _______ _____ _____    ______ ____
ROOT
ATOM      1  N   UNL     1      35.271 -18.182 -20.651  0.00  0.00    +0.388 N 
ATOM      2  H   UNL     1      36.278 -18.306 -20.545  0.00  0.00    -0.084 HD
ATOM      3  H   UNL     1      34.834 -18.076 -19.736  0.00  0.00    -0.084 HD
ENDROOT
BRANCH   1   4
ATOM      4  C   UNL     1      34.704 -19.367 -21.319  0.00  0.00    -0.042 C 
ATOM      5  C   UNL     1      33.283 -19.559 -20.770  0.00  0.00    -0.021 C 
ATOM      6  C   UNL     1      34.642 -19.055 -22.821  0.00  0.00    -0.021 C 
BRANCH   4   7
ATOM      7  C   UNL     1      35.620 -20.592 -21.014  0.00  0.00    +0.007 C 
BRANCH   7   8
ATOM      8  C   UNL     1      35.390 -21.304 -19.724  0.00  0.00    -0.024 C 
ATOM      9  C   UNL     1      36.397 -21.342 -18.759  0.00  0.00    -0.004 C 
ATOM     10  C   UNL     1      34.170 -21.930 -19.482  0.00  0.00    -0.004 C 
ATOM     11  C   UNL     1      36.195 -22.008 -17.538  0.00  0.00    -0.000 C 
ATOM     12  C   UNL     1      34.955 -22.644 -17.293  0.00  0.00    -0.000 C 
ATOM     13  C   UNL     1      33.953 -22.596 -18.277  0.00  0.00    -0.000 C 
ATOM     14  C   UNL     1      37.198 -22.057 -16.557  0.00  0.00    -0.000 C 
ATOM     15  C   UNL     1      34.755 -23.310 -16.074  0.00  0.00    -0.000 C 
ATOM     16  C   UNL     1      36.981 -22.723 -15.350  0.00  0.00    -0.000 C 
ATOM     17  C   UNL     1      35.761 -23.349 -15.109  0.00  0.00    -0.000 C 
ENDBRANCH   7   8
ENDBRANCH   4   7
ENDBRANCH   1   4
BRANCH   1  18
ATOM     18  C   UNL     1      35.016 -16.991 -21.438  0.00  0.00    -0.048 C 
BRANCH  18  19
ATOM     19  C   UNL     1      34.188 -15.959 -20.668  0.00  0.00    +0.133 C 
BRANCH  19  20
ATOM     20  O   UNL     1      35.069 -14.931 -20.208  0.00  0.00    -0.383 OA
ATOM     21  H   UNL     1      35.699 -15.307 -19.573  0.00  0.00    +0.210 HD
ENDBRANCH  19  20
BRANCH  19  22
ATOM     22  C   UNL     1      33.088 -15.315 -21.510  0.00  0.00    +0.232 C 
BRANCH  22  23
ATOM     23  O   UNL     1      33.422 -15.454 -22.887  0.00  0.00    -0.472 OA
BRANCH  23  25
ATOM     24 CL   UNL     1      33.523 -13.136 -27.479  0.00  0.00    -0.081 Cl
ATOM     25  C   UNL     1      33.464 -14.305 -23.630  0.00  0.00    +0.149 C 
ATOM     26  C   UNL     1      33.467 -14.345 -25.021  0.00  0.00    +0.113 C 
ATOM     27  C   UNL     1      33.503 -13.085 -22.960  0.00  0.00    +0.038 C 
ATOM     28  C   UNL     1      33.513 -13.155 -25.750  0.00  0.00    +0.070 C 
ATOM     29  C   UNL     1      33.548 -11.895 -23.688  0.00  0.00    +0.004 C 
ATOM     30  C   UNL     1      33.552 -11.930 -25.083  0.00  0.00    +0.012 C 
BRANCH  26  32
ATOM     31  N   UNL     1      33.396 -16.639 -26.223  0.00  0.00    -0.191 NA
ATOM     32  C   UNL     1      33.428 -15.615 -25.687  0.00  0.00    +0.104 C 
ENDBRANCH  26  32
ENDBRANCH  23  25
ENDBRANCH  22  23
ENDBRANCH  19  22
ENDBRANCH  18  19
ENDBRANCH   1  18
TORSDOF 10
ENDMDL
MODEL 8
REMARK VINA RESULT:     -10.0      1.767      2.514
REMARK  Name = 6918446
REMARK  10 active torsions:
REMARK  status: ('A' for Active; 'I' for Inactive)
REMARK    1  A    between atoms: N_1  and  C_4
REMARK    2  A    between atoms: N_1  and  C_18
REMARK    3  A    between atoms: C_4  and  C_7
REMARK    4  A    between atoms: C_7  and  C_8
REMARK    5  A    between atoms: C_18  and  C_19
REMARK    6  A    between atoms: C_19  and  O_20
REMARK    7  A    between atoms: C_19  and  C_22
REMARK    8  A    between atoms: C_22  and  O_23
REMARK    9  A    between atoms: O_23  and  C_25
REMARK   10  A    between atoms: C_26  and  C_32
REMARK                            x       y       z     vdW  Elec       q    Type
REMARK                         _______ _______ _______ _____ _____    ______ ____
ROOT
ATOM      1  N   UNL     1      32.620 -15.124 -21.871  0.00  0.00    +0.388 N 
ATOM      2  H   UNL     1      32.371 -15.227 -20.887  0.00  0.00    -0.084 HD
ATOM      3  H   UNL     1      32.086 -15.783 -22.437  0.00  0.00    -0.084 HD
ENDROOT
BRANCH   1   4
ATOM      4  C   UNL     1      34.058 -15.402 -22.040  0.00  0.00    -0.042 C 
ATOM      5  C   UNL     1      34.655 -14.230 -22.830  0.00  0.00    -0.021 C 
ATOM      6  C   UNL     1      34.678 -15.452 -20.637  0.00  0.00    -0.021 C 
BRANCH   4   7
ATOM      7  C   UNL     1      34.212 -16.758 -22.797  0.00  0.00    +0.007 C 
BRANCH   7   8
ATOM      8  C   UNL     1      34.626 -17.940 -21.988  0.00  0.00    -0.024 C 
ATOM      9  C   UNL     1      33.658 -18.747 -21.388  0.00  0.00    -0.004 C 
ATOM     10  C   UNL     1      35.975 -18.240 -21.833  0.00  0.00    -0.004 C 
ATOM     11  C   UNL     1      34.031 -19.865 -20.623  0.00  0.00    -0.000 C 
ATOM     12  C   UNL     1      35.404 -20.169 -20.466  0.00  0.00    -0.000 C 
ATOM     13  C   UNL     1      36.364 -19.346 -21.078  0.00  0.00    -0.000 C 
ATOM     14  C   UNL     1      33.071 -20.687 -20.011  0.00  0.00    -0.000 C 
ATOM     15  C   UNL     1      35.776 -21.286 -19.701  0.00  0.00    -0.000 C 
ATOM     16  C   UNL     1      33.459 -21.793 -19.255  0.00  0.00    -0.000 C 
ATOM     17  C   UNL     1      34.810 -22.093 -19.100  0.00  0.00    -0.000 C 
ENDBRANCH   7   8
ENDBRANCH   4   7
ENDBRANCH   1   4
BRANCH   1  18
ATOM     18  C   UNL     1      32.314 -13.773 -22.303  0.00  0.00    -0.048 C 
BRANCH  18  19
ATOM     19  C   UNL     1      31.569 -12.980 -21.227  0.00  0.00    +0.133 C 
BRANCH  19  20
ATOM     20  O   UNL     1      32.390 -12.931 -20.058  0.00  0.00    -0.383 OA
ATOM     21  H   UNL     1      31.837 -13.054 -19.270  0.00  0.00    +0.210 HD
ENDBRANCH  19  20
BRANCH  19  22
ATOM     22  C   UNL     1      31.239 -11.549 -21.650  0.00  0.00    +0.232 C 
BRANCH  22  23
ATOM     23  O   UNL     1      32.255 -11.086 -22.534  0.00  0.00    -0.472 OA
BRANCH  23  25
ATOM     24 CL   UNL     1      34.840  -7.043 -24.388  0.00  0.00    -0.081 Cl
ATOM     25  C   UNL     1      32.537  -9.746 -22.498  0.00  0.00    +0.149 C 
ATOM     26  C   UNL     1      33.449  -9.177 -23.383  0.00  0.00    +0.113 C 
ATOM     27  C   UNL     1      31.891  -8.958 -21.550  0.00  0.00    +0.038 C 
ATOM     28  C   UNL     1      33.717  -7.810 -23.320  0.00  0.00    +0.070 C 
ATOM     29  C   UNL     1      32.158  -7.590 -21.486  0.00  0.00    +0.004 C 
ATOM     30  C   UNL     1      33.071  -7.016 -22.372  0.00  0.00    +0.012 C 
BRANCH  26  32
ATOM     31  N   UNL     1      34.630 -10.686 -25.128  0.00  0.00    -0.191 NA
ATOM     32  C   UNL     1      34.103 -10.013 -24.349  0.00  0.00    +0.104 C 
ENDBRANCH  26  32
ENDBRANCH  23  25
ENDBRANCH  22  23
ENDBRANCH  19  22
ENDBRANCH  18  19
ENDBRANCH   1  18
TORSDOF 10
ENDMDL
MODEL 9
REMARK VINA RESULT:      -9.9      3.450     10.587
REMARK  Name = 6918446
REMARK  10 active torsions:
REMARK  status: ('A' for Active; 'I' for Inactive)
REMARK    1  A    between atoms: N_1  and  C_4
REMARK    2  A    between atoms: N_1  and  C_18
REMARK    3  A    between atoms: C_4  and  C_7
REMARK    4  A    between atoms: C_7  and  C_8
REMARK    5  A    between atoms: C_18  and  C_19
REMARK    6  A    between atoms: C_19  and  O_20
REMARK    7  A    between atoms: C_19  and  C_22
REMARK    8  A    between atoms: C_22  and  O_23
REMARK    9  A    between atoms: O_23  and  C_25
REMARK   10  A    between atoms: C_26  and  C_32
REMARK                            x       y       z     vdW  Elec       q    Type
REMARK                         _______ _______ _______ _____ _____    ______ ____
ROOT
ATOM      1  N   UNL     1      32.876 -11.086 -22.259  0.00  0.00    +0.388 N 
ATOM      2  H   UNL     1      33.544 -11.400 -21.555  0.00  0.00    -0.084 HD
ATOM      3  H   UNL     1      33.366 -10.613 -23.018  0.00  0.00    -0.084 HD
ENDROOT
BRANCH   1   4
ATOM      4  C   UNL     1      31.927 -10.143 -21.641  0.00  0.00    -0.042 C 
ATOM      5  C   UNL     1      30.766  -9.959 -22.627  0.00  0.00    -0.021 C 
ATOM      6  C   UNL     1      31.413 -10.797 -20.350  0.00  0.00    -0.021 C 
BRANCH   4   7
ATOM      7  C   UNL     1      32.675  -8.803 -21.359  0.00  0.00    +0.007 C 
BRANCH   7   8
ATOM      8  C   UNL     1      32.971  -7.934 -22.534  0.00  0.00    -0.024 C 
ATOM      9  C   UNL     1      32.052  -6.965 -22.935  0.00  0.00    -0.004 C 
ATOM     10  C   UNL     1      34.166  -8.089 -23.230  0.00  0.00    -0.004 C 
ATOM     11  C   UNL     1      32.317  -6.138 -24.040  0.00  0.00    -0.000 C 
ATOM     12  C   UNL     1      33.532  -6.297 -24.747  0.00  0.00    -0.000 C 
ATOM     13  C   UNL     1      34.446  -7.278 -24.329  0.00  0.00    -0.000 C 
ATOM     14  C   UNL     1      31.402  -5.158 -24.457  0.00  0.00    -0.000 C 
ATOM     15  C   UNL     1      33.796  -5.471 -25.851  0.00  0.00    -0.000 C 
ATOM     16  C   UNL     1      31.681  -4.346 -25.556  0.00  0.00    -0.000 C 
ATOM     17  C   UNL     1      32.877  -4.502 -26.253  0.00  0.00    -0.000 C 
ENDBRANCH   7   8
ENDBRANCH   4   7
ENDBRANCH   1   4
BRANCH   1  18
ATOM     18  C   UNL     1      32.169 -12.234 -22.794  0.00  0.00    -0.048 C 
BRANCH  18  19
ATOM     19  C   UNL     1      32.897 -13.547 -22.498  0.00  0.00    +0.133 C 
BRANCH  19  20
ATOM     20  O   UNL     1      32.017 -14.386 -21.745  0.00  0.00    -0.383 OA
ATOM     21  H   UNL     1      31.440 -14.875 -22.353  0.00  0.00    +0.210 HD
ENDBRANCH  19  20
BRANCH  19  22
ATOM     22  C   UNL     1      33.326 -14.299 -23.757  0.00  0.00    +0.232 C 
BRANCH  22  23
ATOM     23  O   UNL     1      34.593 -14.905 -23.521  0.00  0.00    -0.472 OA
BRANCH  23  25
ATOM     24 CL   UNL     1      34.998 -19.493 -21.230  0.00  0.00    -0.081 Cl
ATOM     25  C   UNL     1      34.649 -16.270 -23.612  0.00  0.00    +0.149 C 
ATOM     26  C   UNL     1      34.778 -17.064 -22.475  0.00  0.00    +0.113 C 
ATOM     27  C   UNL     1      34.575 -16.853 -24.873  0.00  0.00    +0.038 C 
ATOM     28  C   UNL     1      34.835 -18.452 -22.601  0.00  0.00    +0.070 C 
ATOM     29  C   UNL     1      34.632 -18.242 -25.000  0.00  0.00    +0.004 C 
ATOM     30  C   UNL     1      34.761 -19.041 -23.864  0.00  0.00    +0.012 C 
BRANCH  26  32
ATOM     31  N   UNL     1      34.916 -15.931 -20.149  0.00  0.00    -0.191 NA
ATOM     32  C   UNL     1      34.854 -16.436 -21.187  0.00  0.00    +0.104 C 
ENDBRANCH  26  32
ENDBRANCH  23  25
ENDBRANCH  22  23
ENDBRANCH  19  22
ENDBRANCH  18  19
ENDBRANCH   1  18
TORSDOF 10
ENDMDL
