MODEL 1
REMARK VINA RESULT:      -5.9      0.000      0.000
REMARK  Name = 448749
REMARK  2 active torsions:
REMARK  status: ('A' for Active; 'I' for Inactive)
REMARK    1  A    between atoms: C_2  and  C_8
REMARK    2  A    between atoms: C_8  and  N_9
REMARK                            x       y       z     vdW  Elec       q    Type
REMARK                         _______ _______ _______ _____ _____    ______ ____
ROOT
ATOM      1  F   UNL     1      35.530 -18.038 -21.965  0.00  0.00    -0.204 F 
ATOM      2  C   UNL     1      34.361 -21.286 -19.697  0.00  0.00    -0.044 C 
ATOM      3  C   UNL     1      35.717 -21.010 -19.875  0.00  0.00    -0.004 C 
ATOM      4  C   UNL     1      33.400 -20.464 -20.287  0.00  0.00    -0.004 C 
ATOM      5  C   UNL     1      36.112 -19.914 -20.641  0.00  0.00    +0.029 C 
ATOM      6  C   UNL     1      33.795 -19.368 -21.053  0.00  0.00    +0.029 C 
ATOM      7  C   UNL     1      35.151 -19.093 -21.230  0.00  0.00    +0.140 C 
ENDROOT
BRANCH   2   8
ATOM      8  C   UNL     1      33.939 -22.458 -18.879  0.00  0.00    -0.059 C 
BRANCH   8   9
ATOM      9  N   UNL     1      32.542 -22.355 -18.373  0.00  0.00    +0.383 N 
ATOM     10  H   UNL     1      31.915 -22.146 -19.149  0.00  0.00    -0.089 HD
ATOM     11  H   UNL     1      32.486 -21.610 -17.679  0.00  0.00    -0.089 HD
ATOM     12  H   UNL     1      32.270 -23.240 -17.944  0.00  0.00    -0.089 HD
ENDBRANCH   8   9
ENDBRANCH   2   8
TORSDOF 2
ENDMDL
MODEL 2
REMARK VINA RESULT:      -5.9      0.053      1.611
REMARK  Name = 448749
REMARK  2 active torsions:
REMARK  status: ('A' for Active; 'I' for Inactive)
REMARK    1  A    between atoms: C_2  and  C_8
REMARK    2  A    between atoms: C_8  and  N_9
REMARK                            x       y       z     vdW  Elec       q    Type
REMARK                         _______ _______ _______ _____ _____    ______ ____
ROOT
ATOM      1  F   UNL     1      35.450 -18.025 -22.002  0.00  0.00    -0.204 F 
ATOM      2  C   UNL     1      34.339 -21.263 -19.693  0.00  0.00    -0.044 C 
ATOM      3  C   UNL     1      33.363 -20.457 -20.280  0.00  0.00    -0.004 C 
ATOM      4  C   UNL     1      35.690 -20.974 -19.886  0.00  0.00    -0.004 C 
ATOM      5  C   UNL     1      33.738 -19.363 -21.059  0.00  0.00    +0.029 C 
ATOM      6  C   UNL     1      36.065 -19.881 -20.666  0.00  0.00    +0.029 C 
ATOM      7  C   UNL     1      35.089 -19.075 -21.252  0.00  0.00    +0.140 C 
ENDROOT
BRANCH   2   8
ATOM      8  C   UNL     1      33.938 -22.432 -18.860  0.00  0.00    -0.059 C 
BRANCH   8   9
ATOM      9  N   UNL     1      32.537 -22.352 -18.362  0.00  0.00    +0.383 N 
ATOM     10  H   UNL     1      32.272 -21.373 -18.247  0.00  0.00    -0.089 HD
ATOM     11  H   UNL     1      32.467 -22.831 -17.464  0.00  0.00    -0.089 HD
ATOM     12  H   UNL     1      31.911 -22.797 -19.034  0.00  0.00    -0.089 HD
ENDBRANCH   8   9
ENDBRANCH   2   8
TORSDOF 2
ENDMDL
MODEL 3
REMARK VINA RESULT:      -5.8      3.082      3.864
REMARK  Name = 448749
REMARK  2 active torsions:
REMARK  status: ('A' for Active; 'I' for Inactive)
REMARK    1  A    between atoms: C_2  and  C_8
REMARK    2  A    between atoms: C_8  and  N_9
REMARK                            x       y       z     vdW  Elec       q    Type
REMARK                         _______ _______ _______ _____ _____    ______ ____
ROOT
ATOM      1  F   UNL     1      33.015 -22.327 -18.837  0.00  0.00    -0.204 F 
ATOM      2  C   UNL     1      35.223 -19.560 -20.965  0.00  0.00    -0.044 C 
ATOM      3  C   UNL     1      35.870 -20.564 -20.244  0.00  0.00    -0.004 C 
ATOM      4  C   UNL     1      33.829 -19.491 -20.966  0.00  0.00    -0.004 C 
ATOM      5  C   UNL     1      35.125 -21.498 -19.525  0.00  0.00    +0.029 C 
ATOM      6  C   UNL     1      33.084 -20.425 -20.247  0.00  0.00    +0.029 C 
ATOM      7  C   UNL     1      33.732 -21.429 -19.527  0.00  0.00    +0.140 C 
ENDROOT
BRANCH   2   8
ATOM      8  C   UNL     1      36.020 -18.562 -21.733  0.00  0.00    -0.059 C 
BRANCH   8   9
ATOM      9  N   UNL     1      35.624 -18.464 -23.165  0.00  0.00    +0.383 N 
ATOM     10  H   UNL     1      36.145 -19.150 -23.710  0.00  0.00    -0.089 HD
ATOM     11  H   UNL     1      35.829 -17.526 -23.511  0.00  0.00    -0.089 HD
ATOM     12  H   UNL     1      34.624 -18.646 -23.254  0.00  0.00    -0.089 HD
ENDBRANCH   8   9
ENDBRANCH   2   8
TORSDOF 2
ENDMDL
MODEL 4
REMARK VINA RESULT:      -5.5      3.519      4.473
REMARK  Name = 448749
REMARK  2 active torsions:
REMARK  status: ('A' for Active; 'I' for Inactive)
REMARK    1  A    between atoms: C_2  and  C_8
REMARK    2  A    between atoms: C_8  and  N_9
REMARK                            x       y       z     vdW  Elec       q    Type
REMARK                         _______ _______ _______ _____ _____    ______ ____
ROOT
ATOM      1  F   UNL     1      34.420 -16.049 -25.843  0.00  0.00    -0.204 F 
ATOM      2  C   UNL     1      35.008 -18.569 -22.623  0.00  0.00    -0.044 C 
ATOM      3  C   UNL     1      35.107 -17.187 -22.456  0.00  0.00    -0.004 C 
ATOM      4  C   UNL     1      34.711 -19.098 -23.880  0.00  0.00    -0.004 C 
ATOM      5  C   UNL     1      34.908 -16.336 -23.543  0.00  0.00    +0.029 C 
ATOM      6  C   UNL     1      34.513 -18.248 -24.967  0.00  0.00    +0.029 C 
ATOM      7  C   UNL     1      34.612 -16.867 -24.798  0.00  0.00    +0.140 C 
ENDROOT
BRANCH   2   8
ATOM      8  C   UNL     1      35.221 -19.478 -21.462  0.00  0.00    -0.059 C 
BRANCH   8   9
ATOM      9  N   UNL     1      36.374 -19.085 -20.606  0.00  0.00    +0.383 N 
ATOM     10  H   UNL     1      36.313 -19.568 -19.710  0.00  0.00    -0.089 HD
ATOM     11  H   UNL     1      36.355 -18.077 -20.451  0.00  0.00    -0.089 HD
ATOM     12  H   UNL     1      37.246 -19.340 -21.072  0.00  0.00    -0.089 HD
ENDBRANCH   8   9
ENDBRANCH   2   8
TORSDOF 2
ENDMDL
MODEL 5
REMARK VINA RESULT:      -5.4      2.269      3.173
REMARK  Name = 448749
REMARK  2 active torsions:
REMARK  status: ('A' for Active; 'I' for Inactive)
REMARK    1  A    between atoms: C_2  and  C_8
REMARK    2  A    between atoms: C_8  and  N_9
REMARK                            x       y       z     vdW  Elec       q    Type
REMARK                         _______ _______ _______ _____ _____    ______ ____
ROOT
ATOM      1  F   UNL     1      35.294 -16.041 -24.248  0.00  0.00    -0.204 F 
ATOM      2  C   UNL     1      34.484 -19.049 -21.537  0.00  0.00    -0.044 C 
ATOM      3  C   UNL     1      34.481 -17.717 -21.123  0.00  0.00    -0.004 C 
ATOM      4  C   UNL     1      34.762 -19.364 -22.867  0.00  0.00    -0.004 C 
ATOM      5  C   UNL     1      34.755 -16.701 -22.038  0.00  0.00    +0.029 C 
ATOM      6  C   UNL     1      35.036 -18.349 -23.783  0.00  0.00    +0.029 C 
ATOM      7  C   UNL     1      35.032 -17.017 -23.368  0.00  0.00    +0.140 C 
ENDROOT
BRANCH   2   8
ATOM      8  C   UNL     1      34.192 -20.135 -20.559  0.00  0.00    -0.059 C 
BRANCH   8   9
ATOM      9  N   UNL     1      32.747 -20.488 -20.480  0.00  0.00    +0.383 N 
ATOM     10  H   UNL     1      32.236 -19.994 -21.212  0.00  0.00    -0.089 HD
ATOM     11  H   UNL     1      32.381 -20.217 -19.567  0.00  0.00    -0.089 HD
ATOM     12  H   UNL     1      32.636 -21.494 -20.606  0.00  0.00    -0.089 HD
ENDBRANCH   8   9
ENDBRANCH   2   8
TORSDOF 2
ENDMDL
MODEL 6
REMARK VINA RESULT:      -5.4      3.973      4.868
REMARK  Name = 448749
REMARK  2 active torsions:
REMARK  status: ('A' for Active; 'I' for Inactive)
REMARK    1  A    between atoms: C_2  and  C_8
REMARK    2  A    between atoms: C_8  and  N_9
REMARK                            x       y       z     vdW  Elec       q    Type
REMARK                         _______ _______ _______ _____ _____    ______ ____
ROOT
ATOM      1  F   UNL     1      34.978 -20.036 -24.643  0.00  0.00    -0.204 F 
ATOM      2  C   UNL     1      34.764 -17.041 -21.808  0.00  0.00    -0.044 C 
ATOM      3  C   UNL     1      34.645 -18.377 -21.423  0.00  0.00    -0.004 C 
ATOM      4  C   UNL     1      34.956 -16.718 -23.151  0.00  0.00    -0.004 C 
ATOM      5  C   UNL     1      34.716 -19.388 -22.380  0.00  0.00    +0.029 C 
ATOM      6  C   UNL     1      35.028 -17.729 -24.109  0.00  0.00    +0.029 C 
ATOM      7  C   UNL     1      34.908 -19.064 -23.723  0.00  0.00    +0.140 C 
ENDROOT
BRANCH   2   8
ATOM      8  C   UNL     1      34.688 -15.960 -20.784  0.00  0.00    -0.059 C 
BRANCH   8   9
ATOM      9  N   UNL     1      34.441 -14.612 -21.365  0.00  0.00    +0.383 N 
ATOM     10  H   UNL     1      34.644 -13.898 -20.666  0.00  0.00    -0.089 HD
ATOM     11  H   UNL     1      33.464 -14.539 -21.653  0.00  0.00    -0.089 HD
ATOM     12  H   UNL     1      35.045 -14.476 -22.177  0.00  0.00    -0.089 HD
ENDBRANCH   8   9
ENDBRANCH   2   8
TORSDOF 2
ENDMDL
MODEL 7
REMARK VINA RESULT:      -5.3      4.889      6.144
REMARK  Name = 448749
REMARK  2 active torsions:
REMARK  status: ('A' for Active; 'I' for Inactive)
REMARK    1  A    between atoms: C_2  and  C_8
REMARK    2  A    between atoms: C_8  and  N_9
REMARK                            x       y       z     vdW  Elec       q    Type
REMARK                         _______ _______ _______ _____ _____    ______ ____
ROOT
ATOM      1  F   UNL     1      35.084 -19.632 -24.401  0.00  0.00    -0.204 F 
ATOM      2  C   UNL     1      34.591 -15.798 -22.947  0.00  0.00    -0.044 C 
ATOM      3  C   UNL     1      34.465 -16.048 -24.314  0.00  0.00    -0.004 C 
ATOM      4  C   UNL     1      34.884 -16.844 -22.072  0.00  0.00    -0.004 C 
ATOM      5  C   UNL     1      34.632 -17.342 -24.805  0.00  0.00    +0.029 C 
ATOM      6  C   UNL     1      35.051 -18.139 -22.563  0.00  0.00    +0.029 C 
ATOM      7  C   UNL     1      34.925 -18.388 -23.929  0.00  0.00    +0.140 C 
ENDROOT
BRANCH   2   8
ATOM      8  C   UNL     1      34.412 -14.415 -22.422  0.00  0.00    -0.059 C 
BRANCH   8   9
ATOM      9  N   UNL     1      34.198 -13.399 -23.490  0.00  0.00    +0.383 N 
ATOM     10  H   UNL     1      34.013 -13.871 -24.375  0.00  0.00    -0.089 HD
ATOM     11  H   UNL     1      35.034 -12.821 -23.581  0.00  0.00    -0.089 HD
ATOM     12  H   UNL     1      33.402 -12.810 -23.245  0.00  0.00    -0.089 HD
ENDBRANCH   8   9
ENDBRANCH   2   8
TORSDOF 2
ENDMDL
MODEL 8
REMARK VINA RESULT:      -5.2     11.418     12.351
REMARK  Name = 448749
REMARK  2 active torsions:
REMARK  status: ('A' for Active; 'I' for Inactive)
REMARK    1  A    between atoms: C_2  and  C_8
REMARK    2  A    between atoms: C_8  and  N_9
REMARK                            x       y       z     vdW  Elec       q    Type
REMARK                         _______ _______ _______ _____ _____    ______ ____
ROOT
ATOM      1  F   UNL     1      35.339  -9.859 -25.208  0.00  0.00    -0.204 F 
ATOM      2  C   UNL     1      33.011  -8.213 -22.220  0.00  0.00    -0.044 C 
ATOM      3  C   UNL     1      34.083  -7.493 -22.746  0.00  0.00    -0.004 C 
ATOM      4  C   UNL     1      32.726  -9.491 -22.704  0.00  0.00    -0.004 C 
ATOM      5  C   UNL     1      34.870  -8.048 -23.755  0.00  0.00    +0.029 C 
ATOM      6  C   UNL     1      33.512 -10.046 -23.713  0.00  0.00    +0.029 C 
ATOM      7  C   UNL     1      34.584  -9.325 -24.238  0.00  0.00    +0.140 C 
ENDROOT
BRANCH   2   8
ATOM      8  C   UNL     1      32.170  -7.620 -21.142  0.00  0.00    -0.059 C 
BRANCH   8   9
ATOM      9  N   UNL     1      32.792  -7.707 -19.792  0.00  0.00    +0.383 N 
ATOM     10  H   UNL     1      32.651  -8.643 -19.412  0.00  0.00    -0.089 HD
ATOM     11  H   UNL     1      32.359  -7.020 -19.173  0.00  0.00    -0.089 HD
ATOM     12  H   UNL     1      33.791  -7.515 -19.864  0.00  0.00    -0.089 HD
ENDBRANCH   8   9
ENDBRANCH   2   8
TORSDOF 2
ENDMDL
MODEL 9
REMARK VINA RESULT:      -5.2     13.255     13.903
REMARK  Name = 448749
REMARK  2 active torsions:
REMARK  status: ('A' for Active; 'I' for Inactive)
REMARK    1  A    between atoms: C_2  and  C_8
REMARK    2  A    between atoms: C_8  and  N_9
REMARK                            x       y       z     vdW  Elec       q    Type
REMARK                         _______ _______ _______ _____ _____    ______ ____
ROOT
ATOM      1  F   UNL     1      34.751  -6.334 -25.899  0.00  0.00    -0.204 F 
ATOM      2  C   UNL     1      32.816  -7.146 -22.342  0.00  0.00    -0.044 C 
ATOM      3  C   UNL     1      34.073  -7.697 -22.595  0.00  0.00    -0.004 C 
ATOM      4  C   UNL     1      32.213  -6.321 -23.292  0.00  0.00    -0.004 C 
ATOM      5  C   UNL     1      34.726  -7.423 -23.796  0.00  0.00    +0.029 C 
ATOM      6  C   UNL     1      32.866  -6.047 -24.494  0.00  0.00    +0.029 C 
ATOM      7  C   UNL     1      34.123  -6.598 -24.745  0.00  0.00    +0.140 C 
ENDROOT
BRANCH   2   8
ATOM      8  C   UNL     1      32.118  -7.439 -21.058  0.00  0.00    -0.059 C 
BRANCH   8   9
ATOM      9  N   UNL     1      33.048  -7.669 -19.918  0.00  0.00    +0.383 N 
ATOM     10  H   UNL     1      33.992  -7.817 -20.274  0.00  0.00    -0.089 HD
ATOM     11  H   UNL     1      32.747  -8.493 -19.396  0.00  0.00    -0.089 HD
ATOM     12  H   UNL     1      33.038  -6.855 -19.302  0.00  0.00    -0.089 HD
ENDBRANCH   8   9
ENDBRANCH   2   8
TORSDOF 2
ENDMDL
