MODEL 1
REMARK VINA RESULT:      -6.9      0.000      0.000
REMARK  Name = 126690
REMARK  8 active torsions:
REMARK  status: ('A' for Active; 'I' for Inactive)
REMARK    1  A    between atoms: C_1  and  N_18
REMARK    2  A    between atoms: C_2  and  N_14
REMARK    3  A    between atoms: C_4  and  C_9
REMARK    4  A    between atoms: C_5  and  N_17
REMARK    5  A    between atoms: N_18  and  C_19
REMARK    6  A    between atoms: N_18  and  C_22
REMARK    7  A    between atoms: C_19  and  C_21
REMARK    8  A    between atoms: C_22  and  C_24
REMARK                            x       y       z     vdW  Elec       q    Type
REMARK                         _______ _______ _______ _____ _____    ______ ____
ROOT
ATOM      1  C   UNL     1      33.567 -23.430 -15.735  0.00  0.00    +0.071 C 
ATOM      2  C   UNL     1      32.826 -23.169 -16.887  0.00  0.00    +0.158 C 
ATOM      3  C   UNL     1      32.917 -23.622 -14.516  0.00  0.00    +0.022 C 
ATOM      4  C   UNL     1      31.526 -23.551 -14.448  0.00  0.00    +0.077 C 
ATOM      5  C   UNL     1      30.785 -23.289 -15.600  0.00  0.00    +0.149 C 
ATOM      6  C   UNL     1      31.434 -23.097 -16.820  0.00  0.00    +0.050 C 
ENDROOT
BRANCH   4   9
ATOM      7  O   UNL     1      30.956 -22.915 -12.253  0.00  0.00    -0.270 OA
ATOM      8  N   UNL     1      30.164 -24.940 -12.982  0.00  0.00    -0.325 N 
ATOM      9  C   UNL     1      30.882 -23.763 -13.158  0.00  0.00    +0.244 C 
ATOM     10  H   UNL     1      29.714 -25.120 -12.125  0.00  0.00    +0.145 HD
ATOM     11  H   UNL     1      30.106 -25.595 -13.716  0.00  0.00    +0.145 HD
ENDBRANCH   4   9
BRANCH   2  14
ATOM     12  O   UNL     1      33.848 -23.972 -18.792  0.00  0.00    -0.126 OA
ATOM     13  O   UNL     1      33.623 -21.800 -18.563  0.00  0.00    -0.126 OA
ATOM     14  N   UNL     1      33.464 -22.971 -18.144  0.00  0.00    +0.059 N 
ENDBRANCH   2  14
BRANCH   5  17
ATOM     15  O   UNL     1      28.820 -22.100 -15.393  0.00  0.00    -0.126 OA
ATOM     16  O   UNL     1      28.701 -24.272 -15.689  0.00  0.00    -0.126 OA
ATOM     17  N   UNL     1      29.364 -23.216 -15.559  0.00  0.00    +0.058 N 
ENDBRANCH   5  17
BRANCH   1  18
ATOM     18  N   UNL     1      34.978 -23.509 -15.777  0.00  0.00    -0.304 N 
BRANCH  18  19
ATOM     19  C   UNL     1      35.636 -24.797 -15.837  0.00  0.00    +0.108 C 
BRANCH  19  21
ATOM     20 CL   UNL     1      37.276 -26.589 -14.587  0.00  0.00    -0.112 Cl
ATOM     21  C   UNL     1      36.160 -25.206 -14.469  0.00  0.00    +0.116 C 
ENDBRANCH  19  21
ENDBRANCH  18  19
BRANCH  18  22
ATOM     22  C   UNL     1      35.780 -22.303 -15.748  0.00  0.00    +0.108 C 
BRANCH  22  24
ATOM     23 CL   UNL     1      36.801 -21.618 -18.187  0.00  0.00    -0.112 Cl
ATOM     24  C   UNL     1      37.013 -22.447 -16.624  0.00  0.00    +0.116 C 
ENDBRANCH  22  24
ENDBRANCH  18  22
ENDBRANCH   1  18
TORSDOF 8
ENDMDL
MODEL 2
REMARK VINA RESULT:      -6.8      0.029      2.384
REMARK  Name = 126690
REMARK  8 active torsions:
REMARK  status: ('A' for Active; 'I' for Inactive)
REMARK    1  A    between atoms: C_1  and  N_18
REMARK    2  A    between atoms: C_2  and  N_14
REMARK    3  A    between atoms: C_4  and  C_9
REMARK    4  A    between atoms: C_5  and  N_17
REMARK    5  A    between atoms: N_18  and  C_19
REMARK    6  A    between atoms: N_18  and  C_22
REMARK    7  A    between atoms: C_19  and  C_21
REMARK    8  A    between atoms: C_22  and  C_24
REMARK                            x       y       z     vdW  Elec       q    Type
REMARK                         _______ _______ _______ _____ _____    ______ ____
ROOT
ATOM      1  C   UNL     1      33.559 -23.418 -15.739  0.00  0.00    +0.071 C 
ATOM      2  C   UNL     1      32.817 -23.159 -16.891  0.00  0.00    +0.158 C 
ATOM      3  C   UNL     1      32.910 -23.613 -14.520  0.00  0.00    +0.022 C 
ATOM      4  C   UNL     1      31.519 -23.547 -14.452  0.00  0.00    +0.077 C 
ATOM      5  C   UNL     1      30.776 -23.287 -15.604  0.00  0.00    +0.149 C 
ATOM      6  C   UNL     1      31.425 -23.093 -16.823  0.00  0.00    +0.050 C 
ENDROOT
BRANCH   4   9
ATOM      7  O   UNL     1      30.945 -22.913 -12.257  0.00  0.00    -0.270 OA
ATOM      8  N   UNL     1      30.166 -24.943 -12.985  0.00  0.00    -0.325 N 
ATOM      9  C   UNL     1      30.876 -23.762 -13.161  0.00  0.00    +0.244 C 
ATOM     10  H   UNL     1      29.717 -25.125 -12.128  0.00  0.00    +0.145 HD
ATOM     11  H   UNL     1      30.111 -25.599 -13.718  0.00  0.00    +0.145 HD
ENDBRANCH   4   9
BRANCH   2  14
ATOM     12  O   UNL     1      33.588 -21.789 -18.579  0.00  0.00    -0.126 OA
ATOM     13  O   UNL     1      33.860 -23.958 -18.786  0.00  0.00    -0.126 OA
ATOM     14  N   UNL     1      33.454 -22.958 -18.148  0.00  0.00    +0.059 N 
ENDBRANCH   2  14
BRANCH   5  17
ATOM     15  O   UNL     1      28.807 -22.106 -15.396  0.00  0.00    -0.126 OA
ATOM     16  O   UNL     1      28.696 -24.278 -15.692  0.00  0.00    -0.126 OA
ATOM     17  N   UNL     1      29.356 -23.220 -15.562  0.00  0.00    +0.058 N 
ENDBRANCH   5  17
BRANCH   1  18
ATOM     18  N   UNL     1      34.970 -23.491 -15.782  0.00  0.00    -0.304 N 
BRANCH  18  19
ATOM     19  C   UNL     1      35.765 -22.281 -15.777  0.00  0.00    +0.108 C 
BRANCH  19  21
ATOM     20 CL   UNL     1      36.768 -21.560 -18.213  0.00  0.00    -0.112 Cl
ATOM     21  C   UNL     1      36.986 -22.426 -16.672  0.00  0.00    +0.116 C 
ENDBRANCH  19  21
ENDBRANCH  18  19
BRANCH  18  22
ATOM     22  C   UNL     1      35.635 -24.776 -15.846  0.00  0.00    +0.108 C 
BRANCH  22  24
ATOM     23 CL   UNL     1      37.226 -26.607 -14.590  0.00  0.00    -0.112 Cl
ATOM     24  C   UNL     1      36.148 -25.193 -14.478  0.00  0.00    +0.116 C 
ENDBRANCH  22  24
ENDBRANCH  18  22
ENDBRANCH   1  18
TORSDOF 8
ENDMDL
MODEL 3
REMARK VINA RESULT:      -6.7      1.877      2.239
REMARK  Name = 126690
REMARK  8 active torsions:
REMARK  status: ('A' for Active; 'I' for Inactive)
REMARK    1  A    between atoms: C_1  and  N_18
REMARK    2  A    between atoms: C_2  and  N_14
REMARK    3  A    between atoms: C_4  and  C_9
REMARK    4  A    between atoms: C_5  and  N_17
REMARK    5  A    between atoms: N_18  and  C_19
REMARK    6  A    between atoms: N_18  and  C_22
REMARK    7  A    between atoms: C_19  and  C_21
REMARK    8  A    between atoms: C_22  and  C_24
REMARK                            x       y       z     vdW  Elec       q    Type
REMARK                         _______ _______ _______ _____ _____    ______ ____
ROOT
ATOM      1  C   UNL     1      33.826 -23.992 -15.101  0.00  0.00    +0.071 C 
ATOM      2  C   UNL     1      33.513 -23.359 -16.304  0.00  0.00    +0.158 C 
ATOM      3  C   UNL     1      32.806 -24.384 -14.233  0.00  0.00    +0.022 C 
ATOM      4  C   UNL     1      31.475 -24.142 -14.567  0.00  0.00    +0.077 C 
ATOM      5  C   UNL     1      31.161 -23.507 -15.770  0.00  0.00    +0.149 C 
ATOM      6  C   UNL     1      32.181 -23.116 -16.638  0.00  0.00    +0.050 C 
ENDROOT
BRANCH   4   9
ATOM      7  O   UNL     1      30.415 -24.168 -12.463  0.00  0.00    -0.270 OA
ATOM      8  N   UNL     1      29.458 -25.432 -14.119  0.00  0.00    -0.325 N 
ATOM      9  C   UNL     1      30.436 -24.570 -13.638  0.00  0.00    +0.244 C 
ATOM     10  H   UNL     1      28.739 -25.744 -13.523  0.00  0.00    +0.145 HD
ATOM     11  H   UNL     1      29.483 -25.731 -15.057  0.00  0.00    +0.145 HD
ENDBRANCH   4   9
BRANCH   2  14
ATOM     12  O   UNL     1      35.497 -22.280 -16.770  0.00  0.00    -0.126 OA
ATOM     13  O   UNL     1      34.437 -23.276 -18.415  0.00  0.00    -0.126 OA
ATOM     14  N   UNL     1      34.534 -22.951 -17.208  0.00  0.00    +0.059 N 
ENDBRANCH   2  14
BRANCH   5  17
ATOM     15  O   UNL     1      29.172 -24.139 -16.750  0.00  0.00    -0.126 OA
ATOM     16  O   UNL     1      29.300 -22.149 -15.833  0.00  0.00    -0.126 OA
ATOM     17  N   UNL     1      29.811 -23.253 -16.136  0.00  0.00    +0.058 N 
ENDBRANCH   5  17
BRANCH   1  18
ATOM     18  N   UNL     1      35.167 -24.252 -14.741  0.00  0.00    -0.304 N 
BRANCH  18  19
ATOM     19  C   UNL     1      35.805 -25.491 -15.137  0.00  0.00    +0.108 C 
BRANCH  19  21
ATOM     20 CL   UNL     1      37.946 -26.264 -13.627  0.00  0.00    -0.112 Cl
ATOM     21  C   UNL     1      37.318 -25.380 -15.041  0.00  0.00    +0.116 C 
ENDBRANCH  19  21
ENDBRANCH  18  19
BRANCH  18  22
ATOM     22  C   UNL     1      35.916 -23.287 -13.961  0.00  0.00    +0.108 C 
BRANCH  22  24
ATOM     23 CL   UNL     1      37.273 -23.073 -11.600  0.00  0.00    -0.112 Cl
ATOM     24  C   UNL     1      35.808 -23.586 -12.475  0.00  0.00    +0.116 C 
ENDBRANCH  22  24
ENDBRANCH  18  22
ENDBRANCH   1  18
TORSDOF 8
ENDMDL
MODEL 4
REMARK VINA RESULT:      -6.6      1.869      2.338
REMARK  Name = 126690
REMARK  8 active torsions:
REMARK  status: ('A' for Active; 'I' for Inactive)
REMARK    1  A    between atoms: C_1  and  N_18
REMARK    2  A    between atoms: C_2  and  N_14
REMARK    3  A    between atoms: C_4  and  C_9
REMARK    4  A    between atoms: C_5  and  N_17
REMARK    5  A    between atoms: N_18  and  C_19
REMARK    6  A    between atoms: N_18  and  C_22
REMARK    7  A    between atoms: C_19  and  C_21
REMARK    8  A    between atoms: C_22  and  C_24
REMARK                            x       y       z     vdW  Elec       q    Type
REMARK                         _______ _______ _______ _____ _____    ______ ____
ROOT
ATOM      1  C   UNL     1      33.881 -23.972 -15.094  0.00  0.00    +0.071 C 
ATOM      2  C   UNL     1      33.571 -23.349 -16.303  0.00  0.00    +0.158 C 
ATOM      3  C   UNL     1      32.860 -24.369 -14.231  0.00  0.00    +0.022 C 
ATOM      4  C   UNL     1      31.529 -24.141 -14.576  0.00  0.00    +0.077 C 
ATOM      5  C   UNL     1      31.217 -23.517 -15.784  0.00  0.00    +0.149 C 
ATOM      6  C   UNL     1      32.239 -23.121 -16.648  0.00  0.00    +0.050 C 
ENDROOT
BRANCH   4   9
ATOM      7  O   UNL     1      30.442 -24.147 -12.486  0.00  0.00    -0.270 OA
ATOM      8  N   UNL     1      29.537 -25.470 -14.126  0.00  0.00    -0.325 N 
ATOM      9  C   UNL     1      30.488 -24.575 -13.651  0.00  0.00    +0.244 C 
ATOM     10  H   UNL     1      28.819 -25.786 -13.532  0.00  0.00    +0.145 HD
ATOM     11  H   UNL     1      29.582 -25.788 -15.057  0.00  0.00    +0.145 HD
ENDBRANCH   4   9
BRANCH   2  14
ATOM     12  O   UNL     1      34.489 -23.231 -18.416  0.00  0.00    -0.126 OA
ATOM     13  O   UNL     1      35.569 -22.289 -16.752  0.00  0.00    -0.126 OA
ATOM     14  N   UNL     1      34.594 -22.936 -17.203  0.00  0.00    +0.059 N 
ENDBRANCH   2  14
BRANCH   5  17
ATOM     15  O   UNL     1      29.341 -22.179 -15.865  0.00  0.00    -0.126 OA
ATOM     16  O   UNL     1      29.243 -24.174 -16.776  0.00  0.00    -0.126 OA
ATOM     17  N   UNL     1      29.867 -23.278 -16.161  0.00  0.00    +0.058 N 
ENDBRANCH   5  17
BRANCH   1  18
ATOM     18  N   UNL     1      35.223 -24.215 -14.723  0.00  0.00    -0.304 N 
BRANCH  18  19
ATOM     19  C   UNL     1      35.959 -23.233 -13.954  0.00  0.00    +0.108 C 
BRANCH  19  21
ATOM     20 CL   UNL     1      37.426 -23.199 -11.650  0.00  0.00    -0.112 Cl
ATOM     21  C   UNL     1      35.878 -23.534 -12.466  0.00  0.00    +0.116 C 
ENDBRANCH  19  21
ENDBRANCH  18  19
BRANCH  18  22
ATOM     22  C   UNL     1      35.881 -25.444 -15.118  0.00  0.00    +0.108 C 
BRANCH  22  24
ATOM     23 CL   UNL     1      38.084 -26.185 -13.683  0.00  0.00    -0.112 Cl
ATOM     24  C   UNL     1      37.392 -25.296 -15.064  0.00  0.00    +0.116 C 
ENDBRANCH  22  24
ENDBRANCH  18  22
ENDBRANCH   1  18
TORSDOF 8
ENDMDL
MODEL 5
REMARK VINA RESULT:      -6.6      3.591      5.732
REMARK  Name = 126690
REMARK  8 active torsions:
REMARK  status: ('A' for Active; 'I' for Inactive)
REMARK    1  A    between atoms: C_1  and  N_18
REMARK    2  A    between atoms: C_2  and  N_14
REMARK    3  A    between atoms: C_4  and  C_9
REMARK    4  A    between atoms: C_5  and  N_17
REMARK    5  A    between atoms: N_18  and  C_19
REMARK    6  A    between atoms: N_18  and  C_22
REMARK    7  A    between atoms: C_19  and  C_21
REMARK    8  A    between atoms: C_22  and  C_24
REMARK                            x       y       z     vdW  Elec       q    Type
REMARK                         _______ _______ _______ _____ _____    ______ ____
ROOT
ATOM      1  C   UNL     1      35.393 -23.318 -16.054  0.00  0.00    +0.071 C 
ATOM      2  C   UNL     1      36.636 -22.706 -16.210  0.00  0.00    +0.158 C 
ATOM      3  C   UNL     1      34.419 -23.183 -17.044  0.00  0.00    +0.022 C 
ATOM      4  C   UNL     1      34.688 -22.433 -18.188  0.00  0.00    +0.077 C 
ATOM      5  C   UNL     1      35.931 -21.819 -18.344  0.00  0.00    +0.149 C 
ATOM      6  C   UNL     1      36.905 -21.956 -17.355  0.00  0.00    +0.050 C 
ENDROOT
BRANCH   4   9
ATOM      7  O   UNL     1      33.518 -23.174 -20.094  0.00  0.00    -0.270 OA
ATOM      8  N   UNL     1      32.793 -21.225 -19.128  0.00  0.00    -0.325 N 
ATOM      9  C   UNL     1      33.648 -22.318 -19.203  0.00  0.00    +0.244 C 
ATOM     10  H   UNL     1      32.078 -21.112 -19.795  0.00  0.00    +0.145 HD
ATOM     11  H   UNL     1      32.902 -20.563 -18.407  0.00  0.00    +0.145 HD
ENDBRANCH   4   9
BRANCH   2  14
ATOM     12  O   UNL     1      37.473 -22.284 -14.103  0.00  0.00    -0.126 OA
ATOM     13  O   UNL     1      38.683 -23.485 -15.487  0.00  0.00    -0.126 OA
ATOM     14  N   UNL     1      37.648 -22.831 -15.216  0.00  0.00    +0.059 N 
ENDBRANCH   2  14
BRANCH   5  17
ATOM     15  O   UNL     1      37.127 -21.459 -20.283  0.00  0.00    -0.126 OA
ATOM     16  O   UNL     1      35.593 -19.996 -19.713  0.00  0.00    -0.126 OA
ATOM     17  N   UNL     1      36.232 -21.054 -19.504  0.00  0.00    +0.058 N 
ENDBRANCH   5  17
BRANCH   1  18
ATOM     18  N   UNL     1      35.096 -24.085 -14.904  0.00  0.00    -0.304 N 
BRANCH  18  19
ATOM     19  C   UNL     1      35.752 -25.358 -14.686  0.00  0.00    +0.108 C 
BRANCH  19  21
ATOM     20 CL   UNL     1      38.006 -26.032 -13.297  0.00  0.00    -0.112 Cl
ATOM     21  C   UNL     1      36.325 -25.442 -13.280  0.00  0.00    +0.116 C 
ENDBRANCH  19  21
ENDBRANCH  18  19
BRANCH  18  22
ATOM     22  C   UNL     1      34.126 -23.612 -13.939  0.00  0.00    +0.108 C 
BRANCH  22  24
ATOM     23 CL   UNL     1      31.543 -23.462 -14.816  0.00  0.00    -0.112 Cl
ATOM     24  C   UNL     1      32.834 -24.407 -14.031  0.00  0.00    +0.116 C 
ENDBRANCH  22  24
ENDBRANCH  18  22
ENDBRANCH   1  18
TORSDOF 8
ENDMDL
MODEL 6
REMARK VINA RESULT:      -6.5     10.304     12.541
REMARK  Name = 126690
REMARK  8 active torsions:
REMARK  status: ('A' for Active; 'I' for Inactive)
REMARK    1  A    between atoms: C_1  and  N_18
REMARK    2  A    between atoms: C_2  and  N_14
REMARK    3  A    between atoms: C_4  and  C_9
REMARK    4  A    between atoms: C_5  and  N_17
REMARK    5  A    between atoms: N_18  and  C_19
REMARK    6  A    between atoms: N_18  and  C_22
REMARK    7  A    between atoms: C_19  and  C_21
REMARK    8  A    between atoms: C_22  and  C_24
REMARK                            x       y       z     vdW  Elec       q    Type
REMARK                         _______ _______ _______ _____ _____    ______ ____
ROOT
ATOM      1  C   UNL     1      33.742 -14.372 -23.557  0.00  0.00    +0.071 C 
ATOM      2  C   UNL     1      33.741 -15.213 -24.669  0.00  0.00    +0.158 C 
ATOM      3  C   UNL     1      34.165 -14.853 -22.318  0.00  0.00    +0.022 C 
ATOM      4  C   UNL     1      34.586 -16.176 -22.190  0.00  0.00    +0.077 C 
ATOM      5  C   UNL     1      34.584 -17.018 -23.302  0.00  0.00    +0.149 C 
ATOM      6  C   UNL     1      34.162 -16.537 -24.542  0.00  0.00    +0.050 C 
ENDROOT
BRANCH   4   9
ATOM      7  O   UNL     1      34.985 -15.901 -19.885  0.00  0.00    -0.270 OA
ATOM      8  N   UNL     1      35.477 -17.953 -20.782  0.00  0.00    -0.325 N 
ATOM      9  C   UNL     1      35.026 -16.642 -20.881  0.00  0.00    +0.244 C 
ATOM     10  H   UNL     1      35.782 -18.305 -19.915  0.00  0.00    +0.145 HD
ATOM     11  H   UNL     1      35.490 -18.530 -21.580  0.00  0.00    +0.145 HD
ENDBRANCH   4   9
BRANCH   2  14
ATOM     12  O   UNL     1      32.107 -14.463 -26.114  0.00  0.00    -0.126 OA
ATOM     13  O   UNL     1      34.165 -14.634 -26.860  0.00  0.00    -0.126 OA
ATOM     14  N   UNL     1      33.316 -14.746 -25.945  0.00  0.00    +0.059 N 
ENDBRANCH   2  14
BRANCH   5  17
ATOM     15  O   UNL     1      36.221 -18.639 -23.398  0.00  0.00    -0.126 OA
ATOM     16  O   UNL     1      34.170 -19.253 -22.915  0.00  0.00    -0.126 OA
ATOM     17  N   UNL     1      35.014 -18.371 -23.200  0.00  0.00    +0.058 N 
ENDBRANCH   5  17
BRANCH   1  18
ATOM     18  N   UNL     1      33.322 -13.026 -23.660  0.00  0.00    -0.304 N 
BRANCH  18  19
ATOM     19  C   UNL     1      34.262 -11.994 -24.046  0.00  0.00    +0.108 C 
BRANCH  19  21
ATOM     20 CL   UNL     1      35.301 -10.620 -26.166  0.00  0.00    -0.112 Cl
ATOM     21  C   UNL     1      33.897 -11.403 -25.399  0.00  0.00    +0.116 C 
ENDBRANCH  19  21
ENDBRANCH  18  19
BRANCH  18  22
ATOM     22  C   UNL     1      31.950 -12.662 -23.369  0.00  0.00    +0.108 C 
BRANCH  22  24
ATOM     23 CL   UNL     1      31.923 -12.486 -20.643  0.00  0.00    -0.112 Cl
ATOM     24  C   UNL     1      31.882 -11.665 -22.224  0.00  0.00    +0.116 C 
ENDBRANCH  22  24
ENDBRANCH  18  22
ENDBRANCH   1  18
TORSDOF 8
ENDMDL
MODEL 7
REMARK VINA RESULT:      -6.5     10.357     12.460
REMARK  Name = 126690
REMARK  8 active torsions:
REMARK  status: ('A' for Active; 'I' for Inactive)
REMARK    1  A    between atoms: C_1  and  N_18
REMARK    2  A    between atoms: C_2  and  N_14
REMARK    3  A    between atoms: C_4  and  C_9
REMARK    4  A    between atoms: C_5  and  N_17
REMARK    5  A    between atoms: N_18  and  C_19
REMARK    6  A    between atoms: N_18  and  C_22
REMARK    7  A    between atoms: C_19  and  C_21
REMARK    8  A    between atoms: C_22  and  C_24
REMARK                            x       y       z     vdW  Elec       q    Type
REMARK                         _______ _______ _______ _____ _____    ______ ____
ROOT
ATOM      1  C   UNL     1      33.702 -14.339 -23.580  0.00  0.00    +0.071 C 
ATOM      2  C   UNL     1      33.705 -15.188 -24.687  0.00  0.00    +0.158 C 
ATOM      3  C   UNL     1      34.134 -14.808 -22.340  0.00  0.00    +0.022 C 
ATOM      4  C   UNL     1      34.568 -16.126 -22.205  0.00  0.00    +0.077 C 
ATOM      5  C   UNL     1      34.570 -16.976 -23.311  0.00  0.00    +0.149 C 
ATOM      6  C   UNL     1      34.138 -16.507 -24.552  0.00  0.00    +0.050 C 
ENDROOT
BRANCH   4   9
ATOM      7  O   UNL     1      34.966 -15.834 -19.902  0.00  0.00    -0.270 OA
ATOM      8  N   UNL     1      35.489 -17.882 -20.791  0.00  0.00    -0.325 N 
ATOM      9  C   UNL     1      35.017 -16.579 -20.894  0.00  0.00    +0.244 C 
ATOM     10  H   UNL     1      35.801 -18.225 -19.922  0.00  0.00    +0.145 HD
ATOM     11  H   UNL     1      35.510 -18.463 -21.586  0.00  0.00    +0.145 HD
ENDBRANCH   4   9
BRANCH   2  14
ATOM     12  O   UNL     1      32.067 -14.421 -26.119  0.00  0.00    -0.126 OA
ATOM     13  O   UNL     1      34.107 -14.662 -26.896  0.00  0.00    -0.126 OA
ATOM     14  N   UNL     1      33.271 -14.734 -25.964  0.00  0.00    +0.059 N 
ENDBRANCH   2  14
BRANCH   5  17
ATOM     15  O   UNL     1      36.220 -18.584 -23.408  0.00  0.00    -0.126 OA
ATOM     16  O   UNL     1      34.178 -19.211 -22.901  0.00  0.00    -0.126 OA
ATOM     17  N   UNL     1      35.012 -18.324 -23.201  0.00  0.00    +0.058 N 
ENDBRANCH   5  17
BRANCH   1  18
ATOM     18  N   UNL     1      33.269 -12.998 -23.691  0.00  0.00    -0.304 N 
BRANCH  18  19
ATOM     19  C   UNL     1      31.981 -12.599 -23.163  0.00  0.00    +0.108 C 
BRANCH  19  21
ATOM     20 CL   UNL     1      30.848 -11.348 -21.015  0.00  0.00    -0.112 Cl
ATOM     21  C   UNL     1      32.008 -12.544 -21.643  0.00  0.00    +0.116 C 
ENDBRANCH  19  21
ENDBRANCH  18  19
BRANCH  18  22
ATOM     22  C   UNL     1      34.103 -12.011 -24.345  0.00  0.00    +0.108 C 
BRANCH  22  24
ATOM     23 CL   UNL     1      34.969  -9.420 -24.298  0.00  0.00    -0.112 Cl
ATOM     24  C   UNL     1      33.675 -10.601 -23.973  0.00  0.00    +0.116 C 
ENDBRANCH  22  24
ENDBRANCH  18  22
ENDBRANCH   1  18
TORSDOF 8
ENDMDL
MODEL 8
REMARK VINA RESULT:      -6.4      2.483      4.404
REMARK  Name = 126690
REMARK  8 active torsions:
REMARK  status: ('A' for Active; 'I' for Inactive)
REMARK    1  A    between atoms: C_1  and  N_18
REMARK    2  A    between atoms: C_2  and  N_14
REMARK    3  A    between atoms: C_4  and  C_9
REMARK    4  A    between atoms: C_5  and  N_17
REMARK    5  A    between atoms: N_18  and  C_19
REMARK    6  A    between atoms: N_18  and  C_22
REMARK    7  A    between atoms: C_19  and  C_21
REMARK    8  A    between atoms: C_22  and  C_24
REMARK                            x       y       z     vdW  Elec       q    Type
REMARK                         _______ _______ _______ _____ _____    ______ ____
ROOT
ATOM      1  C   UNL     1      35.341 -23.995 -14.446  0.00  0.00    +0.071 C 
ATOM      2  C   UNL     1      34.921 -24.106 -13.121  0.00  0.00    +0.158 C 
ATOM      3  C   UNL     1      34.403 -23.816 -15.463  0.00  0.00    +0.022 C 
ATOM      4  C   UNL     1      33.045 -23.749 -15.155  0.00  0.00    +0.077 C 
ATOM      5  C   UNL     1      32.624 -23.861 -13.830  0.00  0.00    +0.149 C 
ATOM      6  C   UNL     1      33.562 -24.040 -12.813  0.00  0.00    +0.050 C 
ENDROOT
BRANCH   4   9
ATOM      7  O   UNL     1      32.377 -22.856 -17.230  0.00  0.00    -0.270 OA
ATOM      8  N   UNL     1      30.866 -24.199 -16.147  0.00  0.00    -0.325 N 
ATOM      9  C   UNL     1      32.094 -23.556 -16.243  0.00  0.00    +0.244 C 
ATOM     10  H   UNL     1      30.197 -24.093 -16.862  0.00  0.00    +0.145 HD
ATOM     11  H   UNL     1      30.664 -24.761 -15.364  0.00  0.00    +0.145 HD
ENDBRANCH   4   9
BRANCH   2  14
ATOM     12  O   UNL     1      36.430 -23.282 -11.584  0.00  0.00    -0.126 OA
ATOM     13  O   UNL     1      36.081 -25.449 -11.648  0.00  0.00    -0.126 OA
ATOM     14  N   UNL     1      35.858 -24.287 -12.065  0.00  0.00    +0.059 N 
ENDBRANCH   2  14
BRANCH   5  17
ATOM     15  O   UNL     1      30.627 -22.718 -13.679  0.00  0.00    -0.126 OA
ATOM     16  O   UNL     1      30.689 -24.806 -13.007  0.00  0.00    -0.126 OA
ATOM     17  N   UNL     1      31.245 -23.792 -13.488  0.00  0.00    +0.058 N 
ENDBRANCH   5  17
BRANCH   1  18
ATOM     18  N   UNL     1      36.712 -24.057 -14.785  0.00  0.00    -0.304 N 
BRANCH  18  19
ATOM     19  C   UNL     1      37.480 -22.841 -14.951  0.00  0.00    +0.108 C 
BRANCH  19  21
ATOM     20 CL   UNL     1      36.718 -21.677 -17.303  0.00  0.00    -0.112 Cl
ATOM     21  C   UNL     1      37.901 -22.656 -16.401  0.00  0.00    +0.116 C 
ENDBRANCH  19  21
ENDBRANCH  18  19
BRANCH  18  22
ATOM     22  C   UNL     1      37.360 -25.338 -14.980  0.00  0.00    +0.108 C 
BRANCH  22  24
ATOM     23 CL   UNL     1      40.086 -25.426 -15.136  0.00  0.00    -0.112 Cl
ATOM     24  C   UNL     1      38.615 -25.449 -14.131  0.00  0.00    +0.116 C 
ENDBRANCH  22  24
ENDBRANCH  18  22
ENDBRANCH   1  18
TORSDOF 8
ENDMDL
MODEL 9
REMARK VINA RESULT:      -6.4      2.497      3.861
REMARK  Name = 126690
REMARK  8 active torsions:
REMARK  status: ('A' for Active; 'I' for Inactive)
REMARK    1  A    between atoms: C_1  and  N_18
REMARK    2  A    between atoms: C_2  and  N_14
REMARK    3  A    between atoms: C_4  and  C_9
REMARK    4  A    between atoms: C_5  and  N_17
REMARK    5  A    between atoms: N_18  and  C_19
REMARK    6  A    between atoms: N_18  and  C_22
REMARK    7  A    between atoms: C_19  and  C_21
REMARK    8  A    between atoms: C_22  and  C_24
REMARK                            x       y       z     vdW  Elec       q    Type
REMARK                         _______ _______ _______ _____ _____    ______ ____
ROOT
ATOM      1  C   UNL     1      35.379 -24.025 -14.456  0.00  0.00    +0.071 C 
ATOM      2  C   UNL     1      34.960 -24.128 -13.130  0.00  0.00    +0.158 C 
ATOM      3  C   UNL     1      34.441 -23.840 -15.472  0.00  0.00    +0.022 C 
ATOM      4  C   UNL     1      33.085 -23.760 -15.162  0.00  0.00    +0.077 C 
ATOM      5  C   UNL     1      32.665 -23.864 -13.836  0.00  0.00    +0.149 C 
ATOM      6  C   UNL     1      33.602 -24.048 -12.820  0.00  0.00    +0.050 C 
ENDROOT
BRANCH   4   9
ATOM      7  O   UNL     1      32.435 -22.897 -17.256  0.00  0.00    -0.270 OA
ATOM      8  N   UNL     1      30.884 -24.156 -16.130  0.00  0.00    -0.325 N 
ATOM      9  C   UNL     1      32.134 -23.561 -16.250  0.00  0.00    +0.244 C 
ATOM     10  H   UNL     1      30.215 -24.045 -16.844  0.00  0.00    +0.145 HD
ATOM     11  H   UNL     1      30.668 -24.690 -15.331  0.00  0.00    +0.145 HD
ENDBRANCH   4   9
BRANCH   2  14
ATOM     12  O   UNL     1      36.111 -25.476 -11.654  0.00  0.00    -0.126 OA
ATOM     13  O   UNL     1      36.477 -23.311 -11.598  0.00  0.00    -0.126 OA
ATOM     14  N   UNL     1      35.896 -24.315 -12.074  0.00  0.00    +0.059 N 
ENDBRANCH   2  14
BRANCH   5  17
ATOM     15  O   UNL     1      30.690 -22.688 -13.644  0.00  0.00    -0.126 OA
ATOM     16  O   UNL     1      30.710 -24.801 -13.051  0.00  0.00    -0.126 OA
ATOM     17  N   UNL     1      31.286 -23.780 -13.493  0.00  0.00    +0.058 N 
ENDBRANCH   5  17
BRANCH   1  18
ATOM     18  N   UNL     1      36.749 -24.102 -14.796  0.00  0.00    -0.304 N 
BRANCH  18  19
ATOM     19  C   UNL     1      37.384 -25.389 -14.989  0.00  0.00    +0.108 C 
BRANCH  19  21
ATOM     20 CL   UNL     1      40.111 -25.448 -15.131  0.00  0.00    -0.112 Cl
ATOM     21  C   UNL     1      38.636 -25.513 -14.135  0.00  0.00    +0.116 C 
ENDBRANCH  19  21
ENDBRANCH  18  19
BRANCH  18  22
ATOM     22  C   UNL     1      37.535 -22.894 -14.943  0.00  0.00    +0.108 C 
BRANCH  22  24
ATOM     23 CL   UNL     1      36.751 -21.580 -17.206  0.00  0.00    -0.112 Cl
ATOM     24  C   UNL     1      37.913 -22.662 -16.397  0.00  0.00    +0.116 C 
ENDBRANCH  22  24
ENDBRANCH  18  22
ENDBRANCH   1  18
TORSDOF 8
ENDMDL
