MODEL 1
REMARK VINA RESULT:      -9.0      0.000      0.000
REMARK  Name = 441080
REMARK  3 active torsions:
REMARK  status: ('A' for Active; 'I' for Inactive)
REMARK    1  A    between atoms: C_9  and  O_22
REMARK    2  A    between atoms: C_12  and  C_26
REMARK    3  A    between atoms: C_13  and  O_24
REMARK                            x       y       z     vdW  Elec       q    Type
REMARK                         _______ _______ _______ _____ _____    ______ ____
ROOT
ATOM      1  N   UNL     1      31.932  -7.983 -24.092  0.00  0.00    +0.408 N 
ATOM      2  N   UNL     1      33.443 -10.965 -24.242  0.00  0.00    -0.309 N 
ATOM      3  C   UNL     1      32.279 -10.226 -22.275  0.00  0.00    +0.057 C 
ATOM      4  C   UNL     1      31.746  -7.955 -21.603  0.00  0.00    +0.009 C 
ATOM      5  C   UNL     1      31.055  -8.350 -22.949  0.00  0.00    -0.052 C 
ATOM      6  C   UNL     1      33.337  -8.420 -23.804  0.00  0.00    -0.036 C 
ATOM      7  C   UNL     1      32.802  -6.857 -21.926  0.00  0.00    -0.001 C 
ATOM      8  C   UNL     1      33.438  -9.868 -23.261  0.00  0.00    +0.060 C 
ATOM      9  C   UNL     1      32.331  -9.295 -21.051  0.00  0.00    +0.114 C 
ATOM     10  C   UNL     1      30.934  -9.859 -22.909  0.00  0.00    -0.013 C 
ATOM     11  C   UNL     1      33.956  -7.475 -22.736  0.00  0.00    -0.019 C 
ATOM     12  C   UNL     1      32.196  -5.790 -22.883  0.00  0.00    +0.007 C 
ATOM     13  C   UNL     1      31.849  -6.501 -24.229  0.00  0.00    +0.059 C 
ATOM     14  C   UNL     1      32.452 -11.709 -22.253  0.00  0.00    -0.006 C 
ATOM     15  C   UNL     1      33.090 -12.089 -23.458  0.00  0.00    +0.044 C 
ATOM     16  C   UNL     1      32.038 -12.647 -21.325  0.00  0.00    -0.003 C 
ATOM     17  C   UNL     1      34.451 -11.085 -25.273  0.00  0.00    +0.112 C 
ATOM     18  C   UNL     1      33.299 -13.432 -23.736  0.00  0.00    +0.014 C 
ATOM     19  C   UNL     1      32.265 -13.995 -21.604  0.00  0.00    -0.000 C 
ATOM     20  C   UNL     1      32.887 -14.384 -22.800  0.00  0.00    +0.001 C 
ATOM     21  H   UNL     1      31.641  -8.437 -24.958  0.00  0.00    -0.076 HD
ENDROOT
BRANCH   9  22
ATOM     22  O   UNL     1      31.448  -9.744 -20.026  0.00  0.00    -0.384 OA
ATOM     23  H   UNL     1      30.748 -10.290 -20.418  0.00  0.00    +0.210 HD
ENDBRANCH   9  22
BRANCH  13  24
ATOM     24  O   UNL     1      32.700  -6.010 -25.268  0.00  0.00    -0.405 OA
ATOM     25  H   UNL     1      32.202  -5.963 -26.100  0.00  0.00    +0.208 HD
ENDBRANCH  13  24
BRANCH  12  26
ATOM     26  C   UNL     1      30.994  -5.066 -22.276  0.00  0.00    +0.000 C 
ATOM     27  C   UNL     1      30.856  -3.665 -22.835  0.00  0.00    +0.000 C 
ENDBRANCH  12  26
TORSDOF 3
ENDMDL
MODEL 2
REMARK VINA RESULT:      -8.6     14.890     18.191
REMARK  Name = 441080
REMARK  3 active torsions:
REMARK  status: ('A' for Active; 'I' for Inactive)
REMARK    1  A    between atoms: C_9  and  O_22
REMARK    2  A    between atoms: C_12  and  C_26
REMARK    3  A    between atoms: C_13  and  O_24
REMARK                            x       y       z     vdW  Elec       q    Type
REMARK                         _______ _______ _______ _____ _____    ______ ____
ROOT
ATOM      1  N   UNL     1      36.124 -25.809 -13.666  0.00  0.00    +0.408 N 
ATOM      2  N   UNL     1      33.251 -24.148 -14.094  0.00  0.00    -0.309 N 
ATOM      3  C   UNL     1      35.147 -23.800 -15.527  0.00  0.00    +0.057 C 
ATOM      4  C   UNL     1      37.487 -24.258 -15.069  0.00  0.00    +0.009 C 
ATOM      5  C   UNL     1      36.616 -25.556 -15.047  0.00  0.00    -0.052 C 
ATOM      6  C   UNL     1      35.598 -24.533 -13.082  0.00  0.00    -0.036 C 
ATOM      7  C   UNL     1      37.984 -24.005 -13.616  0.00  0.00    -0.001 C 
ATOM      8  C   UNL     1      34.667 -23.748 -14.041  0.00  0.00    +0.060 C 
ATOM      9  C   UNL     1      36.540 -23.157 -15.646  0.00  0.00    +0.114 C 
ATOM     10  C   UNL     1      35.422 -25.253 -15.928  0.00  0.00    -0.013 C 
ATOM     11  C   UNL     1      36.793 -23.604 -12.727  0.00  0.00    -0.019 C 
ATOM     12  C   UNL     1      38.500 -25.330 -12.984  0.00  0.00    +0.007 C 
ATOM     13  C   UNL     1      37.292 -26.314 -12.888  0.00  0.00    +0.059 C 
ATOM     14  C   UNL     1      33.899 -23.311 -16.184  0.00  0.00    -0.006 C 
ATOM     15  C   UNL     1      32.814 -23.593 -15.320  0.00  0.00    +0.044 C 
ATOM     16  C   UNL     1      33.705 -22.745 -17.432  0.00  0.00    -0.003 C 
ATOM     17  C   UNL     1      32.388 -24.117 -12.933  0.00  0.00    +0.112 C 
ATOM     18  C   UNL     1      31.517 -23.316 -15.725  0.00  0.00    +0.014 C 
ATOM     19  C   UNL     1      32.398 -22.454 -17.826  0.00  0.00    -0.000 C 
ATOM     20  C   UNL     1      31.314 -22.740 -16.982  0.00  0.00    +0.001 C 
ATOM     21  H   UNL     1      35.365 -26.490 -13.650  0.00  0.00    -0.076 HD
ENDROOT
BRANCH   9  22
ATOM     22  O   UNL     1      36.903 -22.969 -17.012  0.00  0.00    -0.384 OA
ATOM     23  H   UNL     1      37.553 -23.641 -17.270  0.00  0.00    +0.210 HD
ENDBRANCH   9  22
BRANCH  13  24
ATOM     24  O   UNL     1      36.962 -26.543 -11.516  0.00  0.00    -0.405 OA
ATOM     25  H   UNL     1      37.302 -25.813 -10.975  0.00  0.00    +0.208 HD
ENDBRANCH  13  24
BRANCH  12  26
ATOM     26  C   UNL     1      39.683 -25.927 -13.745  0.00  0.00    +0.000 C 
ATOM     27  C   UNL     1      40.628 -24.847 -14.232  0.00  0.00    +0.000 C 
ENDBRANCH  12  26
TORSDOF 3
ENDMDL
MODEL 3
REMARK VINA RESULT:      -7.3     14.637     17.111
REMARK  Name = 441080
REMARK  3 active torsions:
REMARK  status: ('A' for Active; 'I' for Inactive)
REMARK    1  A    between atoms: C_9  and  O_22
REMARK    2  A    between atoms: C_12  and  C_26
REMARK    3  A    between atoms: C_13  and  O_24
REMARK                            x       y       z     vdW  Elec       q    Type
REMARK                         _______ _______ _______ _____ _____    ______ ____
ROOT
ATOM      1  N   UNL     1      35.238 -22.745 -14.685  0.00  0.00    +0.408 N 
ATOM      2  N   UNL     1      32.679 -22.808 -16.840  0.00  0.00    -0.309 N 
ATOM      3  C   UNL     1      32.584 -23.931 -14.719  0.00  0.00    +0.057 C 
ATOM      4  C   UNL     1      34.426 -24.671 -13.321  0.00  0.00    +0.009 C 
ATOM      5  C   UNL     1      34.412 -23.119 -13.506  0.00  0.00    -0.052 C 
ATOM      6  C   UNL     1      34.907 -23.649 -15.834  0.00  0.00    -0.036 C 
ATOM      7  C   UNL     1      35.689 -25.216 -14.049  0.00  0.00    -0.001 C 
ATOM      8  C   UNL     1      33.384 -23.837 -16.058  0.00  0.00    +0.060 C 
ATOM      9  C   UNL     1      33.061 -25.152 -13.913  0.00  0.00    +0.114 C 
ATOM     10  C   UNL     1      32.970 -22.764 -13.806  0.00  0.00    -0.013 C 
ATOM     11  C   UNL     1      35.517 -25.054 -15.570  0.00  0.00    -0.019 C 
ATOM     12  C   UNL     1      36.928 -24.338 -13.711  0.00  0.00    +0.007 C 
ATOM     13  C   UNL     1      36.661 -22.905 -14.270  0.00  0.00    +0.059 C 
ATOM     14  C   UNL     1      31.209 -23.727 -15.264  0.00  0.00    -0.006 C 
ATOM     15  C   UNL     1      31.326 -23.014 -16.481  0.00  0.00    +0.044 C 
ATOM     16  C   UNL     1      29.975 -24.056 -14.732  0.00  0.00    -0.003 C 
ATOM     17  C   UNL     1      33.029 -22.494 -18.209  0.00  0.00    +0.112 C 
ATOM     18  C   UNL     1      30.185 -22.616 -17.162  0.00  0.00    +0.014 C 
ATOM     19  C   UNL     1      28.832 -23.666 -15.431  0.00  0.00    -0.000 C 
ATOM     20  C   UNL     1      28.936 -22.950 -16.633  0.00  0.00    +0.001 C 
ATOM     21  H   UNL     1      35.061 -21.787 -14.987  0.00  0.00    -0.076 HD
ENDROOT
BRANCH   9  22
ATOM     22  O   UNL     1      32.196 -25.409 -12.810  0.00  0.00    -0.384 OA
ATOM     23  H   UNL     1      32.581 -26.100 -12.249  0.00  0.00    +0.210 HD
ENDBRANCH   9  22
BRANCH  13  24
ATOM     24  O   UNL     1      37.566 -22.628 -15.343  0.00  0.00    -0.405 OA
ATOM     25  H   UNL     1      38.217 -21.968 -15.054  0.00  0.00    +0.208 HD
ENDBRANCH  13  24
BRANCH  12  26
ATOM     26  C   UNL     1      37.259 -24.331 -12.219  0.00  0.00    +0.000 C 
ATOM     27  C   UNL     1      37.570 -22.931 -11.729  0.00  0.00    +0.000 C 
ENDBRANCH  12  26
TORSDOF 3
ENDMDL
MODEL 4
REMARK VINA RESULT:      -7.0      4.373      8.872
REMARK  Name = 441080
REMARK  3 active torsions:
REMARK  status: ('A' for Active; 'I' for Inactive)
REMARK    1  A    between atoms: C_9  and  O_22
REMARK    2  A    between atoms: C_12  and  C_26
REMARK    3  A    between atoms: C_13  and  O_24
REMARK                            x       y       z     vdW  Elec       q    Type
REMARK                         _______ _______ _______ _____ _____    ______ ____
ROOT
ATOM      1  N   UNL     1      35.519 -16.728 -22.225  0.00  0.00    +0.408 N 
ATOM      2  N   UNL     1      34.007 -14.112 -23.662  0.00  0.00    -0.309 N 
ATOM      3  C   UNL     1      33.185 -15.098 -21.632  0.00  0.00    +0.057 C 
ATOM      4  C   UNL     1      33.579 -17.336 -20.776  0.00  0.00    +0.009 C 
ATOM      5  C   UNL     1      34.899 -16.507 -20.891  0.00  0.00    -0.052 C 
ATOM      6  C   UNL     1      34.466 -16.628 -23.287  0.00  0.00    -0.036 C 
ATOM      7  C   UNL     1      33.659 -18.487 -21.822  0.00  0.00    -0.001 C 
ATOM      8  C   UNL     1      33.535 -15.399 -23.125  0.00  0.00    +0.060 C 
ATOM      9  C   UNL     1      32.438 -16.297 -21.022  0.00  0.00    +0.114 C 
ATOM     10  C   UNL     1      34.471 -15.057 -20.801  0.00  0.00    -0.013 C 
ATOM     11  C   UNL     1      33.573 -17.899 -23.242  0.00  0.00    -0.019 C 
ATOM     12  C   UNL     1      35.060 -19.162 -21.774  0.00  0.00    +0.007 C 
ATOM     13  C   UNL     1      36.118 -18.093 -22.191  0.00  0.00    +0.059 C 
ATOM     14  C   UNL     1      32.636 -13.720 -21.802  0.00  0.00    -0.006 C 
ATOM     15  C   UNL     1      33.197 -13.172 -22.980  0.00  0.00    +0.044 C 
ATOM     16  C   UNL     1      31.795 -12.983 -20.988  0.00  0.00    -0.003 C 
ATOM     17  C   UNL     1      34.323 -13.919 -25.061  0.00  0.00    +0.112 C 
ATOM     18  C   UNL     1      32.919 -11.860 -23.334  0.00  0.00    +0.014 C 
ATOM     19  C   UNL     1      31.507 -11.669 -21.358  0.00  0.00    -0.000 C 
ATOM     20  C   UNL     1      32.066 -11.111 -22.518  0.00  0.00    +0.001 C 
ATOM     21  H   UNL     1      36.233 -16.031 -22.435  0.00  0.00    -0.076 HD
ENDROOT
BRANCH   9  22
ATOM     22  O   UNL     1      31.893 -15.967 -19.746  0.00  0.00    -0.384 OA
ATOM     23  H   UNL     1      32.262 -15.121 -19.445  0.00  0.00    +0.210 HD
ENDBRANCH   9  22
BRANCH  13  24
ATOM     24  O   UNL     1      36.701 -18.453 -23.446  0.00  0.00    -0.405 OA
ATOM     25  H   UNL     1      36.754 -19.419 -23.513  0.00  0.00    +0.208 HD
ENDBRANCH  13  24
BRANCH  12  26
ATOM     26  C   UNL     1      35.367 -19.792 -20.416  0.00  0.00    +0.000 C 
ATOM     27  C   UNL     1      34.312 -20.808 -20.028  0.00  0.00    +0.000 C 
ENDBRANCH  12  26
TORSDOF 3
ENDMDL
MODEL 5
REMARK VINA RESULT:      -6.7     15.224     16.980
REMARK  Name = 441080
REMARK  3 active torsions:
REMARK  status: ('A' for Active; 'I' for Inactive)
REMARK    1  A    between atoms: C_9  and  O_22
REMARK    2  A    between atoms: C_12  and  C_26
REMARK    3  A    between atoms: C_13  and  O_24
REMARK                            x       y       z     vdW  Elec       q    Type
REMARK                         _______ _______ _______ _____ _____    ______ ____
ROOT
ATOM      1  N   UNL     1      31.610 -23.433 -13.683  0.00  0.00    +0.408 N 
ATOM      2  N   UNL     1      34.902 -24.006 -13.857  0.00  0.00    -0.309 N 
ATOM      3  C   UNL     1      33.638 -23.259 -15.758  0.00  0.00    +0.057 C 
ATOM      4  C   UNL     1      31.250 -23.454 -16.153  0.00  0.00    +0.009 C 
ATOM      5  C   UNL     1      31.572 -22.578 -14.899  0.00  0.00    -0.052 C 
ATOM      6  C   UNL     1      32.406 -24.671 -13.967  0.00  0.00    -0.036 C 
ATOM      7  C   UNL     1      30.556 -24.753 -15.648  0.00  0.00    -0.001 C 
ATOM      8  C   UNL     1      33.750 -24.392 -14.689  0.00  0.00    +0.060 C 
ATOM      9  C   UNL     1      32.633 -23.670 -16.849  0.00  0.00    +0.114 C 
ATOM     10  C   UNL     1      32.964 -22.031 -15.138  0.00  0.00    -0.013 C 
ATOM     11  C   UNL     1      31.573 -25.615 -14.879  0.00  0.00    -0.019 C 
ATOM     12  C   UNL     1      29.472 -24.408 -14.588  0.00  0.00    +0.007 C 
ATOM     13  C   UNL     1      30.193 -23.769 -13.360  0.00  0.00    +0.059 C 
ATOM     14  C   UNL     1      35.094 -22.999 -15.964  0.00  0.00    -0.006 C 
ATOM     15  C   UNL     1      35.777 -23.406 -14.794  0.00  0.00    +0.044 C 
ATOM     16  C   UNL     1      35.758 -22.405 -17.022  0.00  0.00    -0.003 C 
ATOM     17  C   UNL     1      35.428 -24.855 -12.811  0.00  0.00    +0.112 C 
ATOM     18  C   UNL     1      37.144 -23.199 -14.683  0.00  0.00    +0.014 C 
ATOM     19  C   UNL     1      37.136 -22.214 -16.911  0.00  0.00    -0.000 C 
ATOM     20  C   UNL     1      37.822 -22.603 -15.750  0.00  0.00    +0.001 C 
ATOM     21  H   UNL     1      32.051 -22.958 -12.896  0.00  0.00    -0.076 HD
ENDROOT
BRANCH   9  22
ATOM     22  O   UNL     1      32.685 -22.776 -17.958  0.00  0.00    -0.384 OA
ATOM     23  H   UNL     1      31.798 -22.426 -18.134  0.00  0.00    +0.210 HD
ENDBRANCH   9  22
BRANCH  13  24
ATOM     24  O   UNL     1      30.095 -24.643 -12.232  0.00  0.00    -0.405 OA
ATOM     25  H   UNL     1      29.714 -24.161 -11.481  0.00  0.00    +0.208 HD
ENDBRANCH  13  24
BRANCH  12  26
ATOM     26  C   UNL     1      28.363 -23.515 -15.144  0.00  0.00    +0.000 C 
ATOM     27  C   UNL     1      28.117 -23.793 -16.613  0.00  0.00    +0.000 C 
ENDBRANCH  12  26
TORSDOF 3
ENDMDL
MODEL 6
REMARK VINA RESULT:      -6.6     15.313     17.337
REMARK  Name = 441080
REMARK  3 active torsions:
REMARK  status: ('A' for Active; 'I' for Inactive)
REMARK    1  A    between atoms: C_9  and  O_22
REMARK    2  A    between atoms: C_12  and  C_26
REMARK    3  A    between atoms: C_13  and  O_24
REMARK                            x       y       z     vdW  Elec       q    Type
REMARK                         _______ _______ _______ _____ _____    ______ ____
ROOT
ATOM      1  N   UNL     1      33.202 -24.014 -15.951  0.00  0.00    +0.408 N 
ATOM      2  N   UNL     1      36.456 -23.231 -15.938  0.00  0.00    -0.309 N 
ATOM      3  C   UNL     1      35.406 -24.340 -14.084  0.00  0.00    +0.057 C 
ATOM      4  C   UNL     1      33.053 -24.382 -13.487  0.00  0.00    +0.009 C 
ATOM      5  C   UNL     1      33.321 -25.038 -14.880  0.00  0.00    -0.052 C 
ATOM      6  C   UNL     1      33.942 -22.776 -15.542  0.00  0.00    -0.036 C 
ATOM      7  C   UNL     1      32.240 -23.078 -13.735  0.00  0.00    -0.001 C 
ATOM      8  C   UNL     1      35.357 -23.057 -14.974  0.00  0.00    +0.060 C 
ATOM      9  C   UNL     1      34.474 -24.168 -12.872  0.00  0.00    +0.114 C 
ATOM     10  C   UNL     1      34.759 -25.510 -14.832  0.00  0.00    -0.013 C 
ATOM     11  C   UNL     1      33.132 -22.039 -14.438  0.00  0.00    -0.019 C 
ATOM     12  C   UNL     1      31.093 -23.343 -14.752  0.00  0.00    +0.007 C 
ATOM     13  C   UNL     1      31.746 -23.739 -16.113  0.00  0.00    +0.059 C 
ATOM     14  C   UNL     1      36.888 -24.519 -14.029  0.00  0.00    -0.006 C 
ATOM     15  C   UNL     1      37.443 -23.895 -15.171  0.00  0.00    +0.044 C 
ATOM     16  C   UNL     1      37.675 -25.211 -13.126  0.00  0.00    -0.003 C 
ATOM     17  C   UNL     1      36.837 -22.200 -16.880  0.00  0.00    +0.112 C 
ATOM     18  C   UNL     1      38.805 -23.982 -15.415  0.00  0.00    +0.014 C 
ATOM     19  C   UNL     1      39.047 -25.281 -13.368  0.00  0.00    -0.000 C 
ATOM     20  C   UNL     1      39.607 -24.676 -14.504  0.00  0.00    +0.001 C 
ATOM     21  H   UNL     1      33.604 -24.333 -16.833  0.00  0.00    -0.076 HD
ENDROOT
BRANCH   9  22
ATOM     22  O   UNL     1      34.676 -25.209 -11.918  0.00  0.00    -0.384 OA
ATOM     23  H   UNL     1      35.277 -24.899 -11.222  0.00  0.00    +0.210 HD
ENDBRANCH   9  22
BRANCH  13  24
ATOM     24  O   UNL     1      31.498 -22.719 -17.084  0.00  0.00    -0.405 OA
ATOM     25  H   UNL     1      31.829 -21.869 -16.752  0.00  0.00    +0.208 HD
ENDBRANCH  13  24
BRANCH  12  26
ATOM     26  C   UNL     1      30.092 -24.387 -14.257  0.00  0.00    +0.000 C 
ATOM     27  C   UNL     1      29.019 -24.655 -15.292  0.00  0.00    +0.000 C 
ENDBRANCH  12  26
TORSDOF 3
ENDMDL
MODEL 7
REMARK VINA RESULT:      -6.5      1.667      6.902
REMARK  Name = 441080
REMARK  3 active torsions:
REMARK  status: ('A' for Active; 'I' for Inactive)
REMARK    1  A    between atoms: C_9  and  O_22
REMARK    2  A    between atoms: C_12  and  C_26
REMARK    3  A    between atoms: C_13  and  O_24
REMARK                            x       y       z     vdW  Elec       q    Type
REMARK                         _______ _______ _______ _____ _____    ______ ____
ROOT
ATOM      1  N   UNL     1      31.309  -8.311 -23.063  0.00  0.00    +0.408 N 
ATOM      2  N   UNL     1      30.795  -5.134 -22.146  0.00  0.00    -0.309 N 
ATOM      3  C   UNL     1      32.217  -5.711 -23.995  0.00  0.00    +0.057 C 
ATOM      4  C   UNL     1      33.335  -7.821 -24.435  0.00  0.00    +0.009 C 
ATOM      5  C   UNL     1      31.779  -7.967 -24.431  0.00  0.00    -0.052 C 
ATOM      6  C   UNL     1      31.989  -7.425 -22.063  0.00  0.00    -0.036 C 
ATOM      7  C   UNL     1      33.880  -8.601 -23.203  0.00  0.00    -0.001 C 
ATOM      8  C   UNL     1      31.994  -5.927 -22.463  0.00  0.00    +0.060 C 
ATOM      9  C   UNL     1      33.587  -6.278 -24.407  0.00  0.00    +0.114 C 
ATOM     10  C   UNL     1      31.246  -6.594 -24.785  0.00  0.00    -0.013 C 
ATOM     11  C   UNL     1      33.470  -7.873 -21.911  0.00  0.00    -0.019 C 
ATOM     12  C   UNL     1      33.186  -9.989 -23.094  0.00  0.00    +0.007 C 
ATOM     13  C   UNL     1      31.665  -9.742 -22.842  0.00  0.00    +0.059 C 
ATOM     14  C   UNL     1      31.801  -4.280 -24.083  0.00  0.00    -0.006 C 
ATOM     15  C   UNL     1      30.924  -4.015 -23.004  0.00  0.00    +0.044 C 
ATOM     16  C   UNL     1      32.088  -3.319 -25.036  0.00  0.00    -0.003 C 
ATOM     17  C   UNL     1      30.309  -4.962 -20.795  0.00  0.00    +0.112 C 
ATOM     18  C   UNL     1      30.318  -2.773 -22.893  0.00  0.00    +0.014 C 
ATOM     19  C   UNL     1      31.488  -2.066 -24.909  0.00  0.00    -0.000 C 
ATOM     20  C   UNL     1      30.609  -1.796 -23.850  0.00  0.00    +0.001 C 
ATOM     21  H   UNL     1      30.303  -8.175 -22.958  0.00  0.00    -0.076 HD
ENDROOT
BRANCH   9  22
ATOM     22  O   UNL     1      33.926  -5.887 -25.735  0.00  0.00    -0.384 OA
ATOM     23  H   UNL     1      34.296  -6.646 -26.212  0.00  0.00    +0.210 HD
ENDBRANCH   9  22
BRANCH  13  24
ATOM     24  O   UNL     1      31.314 -10.184 -21.527  0.00  0.00    -0.405 OA
ATOM     25  H   UNL     1      30.357 -10.086 -21.398  0.00  0.00    +0.208 HD
ENDBRANCH  13  24
BRANCH  12  26
ATOM     26  C   UNL     1      33.441 -10.876 -24.312  0.00  0.00    +0.000 C 
ATOM     27  C   UNL     1      33.701 -12.312 -23.903  0.00  0.00    +0.000 C 
ENDBRANCH  12  26
TORSDOF 3
ENDMDL
