MODEL 1
REMARK VINA RESULT:      -7.9      0.000      0.000
REMARK  Name = 4359
REMARK  10 active torsions:
REMARK  status: ('A' for Active; 'I' for Inactive)
REMARK    1  A    between atoms: N_2  and  C_7
REMARK    2  A    between atoms: N_3  and  C_13
REMARK    3  A    between atoms: C_13  and  C_14
REMARK    4  A    between atoms: C_14  and  C_15
REMARK    5  A    between atoms: C_15  and  C_16
REMARK    6  A    between atoms: C_16  and  C_17
REMARK    7  A    between atoms: C_17  and  C_18
REMARK    8  A    between atoms: C_18  and  C_19
REMARK    9  A    between atoms: C_19  and  C_20
REMARK   10  A    between atoms: C_20  and  C_21
REMARK                            x       y       z     vdW  Elec       q    Type
REMARK                         _______ _______ _______ _____ _____    ______ ____
ROOT
ATOM      1  O   UNL     1      34.390 -13.719 -23.409  0.00  0.00    -0.253 OA
ATOM      2  N   UNL     1      34.025 -15.931 -22.810  0.00  0.00    -0.291 N 
ATOM      3  N   UNL     1      32.518 -14.308 -22.172  0.00  0.00    -0.289 N 
ATOM      4  C   UNL     1      33.708 -14.575 -22.849  0.00  0.00    +0.301 C 
ATOM      5  H   UNL     1      33.414 -16.541 -22.334  0.00  0.00    +0.151 HD
ATOM      6  H   UNL     1      32.037 -15.058 -21.753  0.00  0.00    +0.151 HD
ENDROOT
BRANCH   2   7
ATOM      7  C   UNL     1      35.206 -16.487 -23.431  0.00  0.00    +0.073 C 
ATOM      8  C   UNL     1      34.960 -16.786 -24.913  0.00  0.00    +0.020 C 
ATOM      9  C   UNL     1      35.686 -17.736 -22.683  0.00  0.00    +0.020 C 
ATOM     10  C   UNL     1      34.038 -17.986 -25.122  0.00  0.00    +0.002 C 
ATOM     11  C   UNL     1      34.762 -18.935 -22.897  0.00  0.00    +0.002 C 
ATOM     12  C   UNL     1      34.541 -19.220 -24.379  0.00  0.00    +0.000 C 
ENDBRANCH   2   7
BRANCH   3  13
ATOM     13  C   UNL     1      31.959 -12.988 -22.058  0.00  0.00    +0.091 C 
BRANCH  13  14
ATOM     14  C   UNL     1      31.867 -12.515 -20.611  0.00  0.00    +0.021 C 
BRANCH  14  15
ATOM     15  C   UNL     1      31.182 -11.149 -20.485  0.00  0.00    +0.002 C 
BRANCH  15  16
ATOM     16  C   UNL     1      31.778 -10.272 -19.379  0.00  0.00    +0.000 C 
BRANCH  16  17
ATOM     17  C   UNL     1      32.092  -8.847 -19.842  0.00  0.00    +0.000 C 
BRANCH  17  18
ATOM     18  C   UNL     1      32.399  -8.750 -21.340  0.00  0.00    +0.000 C 
BRANCH  18  19
ATOM     19  C   UNL     1      32.802  -7.363 -21.849  0.00  0.00    +0.000 C 
BRANCH  19  20
ATOM     20  C   UNL     1      33.243  -7.355 -23.314  0.00  0.00    +0.000 C 
BRANCH  20  21
ATOM     21  C   UNL     1      34.714  -7.751 -23.450  0.00  0.00    +0.000 C 
ATOM     22  C   UNL     1      34.866  -9.087 -24.161  0.00  0.00    +0.000 C 
ENDBRANCH  20  21
ENDBRANCH  19  20
ENDBRANCH  18  19
ENDBRANCH  17  18
ENDBRANCH  16  17
ENDBRANCH  15  16
ENDBRANCH  14  15
ENDBRANCH  13  14
ENDBRANCH   3  13
TORSDOF 10
ENDMDL
MODEL 2
REMARK VINA RESULT:      -7.8      7.304     10.065
REMARK  Name = 4359
REMARK  10 active torsions:
REMARK  status: ('A' for Active; 'I' for Inactive)
REMARK    1  A    between atoms: N_2  and  C_7
REMARK    2  A    between atoms: N_3  and  C_13
REMARK    3  A    between atoms: C_13  and  C_14
REMARK    4  A    between atoms: C_14  and  C_15
REMARK    5  A    between atoms: C_15  and  C_16
REMARK    6  A    between atoms: C_16  and  C_17
REMARK    7  A    between atoms: C_17  and  C_18
REMARK    8  A    between atoms: C_18  and  C_19
REMARK    9  A    between atoms: C_19  and  C_20
REMARK   10  A    between atoms: C_20  and  C_21
REMARK                            x       y       z     vdW  Elec       q    Type
REMARK                         _______ _______ _______ _____ _____    ______ ____
ROOT
ATOM      1  O   UNL     1      33.587 -23.691 -16.420  0.00  0.00    -0.253 OA
ATOM      2  N   UNL     1      31.379 -23.140 -16.875  0.00  0.00    -0.291 N 
ATOM      3  N   UNL     1      33.035 -22.561 -18.370  0.00  0.00    -0.289 N 
ATOM      4  C   UNL     1      32.743 -23.178 -17.153  0.00  0.00    +0.301 C 
ATOM      5  H   UNL     1      30.781 -22.705 -17.526  0.00  0.00    +0.151 HD
ATOM      6  H   UNL     1      32.293 -22.177 -18.892  0.00  0.00    +0.151 HD
ENDROOT
BRANCH   2   7
ATOM      7  C   UNL     1      30.799 -23.705 -15.678  0.00  0.00    +0.073 C 
ATOM      8  C   UNL     1      29.821 -24.835 -16.021  0.00  0.00    +0.020 C 
ATOM      9  C   UNL     1      30.122 -22.623 -14.830  0.00  0.00    +0.020 C 
ATOM     10  C   UNL     1      28.528 -24.319 -16.649  0.00  0.00    +0.002 C 
ATOM     11  C   UNL     1      28.827 -22.111 -15.460  0.00  0.00    +0.002 C 
ATOM     12  C   UNL     1      27.867 -23.252 -15.781  0.00  0.00    +0.000 C 
ENDBRANCH   2   7
BRANCH   3  13
ATOM     13  C   UNL     1      34.368 -22.459 -18.899  0.00  0.00    +0.091 C 
BRANCH  13  14
ATOM     14  C   UNL     1      34.548 -21.244 -19.803  0.00  0.00    +0.021 C 
BRANCH  14  15
ATOM     15  C   UNL     1      33.210 -20.621 -20.217  0.00  0.00    +0.002 C 
BRANCH  15  16
ATOM     16  C   UNL     1      33.361 -19.248 -20.882  0.00  0.00    +0.000 C 
BRANCH  16  17
ATOM     17  C   UNL     1      34.816 -18.881 -21.185  0.00  0.00    +0.000 C 
BRANCH  17  18
ATOM     18  C   UNL     1      35.088 -17.375 -21.119  0.00  0.00    +0.000 C 
BRANCH  18  19
ATOM     19  C   UNL     1      33.881 -16.468 -21.380  0.00  0.00    +0.000 C 
BRANCH  19  20
ATOM     20  C   UNL     1      34.086 -15.028 -20.908  0.00  0.00    +0.000 C 
BRANCH  20  21
ATOM     21  C   UNL     1      32.751 -14.362 -20.569  0.00  0.00    +0.000 C 
ATOM     22  C   UNL     1      32.348 -13.353 -21.633  0.00  0.00    +0.000 C 
ENDBRANCH  20  21
ENDBRANCH  19  20
ENDBRANCH  18  19
ENDBRANCH  17  18
ENDBRANCH  16  17
ENDBRANCH  15  16
ENDBRANCH  14  15
ENDBRANCH  13  14
ENDBRANCH   3  13
TORSDOF 10
ENDMDL
MODEL 3
REMARK VINA RESULT:      -7.8      7.178     10.185
REMARK  Name = 4359
REMARK  10 active torsions:
REMARK  status: ('A' for Active; 'I' for Inactive)
REMARK    1  A    between atoms: N_2  and  C_7
REMARK    2  A    between atoms: N_3  and  C_13
REMARK    3  A    between atoms: C_13  and  C_14
REMARK    4  A    between atoms: C_14  and  C_15
REMARK    5  A    between atoms: C_15  and  C_16
REMARK    6  A    between atoms: C_16  and  C_17
REMARK    7  A    between atoms: C_17  and  C_18
REMARK    8  A    between atoms: C_18  and  C_19
REMARK    9  A    between atoms: C_19  and  C_20
REMARK   10  A    between atoms: C_20  and  C_21
REMARK                            x       y       z     vdW  Elec       q    Type
REMARK                         _______ _______ _______ _____ _____    ______ ____
ROOT
ATOM      1  O   UNL     1      33.993 -23.579 -16.820  0.00  0.00    -0.253 OA
ATOM      2  N   UNL     1      31.759 -22.952 -16.786  0.00  0.00    -0.291 N 
ATOM      3  N   UNL     1      33.032 -22.548 -18.663  0.00  0.00    -0.289 N 
ATOM      4  C   UNL     1      33.017 -23.073 -17.371  0.00  0.00    +0.301 C 
ATOM      5  H   UNL     1      31.038 -22.530 -17.308  0.00  0.00    +0.151 HD
ATOM      6  H   UNL     1      32.201 -22.162 -19.024  0.00  0.00    +0.151 HD
ENDROOT
BRANCH   2   7
ATOM      7  C   UNL     1      31.459 -23.413 -15.448  0.00  0.00    +0.073 C 
ATOM      8  C   UNL     1      30.918 -24.846 -15.469  0.00  0.00    +0.020 C 
ATOM      9  C   UNL     1      30.488 -22.461 -14.742  0.00  0.00    +0.020 C 
ATOM     10  C   UNL     1      29.500 -24.928 -16.033  0.00  0.00    +0.002 C 
ATOM     11  C   UNL     1      29.071 -22.548 -15.308  0.00  0.00    +0.002 C 
ATOM     12  C   UNL     1      28.550 -23.982 -15.307  0.00  0.00    +0.000 C 
ENDBRANCH   2   7
BRANCH   3  13
ATOM     13  C   UNL     1      34.206 -22.543 -19.494  0.00  0.00    +0.091 C 
BRANCH  13  14
ATOM     14  C   UNL     1      34.635 -21.135 -19.894  0.00  0.00    +0.021 C 
BRANCH  14  15
ATOM     15  C   UNL     1      33.460 -20.285 -20.390  0.00  0.00    +0.002 C 
BRANCH  15  16
ATOM     16  C   UNL     1      33.898 -19.063 -21.204  0.00  0.00    +0.000 C 
BRANCH  16  17
ATOM     17  C   UNL     1      34.732 -19.424 -22.435  0.00  0.00    +0.000 C 
BRANCH  17  18
ATOM     18  C   UNL     1      35.199 -18.201 -23.231  0.00  0.00    +0.000 C 
BRANCH  18  19
ATOM     19  C   UNL     1      35.379 -16.911 -22.425  0.00  0.00    +0.000 C 
BRANCH  19  20
ATOM     20  C   UNL     1      34.705 -15.694 -23.062  0.00  0.00    +0.000 C 
BRANCH  20  21
ATOM     21  C   UNL     1      34.318 -14.660 -22.004  0.00  0.00    +0.000 C 
ATOM     22  C   UNL     1      34.433 -15.232 -20.599  0.00  0.00    +0.000 C 
ENDBRANCH  20  21
ENDBRANCH  19  20
ENDBRANCH  18  19
ENDBRANCH  17  18
ENDBRANCH  16  17
ENDBRANCH  15  16
ENDBRANCH  14  15
ENDBRANCH  13  14
ENDBRANCH   3  13
TORSDOF 10
ENDMDL
MODEL 4
REMARK VINA RESULT:      -7.8      1.975      4.039
REMARK  Name = 4359
REMARK  10 active torsions:
REMARK  status: ('A' for Active; 'I' for Inactive)
REMARK    1  A    between atoms: N_2  and  C_7
REMARK    2  A    between atoms: N_3  and  C_13
REMARK    3  A    between atoms: C_13  and  C_14
REMARK    4  A    between atoms: C_14  and  C_15
REMARK    5  A    between atoms: C_15  and  C_16
REMARK    6  A    between atoms: C_16  and  C_17
REMARK    7  A    between atoms: C_17  and  C_18
REMARK    8  A    between atoms: C_18  and  C_19
REMARK    9  A    between atoms: C_19  and  C_20
REMARK   10  A    between atoms: C_20  and  C_21
REMARK                            x       y       z     vdW  Elec       q    Type
REMARK                         _______ _______ _______ _____ _____    ______ ____
ROOT
ATOM      1  O   UNL     1      32.069 -12.280 -23.121  0.00  0.00    -0.253 OA
ATOM      2  N   UNL     1      33.871 -13.728 -23.323  0.00  0.00    -0.291 N 
ATOM      3  N   UNL     1      34.143 -11.490 -23.799  0.00  0.00    -0.289 N 
ATOM      4  C   UNL     1      33.252 -12.483 -23.389  0.00  0.00    +0.301 C 
ATOM      5  H   UNL     1      34.826 -13.790 -23.558  0.00  0.00    +0.151 HD
ATOM      6  H   UNL     1      35.074 -11.744 -23.993  0.00  0.00    +0.151 HD
ENDROOT
BRANCH   2   7
ATOM      7  C   UNL     1      33.182 -14.936 -22.927  0.00  0.00    +0.073 C 
ATOM      8  C   UNL     1      32.989 -14.986 -21.407  0.00  0.00    +0.020 C 
ATOM      9  C   UNL     1      33.915 -16.181 -23.436  0.00  0.00    +0.020 C 
ATOM     10  C   UNL     1      34.297 -15.245 -20.660  0.00  0.00    +0.002 C 
ATOM     11  C   UNL     1      35.221 -16.438 -22.685  0.00  0.00    +0.002 C 
ATOM     12  C   UNL     1      35.002 -16.496 -21.176  0.00  0.00    +0.000 C 
ENDBRANCH   2   7
BRANCH   3  13
ATOM     13  C   UNL     1      33.764 -10.111 -23.952  0.00  0.00    +0.091 C 
BRANCH  13  14
ATOM     14  C   UNL     1      34.961  -9.201 -24.213  0.00  0.00    +0.021 C 
BRANCH  14  15
ATOM     15  C   UNL     1      34.757  -7.792 -23.646  0.00  0.00    +0.002 C 
BRANCH  15  16
ATOM     16  C   UNL     1      34.253  -6.787 -24.687  0.00  0.00    +0.000 C 
BRANCH  16  17
ATOM     17  C   UNL     1      32.970  -6.070 -24.262  0.00  0.00    +0.000 C 
BRANCH  17  18
ATOM     18  C   UNL     1      31.748  -6.992 -24.211  0.00  0.00    +0.000 C 
BRANCH  18  19
ATOM     19  C   UNL     1      31.223  -7.326 -22.811  0.00  0.00    +0.000 C 
BRANCH  19  20
ATOM     20  C   UNL     1      31.629  -6.303 -21.747  0.00  0.00    +0.000 C 
BRANCH  20  21
ATOM     21  C   UNL     1      32.290  -6.985 -20.549  0.00  0.00    +0.000 C 
ATOM     22  C   UNL     1      32.422  -8.485 -20.765  0.00  0.00    +0.000 C 
ENDBRANCH  20  21
ENDBRANCH  19  20
ENDBRANCH  18  19
ENDBRANCH  17  18
ENDBRANCH  16  17
ENDBRANCH  15  16
ENDBRANCH  14  15
ENDBRANCH  13  14
ENDBRANCH   3  13
TORSDOF 10
ENDMDL
MODEL 5
REMARK VINA RESULT:      -7.8      2.107      9.133
REMARK  Name = 4359
REMARK  10 active torsions:
REMARK  status: ('A' for Active; 'I' for Inactive)
REMARK    1  A    between atoms: N_2  and  C_7
REMARK    2  A    between atoms: N_3  and  C_13
REMARK    3  A    between atoms: C_13  and  C_14
REMARK    4  A    between atoms: C_14  and  C_15
REMARK    5  A    between atoms: C_15  and  C_16
REMARK    6  A    between atoms: C_16  and  C_17
REMARK    7  A    between atoms: C_17  and  C_18
REMARK    8  A    between atoms: C_18  and  C_19
REMARK    9  A    between atoms: C_19  and  C_20
REMARK   10  A    between atoms: C_20  and  C_21
REMARK                            x       y       z     vdW  Elec       q    Type
REMARK                         _______ _______ _______ _____ _____    ______ ____
ROOT
ATOM      1  O   UNL     1      31.988 -14.198 -22.263  0.00  0.00    -0.253 OA
ATOM      2  N   UNL     1      32.651 -11.983 -22.469  0.00  0.00    -0.291 N 
ATOM      3  N   UNL     1      34.138 -13.674 -22.962  0.00  0.00    -0.289 N 
ATOM      4  C   UNL     1      32.845 -13.360 -22.539  0.00  0.00    +0.301 C 
ATOM      5  H   UNL     1      33.401 -11.392 -22.711  0.00  0.00    +0.151 HD
ATOM      6  H   UNL     1      34.759 -12.937 -23.162  0.00  0.00    +0.151 HD
ENDROOT
BRANCH   2   7
ATOM      7  C   UNL     1      31.404 -11.379 -22.058  0.00  0.00    +0.073 C 
ATOM      8  C   UNL     1      31.322  -9.919 -22.517  0.00  0.00    +0.020 C 
ATOM      9  C   UNL     1      31.206 -11.498 -20.544  0.00  0.00    +0.020 C 
ATOM     10  C   UNL     1      32.259  -9.005 -21.728  0.00  0.00    +0.002 C 
ATOM     11  C   UNL     1      32.143 -10.581 -19.758  0.00  0.00    +0.002 C 
ATOM     12  C   UNL     1      32.036  -9.132 -20.224  0.00  0.00    +0.000 C 
ENDBRANCH   2   7
BRANCH   3  13
ATOM     13  C   UNL     1      34.605 -15.025 -23.121  0.00  0.00    +0.091 C 
BRANCH  13  14
ATOM     14  C   UNL     1      34.064 -15.686 -24.385  0.00  0.00    +0.021 C 
BRANCH  14  15
ATOM     15  C   UNL     1      34.940 -16.853 -24.854  0.00  0.00    +0.002 C 
BRANCH  15  16
ATOM     16  C   UNL     1      34.425 -18.220 -24.390  0.00  0.00    +0.000 C 
BRANCH  16  17
ATOM     17  C   UNL     1      35.189 -18.776 -23.185  0.00  0.00    +0.000 C 
BRANCH  17  18
ATOM     18  C   UNL     1      34.411 -18.662 -21.870  0.00  0.00    +0.000 C 
BRANCH  18  19
ATOM     19  C   UNL     1      34.575 -19.833 -20.896  0.00  0.00    +0.000 C 
BRANCH  19  20
ATOM     20  C   UNL     1      33.251 -20.331 -20.312  0.00  0.00    +0.000 C 
BRANCH  20  21
ATOM     21  C   UNL     1      33.461 -21.581 -19.456  0.00  0.00    +0.000 C 
ATOM     22  C   UNL     1      34.937 -21.925 -19.326  0.00  0.00    +0.000 C 
ENDBRANCH  20  21
ENDBRANCH  19  20
ENDBRANCH  18  19
ENDBRANCH  17  18
ENDBRANCH  16  17
ENDBRANCH  15  16
ENDBRANCH  14  15
ENDBRANCH  13  14
ENDBRANCH   3  13
TORSDOF 10
ENDMDL
MODEL 6
REMARK VINA RESULT:      -7.7      6.062     11.133
REMARK  Name = 4359
REMARK  10 active torsions:
REMARK  status: ('A' for Active; 'I' for Inactive)
REMARK    1  A    between atoms: N_2  and  C_7
REMARK    2  A    between atoms: N_3  and  C_13
REMARK    3  A    between atoms: C_13  and  C_14
REMARK    4  A    between atoms: C_14  and  C_15
REMARK    5  A    between atoms: C_15  and  C_16
REMARK    6  A    between atoms: C_16  and  C_17
REMARK    7  A    between atoms: C_17  and  C_18
REMARK    8  A    between atoms: C_18  and  C_19
REMARK    9  A    between atoms: C_19  and  C_20
REMARK   10  A    between atoms: C_20  and  C_21
REMARK                            x       y       z     vdW  Elec       q    Type
REMARK                         _______ _______ _______ _____ _____    ______ ____
ROOT
ATOM      1  O   UNL     1      35.950 -18.228 -20.621  0.00  0.00    -0.253 OA
ATOM      2  N   UNL     1      34.149 -17.133 -21.593  0.00  0.00    -0.291 N 
ATOM      3  N   UNL     1      33.989 -19.376 -21.090  0.00  0.00    -0.289 N 
ATOM      4  C   UNL     1      34.802 -18.242 -21.061  0.00  0.00    +0.301 C 
ATOM      5  H   UNL     1      33.227 -17.245 -21.922  0.00  0.00    +0.151 HD
ATOM      6  H   UNL     1      33.081 -19.294 -21.461  0.00  0.00    +0.151 HD
ENDROOT
BRANCH   2   7
ATOM      7  C   UNL     1      34.759 -15.825 -21.688  0.00  0.00    +0.073 C 
ATOM      8  C   UNL     1      34.304 -14.921 -20.538  0.00  0.00    +0.020 C 
ATOM      9  C   UNL     1      34.472 -15.181 -23.049  0.00  0.00    +0.020 C 
ATOM     10  C   UNL     1      32.849 -14.477 -20.683  0.00  0.00    +0.002 C 
ATOM     11  C   UNL     1      33.016 -14.737 -23.189  0.00  0.00    +0.002 C 
ATOM     12  C   UNL     1      32.591 -13.829 -22.040  0.00  0.00    +0.000 C 
ENDBRANCH   2   7
BRANCH   3  13
ATOM     13  C   UNL     1      34.416 -20.660 -20.601  0.00  0.00    +0.091 C 
BRANCH  13  14
ATOM     14  C   UNL     1      33.436 -21.259 -19.598  0.00  0.00    +0.021 C 
BRANCH  14  15
ATOM     15  C   UNL     1      33.819 -22.685 -19.188  0.00  0.00    +0.002 C 
BRANCH  15  16
ATOM     16  C   UNL     1      34.042 -22.842 -17.679  0.00  0.00    +0.000 C 
BRANCH  16  17
ATOM     17  C   UNL     1      32.793 -23.310 -16.930  0.00  0.00    +0.000 C 
BRANCH  17  18
ATOM     18  C   UNL     1      32.942 -23.249 -15.406  0.00  0.00    +0.000 C 
BRANCH  18  19
ATOM     19  C   UNL     1      31.672 -22.897 -14.626  0.00  0.00    +0.000 C 
BRANCH  19  20
ATOM     20  C   UNL     1      30.392 -23.016 -15.457  0.00  0.00    +0.000 C 
BRANCH  20  21
ATOM     21  C   UNL     1      29.440 -24.053 -14.860  0.00  0.00    +0.000 C 
ATOM     22  C   UNL     1      29.977 -25.466 -15.035  0.00  0.00    +0.000 C 
ENDBRANCH  20  21
ENDBRANCH  19  20
ENDBRANCH  18  19
ENDBRANCH  17  18
ENDBRANCH  16  17
ENDBRANCH  15  16
ENDBRANCH  14  15
ENDBRANCH  13  14
ENDBRANCH   3  13
TORSDOF 10
ENDMDL
MODEL 7
REMARK VINA RESULT:      -7.7      2.500      8.727
REMARK  Name = 4359
REMARK  10 active torsions:
REMARK  status: ('A' for Active; 'I' for Inactive)
REMARK    1  A    between atoms: N_2  and  C_7
REMARK    2  A    between atoms: N_3  and  C_13
REMARK    3  A    between atoms: C_13  and  C_14
REMARK    4  A    between atoms: C_14  and  C_15
REMARK    5  A    between atoms: C_15  and  C_16
REMARK    6  A    between atoms: C_16  and  C_17
REMARK    7  A    between atoms: C_17  and  C_18
REMARK    8  A    between atoms: C_18  and  C_19
REMARK    9  A    between atoms: C_19  and  C_20
REMARK   10  A    between atoms: C_20  and  C_21
REMARK                            x       y       z     vdW  Elec       q    Type
REMARK                         _______ _______ _______ _____ _____    ______ ____
ROOT
ATOM      1  O   UNL     1      35.075  -9.697 -24.001  0.00  0.00    -0.253 OA
ATOM      2  N   UNL     1      33.045  -8.888 -23.219  0.00  0.00    -0.291 N 
ATOM      3  N   UNL     1      33.198 -11.061 -23.971  0.00  0.00    -0.289 N 
ATOM      4  C   UNL     1      33.882  -9.864 -23.752  0.00  0.00    +0.301 C 
ATOM      5  H   UNL     1      32.102  -9.119 -23.054  0.00  0.00    +0.151 HD
ATOM      6  H   UNL     1      32.242 -11.104 -23.740  0.00  0.00    +0.151 HD
ENDROOT
BRANCH   2   7
ATOM      7  C   UNL     1      33.493  -7.552 -22.895  0.00  0.00    +0.073 C 
ATOM      8  C   UNL     1      32.666  -6.957 -21.750  0.00  0.00    +0.020 C 
ATOM      9  C   UNL     1      33.463  -6.646 -24.131  0.00  0.00    +0.020 C 
ATOM     10  C   UNL     1      31.245  -6.596 -22.180  0.00  0.00    +0.002 C 
ATOM     11  C   UNL     1      32.040  -6.286 -24.557  0.00  0.00    +0.002 C 
ATOM     12  C   UNL     1      31.242  -5.685 -23.404  0.00  0.00    +0.000 C 
ENDBRANCH   2   7
BRANCH   3  13
ATOM     13  C   UNL     1      33.825 -12.235 -24.516  0.00  0.00    +0.091 C 
BRANCH  13  14
ATOM     14  C   UNL     1      33.833 -13.403 -23.534  0.00  0.00    +0.021 C 
BRANCH  14  15
ATOM     15  C   UNL     1      32.477 -13.599 -22.849  0.00  0.00    +0.002 C 
BRANCH  15  16
ATOM     16  C   UNL     1      32.592 -13.877 -21.346  0.00  0.00    +0.000 C 
BRANCH  16  17
ATOM     17  C   UNL     1      32.934 -15.334 -21.026  0.00  0.00    +0.000 C 
BRANCH  17  18
ATOM     18  C   UNL     1      34.391 -15.533 -20.594  0.00  0.00    +0.000 C 
BRANCH  18  19
ATOM     19  C   UNL     1      35.006 -16.894 -20.934  0.00  0.00    +0.000 C 
BRANCH  19  20
ATOM     20  C   UNL     1      34.950 -17.233 -22.425  0.00  0.00    +0.000 C 
BRANCH  20  21
ATOM     21  C   UNL     1      34.636 -18.714 -22.644  0.00  0.00    +0.000 C 
ATOM     22  C   UNL     1      34.233 -19.394 -21.344  0.00  0.00    +0.000 C 
ENDBRANCH  20  21
ENDBRANCH  19  20
ENDBRANCH  18  19
ENDBRANCH  17  18
ENDBRANCH  16  17
ENDBRANCH  15  16
ENDBRANCH  14  15
ENDBRANCH  13  14
ENDBRANCH   3  13
TORSDOF 10
ENDMDL
MODEL 8
REMARK VINA RESULT:      -7.7      2.096      4.369
REMARK  Name = 4359
REMARK  10 active torsions:
REMARK  status: ('A' for Active; 'I' for Inactive)
REMARK    1  A    between atoms: N_2  and  C_7
REMARK    2  A    between atoms: N_3  and  C_13
REMARK    3  A    between atoms: C_13  and  C_14
REMARK    4  A    between atoms: C_14  and  C_15
REMARK    5  A    between atoms: C_15  and  C_16
REMARK    6  A    between atoms: C_16  and  C_17
REMARK    7  A    between atoms: C_17  and  C_18
REMARK    8  A    between atoms: C_18  and  C_19
REMARK    9  A    between atoms: C_19  and  C_20
REMARK   10  A    between atoms: C_20  and  C_21
REMARK                            x       y       z     vdW  Elec       q    Type
REMARK                         _______ _______ _______ _____ _____    ______ ____
ROOT
ATOM      1  O   UNL     1      32.730 -10.861 -24.199  0.00  0.00    -0.253 OA
ATOM      2  N   UNL     1      34.197 -12.602 -23.749  0.00  0.00    -0.291 N 
ATOM      3  N   UNL     1      35.022 -10.532 -24.336  0.00  0.00    -0.289 N 
ATOM      4  C   UNL     1      33.877 -11.294 -24.103  0.00  0.00    +0.301 C 
ATOM      5  H   UNL     1      35.148 -12.854 -23.700  0.00  0.00    +0.151 HD
ATOM      6  H   UNL     1      35.902 -10.962 -24.235  0.00  0.00    +0.151 HD
ENDROOT
BRANCH   2   7
ATOM      7  C   UNL     1      33.203 -13.608 -23.453  0.00  0.00    +0.073 C 
ATOM      8  C   UNL     1      33.044 -13.797 -21.940  0.00  0.00    +0.020 C 
ATOM      9  C   UNL     1      33.536 -14.933 -24.147  0.00  0.00    +0.020 C 
ATOM     10  C   UNL     1      34.243 -14.505 -21.311  0.00  0.00    +0.002 C 
ATOM     11  C   UNL     1      34.734 -15.640 -23.512  0.00  0.00    +0.002 C 
ATOM     12  C   UNL     1      34.548 -15.826 -22.010  0.00  0.00    +0.000 C 
ENDBRANCH   2   7
BRANCH   3  13
ATOM     13  C   UNL     1      34.978  -9.146 -24.718  0.00  0.00    +0.091 C 
BRANCH  13  14
ATOM     14  C   UNL     1      34.818  -8.214 -23.520  0.00  0.00    +0.021 C 
BRANCH  14  15
ATOM     15  C   UNL     1      33.926  -7.008 -23.833  0.00  0.00    +0.002 C 
BRANCH  15  16
ATOM     16  C   UNL     1      32.480  -7.185 -23.356  0.00  0.00    +0.000 C 
BRANCH  16  17
ATOM     17  C   UNL     1      32.020  -6.081 -22.400  0.00  0.00    +0.000 C 
BRANCH  17  18
ATOM     18  C   UNL     1      31.833  -6.567 -20.959  0.00  0.00    +0.000 C 
BRANCH  18  19
ATOM     19  C   UNL     1      32.805  -7.655 -20.491  0.00  0.00    +0.000 C 
BRANCH  19  20
ATOM     20  C   UNL     1      32.108  -8.886 -19.910  0.00  0.00    +0.000 C 
BRANCH  20  21
ATOM     21  C   UNL     1      31.764  -9.896 -21.006  0.00  0.00    +0.000 C 
ATOM     22  C   UNL     1      30.929 -11.045 -20.461  0.00  0.00    +0.000 C 
ENDBRANCH  20  21
ENDBRANCH  19  20
ENDBRANCH  18  19
ENDBRANCH  17  18
ENDBRANCH  16  17
ENDBRANCH  15  16
ENDBRANCH  14  15
ENDBRANCH  13  14
ENDBRANCH   3  13
TORSDOF 10
ENDMDL
MODEL 9
REMARK VINA RESULT:      -7.6      2.342      9.035
REMARK  Name = 4359
REMARK  10 active torsions:
REMARK  status: ('A' for Active; 'I' for Inactive)
REMARK    1  A    between atoms: N_2  and  C_7
REMARK    2  A    between atoms: N_3  and  C_13
REMARK    3  A    between atoms: C_13  and  C_14
REMARK    4  A    between atoms: C_14  and  C_15
REMARK    5  A    between atoms: C_15  and  C_16
REMARK    6  A    between atoms: C_16  and  C_17
REMARK    7  A    between atoms: C_17  and  C_18
REMARK    8  A    between atoms: C_18  and  C_19
REMARK    9  A    between atoms: C_19  and  C_20
REMARK   10  A    between atoms: C_20  and  C_21
REMARK                            x       y       z     vdW  Elec       q    Type
REMARK                         _______ _______ _______ _____ _____    ______ ____
ROOT
ATOM      1  O   UNL     1      33.716 -11.259 -23.739  0.00  0.00    -0.253 OA
ATOM      2  N   UNL     1      32.148  -9.756 -22.922  0.00  0.00    -0.291 N 
ATOM      3  N   UNL     1      31.951 -11.998 -22.425  0.00  0.00    -0.289 N 
ATOM      4  C   UNL     1      32.699 -11.024 -23.089  0.00  0.00    +0.301 C 
ATOM      5  H   UNL     1      31.328  -9.669 -22.382  0.00  0.00    +0.151 HD
ATOM      6  H   UNL     1      31.149 -11.717 -21.928  0.00  0.00    +0.151 HD
ENDROOT
BRANCH   2   7
ATOM      7  C   UNL     1      32.719  -8.561 -23.503  0.00  0.00    +0.073 C 
ATOM      8  C   UNL     1      33.685  -7.882 -22.527  0.00  0.00    +0.020 C 
ATOM      9  C   UNL     1      31.622  -7.594 -23.963  0.00  0.00    +0.020 C 
ATOM     10  C   UNL     1      32.963  -7.214 -21.358  0.00  0.00    +0.002 C 
ATOM     11  C   UNL     1      30.904  -6.926 -22.791  0.00  0.00    +0.002 C 
ATOM     12  C   UNL     1      31.886  -6.248 -21.840  0.00  0.00    +0.000 C 
ENDBRANCH   2   7
BRANCH   3  13
ATOM     13  C   UNL     1      32.298 -13.393 -22.434  0.00  0.00    +0.091 C 
BRANCH  13  14
ATOM     14  C   UNL     1      32.757 -13.890 -21.066  0.00  0.00    +0.021 C 
BRANCH  14  15
ATOM     15  C   UNL     1      34.088 -14.647 -21.137  0.00  0.00    +0.002 C 
BRANCH  15  16
ATOM     16  C   UNL     1      34.503 -15.009 -22.567  0.00  0.00    +0.000 C 
BRANCH  16  17
ATOM     17  C   UNL     1      35.064 -16.428 -22.692  0.00  0.00    +0.000 C 
BRANCH  17  18
ATOM     18  C   UNL     1      34.855 -17.275 -21.432  0.00  0.00    +0.000 C 
BRANCH  18  19
ATOM     19  C   UNL     1      35.873 -18.398 -21.209  0.00  0.00    +0.000 C 
BRANCH  19  20
ATOM     20  C   UNL     1      35.230 -19.765 -20.968  0.00  0.00    +0.000 C 
BRANCH  20  21
ATOM     21  C   UNL     1      33.704 -19.665 -20.961  0.00  0.00    +0.000 C 
ATOM     22  C   UNL     1      33.087 -20.637 -19.967  0.00  0.00    +0.000 C 
ENDBRANCH  20  21
ENDBRANCH  19  20
ENDBRANCH  18  19
ENDBRANCH  17  18
ENDBRANCH  16  17
ENDBRANCH  15  16
ENDBRANCH  14  15
ENDBRANCH  13  14
ENDBRANCH   3  13
TORSDOF 10
ENDMDL
