MODEL 1
REMARK VINA RESULT:      -9.7      0.000      0.000
REMARK  Name = 6919009
REMARK  3 active torsions:
REMARK  status: ('A' for Active; 'I' for Inactive)
REMARK    1  A    between atoms: N_3  and  C_24
REMARK    2  A    between atoms: C_4  and  N_14
REMARK    3  A    between atoms: C_12  and  C_23
REMARK                            x       y       z     vdW  Elec       q    Type
REMARK                         _______ _______ _______ _____ _____    ______ ____
ROOT
ATOM      1  F   UNL     1      32.196 -15.464 -21.258  0.00  0.00    -0.203 F 
ATOM      2  O   UNL     1      31.110 -10.557 -21.079  0.00  0.00    -0.286 OA
ATOM      3  N   UNL     1      33.578 -10.984 -24.299  0.00  0.00    -0.286 N 
ATOM      4  C   UNL     1      33.377 -14.538 -23.095  0.00  0.00    +0.077 C 
ATOM      5  C   UNL     1      33.729 -13.424 -23.863  0.00  0.00    +0.032 C 
ATOM      6  C   UNL     1      33.248 -12.139 -23.551  0.00  0.00    +0.056 C 
ATOM      7  C   UNL     1      32.535 -14.398 -21.997  0.00  0.00    +0.153 C 
ATOM      8  C   UNL     1      32.394 -12.025 -22.429  0.00  0.00    +0.055 C 
ATOM      9  C   UNL     1      32.041 -13.142 -21.661  0.00  0.00    +0.035 C 
ATOM     10  C   UNL     1      31.851 -10.694 -22.045  0.00  0.00    +0.204 C 
ATOM     11  C   UNL     1      33.059  -9.760 -23.920  0.00  0.00    +0.075 C 
ATOM     12  C   UNL     1      32.247  -9.538 -22.883  0.00  0.00    +0.133 C 
ENDROOT
BRANCH   4  14
ATOM     13  N   UNL     1      35.078 -18.285 -24.116  0.00  0.00    +0.388 N 
ATOM     14  N   UNL     1      33.876 -15.801 -23.438  0.00  0.00    -0.310 N 
ATOM     15  C   UNL     1      34.732 -17.980 -22.680  0.00  0.00    -0.056 C 
ATOM     16  C   UNL     1      34.091 -17.640 -25.055  0.00  0.00    -0.056 C 
ATOM     17  C   UNL     1      34.751 -16.472 -22.468  0.00  0.00    +0.068 C 
ATOM     18  C   UNL     1      34.105 -16.132 -24.848  0.00  0.00    +0.068 C 
ATOM     19  C   UNL     1      35.204 -19.762 -24.360  0.00  0.00    -0.101 C 
ATOM     20  H   UNL     1      35.994 -17.879 -24.306  0.00  0.00    -0.080 HD
ENDBRANCH   4  14
BRANCH  12  23
ATOM     21  O   UNL     1      30.791  -7.747 -23.312  0.00  0.00    -0.240 OA
ATOM     22  O   UNL     1      32.417  -7.507 -21.721  0.00  0.00    -0.240 OA
ATOM     23  C   UNL     1      31.773  -8.129 -22.612  0.00  0.00    +0.392 C 
ENDBRANCH  12  23
BRANCH   3  24
ATOM     24  C   UNL     1      34.461 -11.121 -25.454  0.00  0.00    +0.096 C 
ATOM     25  C   UNL     1      35.526 -10.045 -25.470  0.00  0.00    +0.024 C 
ENDBRANCH   3  24
TORSDOF 3
ENDMDL
MODEL 2
REMARK VINA RESULT:      -9.6      3.592      5.395
REMARK  Name = 6919009
REMARK  3 active torsions:
REMARK  status: ('A' for Active; 'I' for Inactive)
REMARK    1  A    between atoms: N_3  and  C_24
REMARK    2  A    between atoms: C_4  and  N_14
REMARK    3  A    between atoms: C_12  and  C_23
REMARK                            x       y       z     vdW  Elec       q    Type
REMARK                         _______ _______ _______ _____ _____    ______ ____
ROOT
ATOM      1  F   UNL     1      34.977 -19.797 -24.158  0.00  0.00    -0.203 F 
ATOM      2  O   UNL     1      33.911 -15.589 -26.696  0.00  0.00    -0.286 OA
ATOM      3  N   UNL     1      33.764 -14.524 -22.762  0.00  0.00    -0.286 N 
ATOM      4  C   UNL     1      34.635 -18.168 -22.468  0.00  0.00    +0.077 C 
ATOM      5  C   UNL     1      34.333 -16.850 -22.108  0.00  0.00    +0.032 C 
ATOM      6  C   UNL     1      34.074 -15.867 -23.080  0.00  0.00    +0.056 C 
ATOM      7  C   UNL     1      34.688 -18.536 -23.808  0.00  0.00    +0.153 C 
ATOM      8  C   UNL     1      34.134 -16.269 -24.435  0.00  0.00    +0.055 C 
ATOM      9  C   UNL     1      34.437 -17.588 -24.795  0.00  0.00    +0.035 C 
ATOM     10  C   UNL     1      33.870 -15.277 -25.513  0.00  0.00    +0.204 C 
ATOM     11  C   UNL     1      33.523 -13.624 -23.784  0.00  0.00    +0.075 C 
ATOM     12  C   UNL     1      33.553 -13.893 -25.091  0.00  0.00    +0.133 C 
ENDROOT
BRANCH   4  14
ATOM     13  N   UNL     1      35.326 -20.911 -19.311  0.00  0.00    +0.388 N 
ATOM     14  N   UNL     1      34.887 -19.118 -21.471  0.00  0.00    -0.310 N 
ATOM     15  C   UNL     1      34.029 -20.956 -20.078  0.00  0.00    -0.056 C 
ATOM     16  C   UNL     1      36.470 -20.515 -20.209  0.00  0.00    -0.056 C 
ATOM     17  C   UNL     1      33.747 -19.581 -20.669  0.00  0.00    +0.068 C 
ATOM     18  C   UNL     1      36.193 -19.141 -20.805  0.00  0.00    +0.068 C 
ATOM     19  C   UNL     1      35.598 -22.202 -18.593  0.00  0.00    -0.101 C 
ATOM     20  H   UNL     1      35.236 -20.192 -18.593  0.00  0.00    -0.080 HD
ENDBRANCH   4  14
BRANCH  12  23
ATOM     21  O   UNL     1      33.726 -11.650 -25.759  0.00  0.00    -0.240 OA
ATOM     22  O   UNL     1      32.592 -13.125 -27.089  0.00  0.00    -0.240 OA
ATOM     23  C   UNL     1      33.263 -12.783 -26.075  0.00  0.00    +0.392 C 
ENDBRANCH  12  23
BRANCH   3  24
ATOM     24  C   UNL     1      33.706 -14.128 -21.357  0.00  0.00    +0.096 C 
ATOM     25  C   UNL     1      32.421 -13.393 -21.040  0.00  0.00    +0.024 C 
ENDBRANCH   3  24
TORSDOF 3
ENDMDL
MODEL 3
REMARK VINA RESULT:      -9.4      2.207      3.663
REMARK  Name = 6919009
REMARK  3 active torsions:
REMARK  status: ('A' for Active; 'I' for Inactive)
REMARK    1  A    between atoms: N_3  and  C_24
REMARK    2  A    between atoms: C_4  and  N_14
REMARK    3  A    between atoms: C_12  and  C_23
REMARK                            x       y       z     vdW  Elec       q    Type
REMARK                         _______ _______ _______ _____ _____    ______ ____
ROOT
ATOM      1  F   UNL     1      34.821 -11.762 -25.815  0.00  0.00    -0.203 F 
ATOM      2  O   UNL     1      33.339  -7.369 -23.866  0.00  0.00    -0.286 OA
ATOM      3  N   UNL     1      31.730 -10.214 -21.425  0.00  0.00    -0.286 N 
ATOM      4  C   UNL     1      33.526 -12.371 -23.924  0.00  0.00    +0.077 C 
ATOM      5  C   UNL     1      32.751 -11.994 -22.822  0.00  0.00    +0.032 C 
ATOM      6  C   UNL     1      32.507 -10.640 -22.527  0.00  0.00    +0.056 C 
ATOM      7  C   UNL     1      34.077 -11.405 -24.758  0.00  0.00    +0.153 C 
ATOM      8  C   UNL     1      33.080  -9.679 -23.392  0.00  0.00    +0.055 C 
ATOM      9  C   UNL     1      33.857 -10.057 -24.495  0.00  0.00    +0.035 C 
ATOM     10  C   UNL     1      32.860  -8.230 -23.137  0.00  0.00    +0.204 C 
ATOM     11  C   UNL     1      31.542  -8.861 -21.212  0.00  0.00    +0.075 C 
ATOM     12  C   UNL     1      32.033  -7.871 -21.961  0.00  0.00    +0.133 C 
ENDROOT
BRANCH   4  14
ATOM     13  N   UNL     1      33.998 -16.519 -24.658  0.00  0.00    +0.388 N 
ATOM     14  N   UNL     1      33.746 -13.729 -24.184  0.00  0.00    -0.310 N 
ATOM     15  C   UNL     1      33.616 -15.593 -25.785  0.00  0.00    -0.056 C 
ATOM     16  C   UNL     1      34.920 -15.831 -23.685  0.00  0.00    -0.056 C 
ATOM     17  C   UNL     1      32.916 -14.368 -25.213  0.00  0.00    +0.068 C 
ATOM     18  C   UNL     1      34.225 -14.604 -23.109  0.00  0.00    +0.068 C 
ATOM     19  C   UNL     1      34.577 -17.809 -25.165  0.00  0.00    -0.101 C 
ATOM     20  H   UNL     1      33.144 -16.761 -24.155  0.00  0.00    -0.080 HD
ENDBRANCH   4  14
BRANCH  12  23
ATOM     21  O   UNL     1      30.893  -5.852 -22.327  0.00  0.00    -0.240 OA
ATOM     22  O   UNL     1      32.343  -6.011 -20.565  0.00  0.00    -0.240 OA
ATOM     23  C   UNL     1      31.727  -6.441 -21.581  0.00  0.00    +0.392 C 
ENDBRANCH  12  23
BRANCH   3  24
ATOM     24  C   UNL     1      31.146 -11.221 -20.543  0.00  0.00    +0.096 C 
ATOM     25  C   UNL     1      31.399 -10.896 -19.085  0.00  0.00    +0.024 C 
ENDBRANCH   3  24
TORSDOF 3
ENDMDL
MODEL 4
REMARK VINA RESULT:      -9.1     11.024     13.819
REMARK  Name = 6919009
REMARK  3 active torsions:
REMARK  status: ('A' for Active; 'I' for Inactive)
REMARK    1  A    between atoms: N_3  and  C_24
REMARK    2  A    between atoms: C_4  and  N_14
REMARK    3  A    between atoms: C_12  and  C_23
REMARK                            x       y       z     vdW  Elec       q    Type
REMARK                         _______ _______ _______ _____ _____    ______ ____
ROOT
ATOM      1  F   UNL     1      34.822 -25.030 -12.539  0.00  0.00    -0.203 F 
ATOM      2  O   UNL     1      30.247 -23.394 -13.834  0.00  0.00    -0.286 OA
ATOM      3  N   UNL     1      32.512 -22.997 -17.203  0.00  0.00    -0.286 N 
ATOM      4  C   UNL     1      35.049 -24.406 -14.816  0.00  0.00    +0.077 C 
ATOM      5  C   UNL     1      34.481 -23.898 -15.989  0.00  0.00    +0.032 C 
ATOM      6  C   UNL     1      33.128 -23.515 -16.040  0.00  0.00    +0.056 C 
ATOM      7  C   UNL     1      34.282 -24.544 -13.666  0.00  0.00    +0.153 C 
ATOM      8  C   UNL     1      32.370 -23.666 -14.855  0.00  0.00    +0.055 C 
ATOM      9  C   UNL     1      32.940 -24.175 -13.681  0.00  0.00    +0.035 C 
ATOM     10  C   UNL     1      30.933 -23.279 -14.842  0.00  0.00    +0.204 C 
ATOM     11  C   UNL     1      31.175 -22.645 -17.162  0.00  0.00    +0.075 C 
ATOM     12  C   UNL     1      30.368 -22.745 -16.103  0.00  0.00    +0.133 C 
ENDROOT
BRANCH   4  14
ATOM     13  N   UNL     1      39.145 -25.486 -14.984  0.00  0.00    +0.388 N 
ATOM     14  N   UNL     1      36.400 -24.777 -14.805  0.00  0.00    -0.310 N 
ATOM     15  C   UNL     1      38.751 -24.081 -14.605  0.00  0.00    -0.056 C 
ATOM     16  C   UNL     1      38.138 -26.484 -14.473  0.00  0.00    -0.056 C 
ATOM     17  C   UNL     1      37.386 -23.764 -15.201  0.00  0.00    +0.068 C 
ATOM     18  C   UNL     1      36.770 -26.171 -15.065  0.00  0.00    +0.068 C 
ATOM     19  C   UNL     1      40.540 -25.817 -14.536  0.00  0.00    -0.101 C 
ATOM     20  H   UNL     1      39.145 -25.543 -16.003  0.00  0.00    -0.080 HD
ENDBRANCH   4  14
BRANCH  12  23
ATOM     21  O   UNL     1      28.427 -21.780 -15.203  0.00  0.00    -0.240 OA
ATOM     22  O   UNL     1      28.399 -22.537 -17.362  0.00  0.00    -0.240 OA
ATOM     23  C   UNL     1      28.926 -22.312 -16.236  0.00  0.00    +0.392 C 
ENDBRANCH  12  23
BRANCH   3  24
ATOM     24  C   UNL     1      33.310 -22.847 -18.417  0.00  0.00    +0.096 C 
ATOM     25  C   UNL     1      33.001 -21.546 -19.128  0.00  0.00    +0.024 C 
ENDBRANCH   3  24
TORSDOF 3
ENDMDL
MODEL 5
REMARK VINA RESULT:      -8.9      3.929      7.782
REMARK  Name = 6919009
REMARK  3 active torsions:
REMARK  status: ('A' for Active; 'I' for Inactive)
REMARK    1  A    between atoms: N_3  and  C_24
REMARK    2  A    between atoms: C_4  and  N_14
REMARK    3  A    between atoms: C_12  and  C_23
REMARK                            x       y       z     vdW  Elec       q    Type
REMARK                         _______ _______ _______ _____ _____    ______ ____
ROOT
ATOM      1  F   UNL     1      33.409 -11.989 -26.403  0.00  0.00    -0.203 F 
ATOM      2  O   UNL     1      34.267 -16.922 -25.946  0.00  0.00    -0.286 OA
ATOM      3  N   UNL     1      34.250 -15.487 -22.128  0.00  0.00    -0.286 N 
ATOM      4  C   UNL     1      33.605 -12.332 -24.064  0.00  0.00    +0.077 C 
ATOM      5  C   UNL     1      33.814 -13.199 -22.987  0.00  0.00    +0.032 C 
ATOM      6  C   UNL     1      34.034 -14.575 -23.187  0.00  0.00    +0.056 C 
ATOM      7  C   UNL     1      33.609 -12.816 -25.367  0.00  0.00    +0.153 C 
ATOM      8  C   UNL     1      34.033 -15.040 -24.522  0.00  0.00    +0.055 C 
ATOM      9  C   UNL     1      33.823 -14.171 -25.601  0.00  0.00    +0.035 C 
ATOM     10  C   UNL     1      34.259 -16.484 -24.802  0.00  0.00    +0.204 C 
ATOM     11  C   UNL     1      34.458 -16.824 -22.417  0.00  0.00    +0.075 C 
ATOM     12  C   UNL     1      34.477 -17.370 -23.636  0.00  0.00    +0.133 C 
ENDROOT
BRANCH   4  14
ATOM     13  N   UNL     1      33.096  -8.215 -23.191  0.00  0.00    +0.388 N 
ATOM     14  N   UNL     1      33.390 -10.969 -23.825  0.00  0.00    -0.310 N 
ATOM     15  C   UNL     1      34.060  -8.643 -24.268  0.00  0.00    -0.056 C 
ATOM     16  C   UNL     1      31.903  -9.135 -23.139  0.00  0.00    -0.056 C 
ATOM     17  C   UNL     1      34.534 -10.062 -23.983  0.00  0.00    +0.068 C 
ATOM     18  C   UNL     1      32.371 -10.556 -22.855  0.00  0.00    +0.068 C 
ATOM     19  C   UNL     1      32.690  -6.777 -23.342  0.00  0.00    -0.101 C 
ATOM     20  H   UNL     1      33.580  -8.289 -22.296  0.00  0.00    -0.080 HD
ENDBRANCH   4  14
BRANCH  12  23
ATOM     21  O   UNL     1      34.592 -19.319 -24.938  0.00  0.00    -0.240 OA
ATOM     22  O   UNL     1      35.019 -19.450 -22.695  0.00  0.00    -0.240 OA
ATOM     23  C   UNL     1      34.720 -18.856 -23.769  0.00  0.00    +0.392 C 
ENDBRANCH  12  23
BRANCH   3  24
ATOM     24  C   UNL     1      34.248 -14.988 -20.755  0.00  0.00    +0.096 C 
ATOM     25  C   UNL     1      32.854 -14.999 -20.163  0.00  0.00    +0.024 C 
ENDBRANCH   3  24
TORSDOF 3
ENDMDL
MODEL 6
REMARK VINA RESULT:      -8.7     13.174     15.014
REMARK  Name = 6919009
REMARK  3 active torsions:
REMARK  status: ('A' for Active; 'I' for Inactive)
REMARK    1  A    between atoms: N_3  and  C_24
REMARK    2  A    between atoms: C_4  and  N_14
REMARK    3  A    between atoms: C_12  and  C_23
REMARK                            x       y       z     vdW  Elec       q    Type
REMARK                         _______ _______ _______ _____ _____    ______ ____
ROOT
ATOM      1  F   UNL     1      31.095 -25.029 -13.069  0.00  0.00    -0.203 F 
ATOM      2  O   UNL     1      35.892 -25.187 -11.569  0.00  0.00    -0.286 OA
ATOM      3  N   UNL     1      35.966 -23.274 -15.171  0.00  0.00    -0.286 N 
ATOM      4  C   UNL     1      32.287 -23.950 -14.813  0.00  0.00    +0.077 C 
ATOM      5  C   UNL     1      33.501 -23.506 -15.348  0.00  0.00    +0.032 C 
ATOM      6  C   UNL     1      34.716 -23.705 -14.668  0.00  0.00    +0.056 C 
ATOM      7  C   UNL     1      32.256 -24.602 -13.586  0.00  0.00    +0.153 C 
ATOM      8  C   UNL     1      34.656 -24.370 -13.421  0.00  0.00    +0.055 C 
ATOM      9  C   UNL     1      33.440 -24.814 -12.886  0.00  0.00    +0.035 C 
ATOM     10  C   UNL     1      35.906 -24.612 -12.651  0.00  0.00    +0.204 C 
ATOM     11  C   UNL     1      37.112 -23.512 -14.434  0.00  0.00    +0.075 C 
ATOM     12  C   UNL     1      37.171 -24.128 -13.251  0.00  0.00    +0.133 C 
ENDROOT
BRANCH   4  14
ATOM     13  N   UNL     1      28.751 -23.433 -17.094  0.00  0.00    +0.388 N 
ATOM     14  N   UNL     1      31.098 -23.734 -15.521  0.00  0.00    -0.310 N 
ATOM     15  C   UNL     1      28.778 -24.427 -15.960  0.00  0.00    -0.056 C 
ATOM     16  C   UNL     1      29.610 -22.235 -16.781  0.00  0.00    -0.056 C 
ATOM     17  C   UNL     1      30.211 -24.886 -15.729  0.00  0.00    +0.068 C 
ATOM     18  C   UNL     1      31.046 -22.688 -16.547  0.00  0.00    +0.068 C 
ATOM     19  C   UNL     1      27.349 -23.038 -17.459  0.00  0.00    -0.101 C 
ATOM     20  H   UNL     1      29.148 -23.890 -17.915  0.00  0.00    -0.080 HD
ENDBRANCH   4  14
BRANCH  12  23
ATOM     21  O   UNL     1      38.782 -23.458 -11.681  0.00  0.00    -0.240 OA
ATOM     22  O   UNL     1      39.205 -25.273 -13.008  0.00  0.00    -0.240 OA
ATOM     23  C   UNL     1      38.515 -24.304 -12.582  0.00  0.00    +0.392 C 
ENDBRANCH  12  23
BRANCH   3  24
ATOM     24  C   UNL     1      36.009 -22.588 -16.460  0.00  0.00    +0.096 C 
ATOM     25  C   UNL     1      37.213 -21.675 -16.563  0.00  0.00    +0.024 C 
ENDBRANCH   3  24
TORSDOF 3
ENDMDL
MODEL 7
REMARK VINA RESULT:      -8.6      3.925      7.769
REMARK  Name = 6919009
REMARK  3 active torsions:
REMARK  status: ('A' for Active; 'I' for Inactive)
REMARK    1  A    between atoms: N_3  and  C_24
REMARK    2  A    between atoms: C_4  and  N_14
REMARK    3  A    between atoms: C_12  and  C_23
REMARK                            x       y       z     vdW  Elec       q    Type
REMARK                         _______ _______ _______ _____ _____    ______ ____
ROOT
ATOM      1  F   UNL     1      33.396 -12.054 -26.270  0.00  0.00    -0.203 F 
ATOM      2  O   UNL     1      34.212 -17.005 -25.923  0.00  0.00    -0.286 OA
ATOM      3  N   UNL     1      34.340 -15.633 -22.084  0.00  0.00    -0.286 N 
ATOM      4  C   UNL     1      33.667 -12.439 -23.946  0.00  0.00    +0.077 C 
ATOM      5  C   UNL     1      33.902 -13.327 -22.890  0.00  0.00    +0.032 C 
ATOM      6  C   UNL     1      34.099 -14.701 -23.120  0.00  0.00    +0.056 C 
ATOM      7  C   UNL     1      33.621 -12.901 -25.256  0.00  0.00    +0.153 C 
ATOM      8  C   UNL     1      34.048 -15.144 -24.462  0.00  0.00    +0.055 C 
ATOM      9  C   UNL     1      33.811 -14.255 -25.518  0.00  0.00    +0.035 C 
ATOM     10  C   UNL     1      34.248 -16.585 -24.773  0.00  0.00    +0.204 C 
ATOM     11  C   UNL     1      34.523 -16.967 -22.402  0.00  0.00    +0.075 C 
ATOM     12  C   UNL     1      34.495 -17.493 -23.629  0.00  0.00    +0.133 C 
ENDROOT
BRANCH   4  14
ATOM     13  N   UNL     1      32.935  -8.319 -23.269  0.00  0.00    +0.388 N 
ATOM     14  N   UNL     1      33.476 -11.078 -23.677  0.00  0.00    -0.310 N 
ATOM     15  C   UNL     1      32.276  -9.355 -22.393  0.00  0.00    -0.056 C 
ATOM     16  C   UNL     1      34.311  -8.765 -23.690  0.00  0.00    -0.056 C 
ATOM     17  C   UNL     1      32.164 -10.664 -23.162  0.00  0.00    +0.068 C 
ATOM     18  C   UNL     1      34.205 -10.075 -24.460  0.00  0.00    +0.068 C 
ATOM     19  C   UNL     1      32.959  -6.966 -22.615  0.00  0.00    -0.101 C 
ATOM     20  H   UNL     1      32.370  -8.224 -24.113  0.00  0.00    -0.080 HD
ENDBRANCH   4  14
BRANCH  12  23
ATOM     21  O   UNL     1      34.621 -19.408 -24.980  0.00  0.00    -0.240 OA
ATOM     22  O   UNL     1      34.966 -19.608 -22.728  0.00  0.00    -0.240 OA
ATOM     23  C   UNL     1      34.716 -18.979 -23.795  0.00  0.00    +0.392 C 
ENDBRANCH  12  23
BRANCH   3  24
ATOM     24  C   UNL     1      34.390 -15.157 -20.704  0.00  0.00    +0.096 C 
ATOM     25  C   UNL     1      33.004 -15.040 -20.107  0.00  0.00    +0.024 C 
ENDBRANCH   3  24
TORSDOF 3
ENDMDL
MODEL 8
REMARK VINA RESULT:      -8.4      3.235      7.574
REMARK  Name = 6919009
REMARK  3 active torsions:
REMARK  status: ('A' for Active; 'I' for Inactive)
REMARK    1  A    between atoms: N_3  and  C_24
REMARK    2  A    between atoms: C_4  and  N_14
REMARK    3  A    between atoms: C_12  and  C_23
REMARK                            x       y       z     vdW  Elec       q    Type
REMARK                         _______ _______ _______ _____ _____    ______ ____
ROOT
ATOM      1  F   UNL     1      30.827 -10.397 -20.160  0.00  0.00    -0.203 F 
ATOM      2  O   UNL     1      32.425 -15.002 -21.399  0.00  0.00    -0.286 OA
ATOM      3  N   UNL     1      33.766 -12.571 -24.386  0.00  0.00    -0.286 N 
ATOM      4  C   UNL     1      31.992 -10.081 -22.201  0.00  0.00    +0.077 C 
ATOM      5  C   UNL     1      32.729 -10.614 -23.264  0.00  0.00    +0.032 C 
ATOM      6  C   UNL     1      33.025 -11.988 -23.332  0.00  0.00    +0.056 C 
ATOM      7  C   UNL     1      31.534 -10.904 -21.180  0.00  0.00    +0.153 C 
ATOM      8  C   UNL     1      32.546 -12.803 -22.280  0.00  0.00    +0.055 C 
ATOM      9  C   UNL     1      31.809 -12.268 -21.216  0.00  0.00    +0.035 C 
ATOM     10  C   UNL     1      32.825 -14.265 -22.291  0.00  0.00    +0.204 C 
ATOM     11  C   UNL     1      34.010 -13.932 -24.372  0.00  0.00    +0.075 C 
ATOM     12  C   UNL     1      33.608 -14.792 -23.433  0.00  0.00    +0.133 C 
ENDROOT
BRANCH   4  14
ATOM     13  N   UNL     1      31.314  -5.896 -22.240  0.00  0.00    +0.388 N 
ATOM     14  N   UNL     1      31.718  -8.707 -22.169  0.00  0.00    -0.310 N 
ATOM     15  C   UNL     1      30.529  -6.795 -23.161  0.00  0.00    -0.056 C 
ATOM     16  C   UNL     1      31.603  -6.586 -20.932  0.00  0.00    -0.056 C 
ATOM     17  C   UNL     1      31.330  -8.062 -23.430  0.00  0.00    +0.068 C 
ATOM     18  C   UNL     1      32.404  -7.854 -21.194  0.00  0.00    +0.068 C 
ATOM     19  C   UNL     1      30.635  -4.571 -22.038  0.00  0.00    -0.101 C 
ATOM     20  H   UNL     1      32.209  -5.700 -22.689  0.00  0.00    -0.080 HD
ENDBRANCH   4  14
BRANCH  12  23
ATOM     21  O   UNL     1      34.292 -16.836 -22.503  0.00  0.00    -0.240 OA
ATOM     22  O   UNL     1      33.893 -16.712 -24.752  0.00  0.00    -0.240 OA
ATOM     23  C   UNL     1      33.965 -16.254 -23.577  0.00  0.00    +0.392 C 
ENDBRANCH  12  23
BRANCH   3  24
ATOM     24  C   UNL     1      34.253 -11.713 -25.464  0.00  0.00    +0.096 C 
ATOM     25  C   UNL     1      33.867 -12.257 -26.824  0.00  0.00    +0.024 C 
ENDBRANCH   3  24
TORSDOF 3
ENDMDL
MODEL 9
REMARK VINA RESULT:      -8.2     10.166     13.860
REMARK  Name = 6919009
REMARK  3 active torsions:
REMARK  status: ('A' for Active; 'I' for Inactive)
REMARK    1  A    between atoms: N_3  and  C_24
REMARK    2  A    between atoms: C_4  and  N_14
REMARK    3  A    between atoms: C_12  and  C_23
REMARK                            x       y       z     vdW  Elec       q    Type
REMARK                         _______ _______ _______ _____ _____    ______ ____
ROOT
ATOM      1  F   UNL     1      37.925 -21.319 -17.674  0.00  0.00    -0.203 F 
ATOM      2  O   UNL     1      37.921 -23.755 -13.275  0.00  0.00    -0.286 OA
ATOM      3  N   UNL     1      34.079 -23.988 -14.623  0.00  0.00    -0.286 N 
ATOM      4  C   UNL     1      35.680 -22.038 -17.407  0.00  0.00    +0.077 C 
ATOM      5  C   UNL     1      34.710 -22.704 -16.652  0.00  0.00    +0.032 C 
ATOM      6  C   UNL     1      35.027 -23.305 -15.420  0.00  0.00    +0.056 C 
ATOM      7  C   UNL     1      36.992 -21.956 -16.953  0.00  0.00    +0.153 C 
ATOM      8  C   UNL     1      36.368 -23.207 -14.981  0.00  0.00    +0.055 C 
ATOM      9  C   UNL     1      37.340 -22.541 -15.739  0.00  0.00    +0.035 C 
ATOM     10  C   UNL     1      36.770 -23.822 -13.687  0.00  0.00    +0.204 C 
ATOM     11  C   UNL     1      34.480 -24.549 -13.424  0.00  0.00    +0.075 C 
ATOM     12  C   UNL     1      35.714 -24.517 -12.915  0.00  0.00    +0.133 C 
ENDROOT
BRANCH   4  14
ATOM     13  N   UNL     1      34.576 -20.453 -21.181  0.00  0.00    +0.388 N 
ATOM     14  N   UNL     1      35.326 -21.452 -18.629  0.00  0.00    -0.310 N 
ATOM     15  C   UNL     1      33.538 -20.618 -20.100  0.00  0.00    -0.056 C 
ATOM     16  C   UNL     1      35.915 -20.093 -20.592  0.00  0.00    -0.056 C 
ATOM     17  C   UNL     1      33.977 -21.720 -19.145  0.00  0.00    +0.068 C 
ATOM     18  C   UNL     1      36.360 -21.192 -19.635  0.00  0.00    +0.068 C 
ATOM     19  C   UNL     1      34.141 -19.469 -22.230  0.00  0.00    -0.101 C 
ATOM     20  H   UNL     1      34.678 -21.353 -21.650  0.00  0.00    -0.080 HD
ENDBRANCH   4  14
BRANCH  12  23
ATOM     21  O   UNL     1      36.824 -26.124 -11.613  0.00  0.00    -0.240 OA
ATOM     22  O   UNL     1      35.315 -24.726 -10.613  0.00  0.00    -0.240 OA
ATOM     23  C   UNL     1      35.976 -25.186 -11.586  0.00  0.00    +0.392 C 
ENDBRANCH  12  23
BRANCH   3  24
ATOM     24  C   UNL     1      32.699 -24.079 -15.092  0.00  0.00    +0.096 C 
ATOM     25  C   UNL     1      31.787 -23.150 -14.317  0.00  0.00    +0.024 C 
ENDBRANCH   3  24
TORSDOF 3
ENDMDL
