MODEL 1
REMARK VINA RESULT:      -8.0      0.000      0.000
REMARK  Name = 16122570
REMARK  3 active torsions:
REMARK  status: ('A' for Active; 'I' for Inactive)
REMARK    1  A    between atoms: C_2  and  O_11
REMARK    2  A    between atoms: C_2  and  C_14
REMARK    3  A    between atoms: C_14  and  O_15
REMARK                            x       y       z     vdW  Elec       q    Type
REMARK                         _______ _______ _______ _____ _____    ______ ____
ROOT
ATOM      1  O   UNL     1      34.116 -18.895 -21.447  0.00  0.00    -0.446 OA
ATOM      2  C   UNL     1      35.244 -18.164 -21.935  0.00  0.00    +0.337 C 
ATOM      3  C   UNL     1      35.604 -20.396 -20.234  0.00  0.00    +0.034 C 
ATOM      4  C   UNL     1      34.331 -19.962 -20.620  0.00  0.00    +0.142 C 
ATOM      5  C   UNL     1      36.603 -18.640 -21.515  0.00  0.00    +0.054 C 
ATOM      6  C   UNL     1      36.782 -19.694 -20.715  0.00  0.00    +0.005 C 
ATOM      7  C   UNL     1      35.726 -21.503 -19.386  0.00  0.00    +0.003 C 
ATOM      8  C   UNL     1      33.193 -20.629 -20.162  0.00  0.00    +0.037 C 
ATOM      9  C   UNL     1      34.587 -22.167 -18.929  0.00  0.00    +0.000 C 
ATOM     10  C   UNL     1      33.322 -21.731 -19.317  0.00  0.00    +0.003 C 
ENDROOT
BRANCH   2  11
ATOM     11  O   UNL     1      35.093 -16.775 -21.670  0.00  0.00    -0.343 OA
ATOM     12  H   UNL     1      35.923 -16.420 -21.316  0.00  0.00    +0.215 HD
ENDBRANCH   2  11
BRANCH   2  14
ATOM     13  O   UNL     1      34.892 -19.306 -24.036  0.00  0.00    -0.243 OA
ATOM     14  C   UNL     1      35.198 -18.292 -23.428  0.00  0.00    +0.383 C 
BRANCH  14  15
ATOM     15  O   UNL     1      35.546 -17.122 -24.018  0.00  0.00    -0.476 OA
ATOM     16  H   UNL     1      35.712 -16.364 -23.494  0.00  0.00    +0.295 HD
ENDBRANCH  14  15
ENDBRANCH   2  14
TORSDOF 3
ENDMDL
MODEL 2
REMARK VINA RESULT:      -7.7      1.156      2.482
REMARK  Name = 16122570
REMARK  3 active torsions:
REMARK  status: ('A' for Active; 'I' for Inactive)
REMARK    1  A    between atoms: C_2  and  O_11
REMARK    2  A    between atoms: C_2  and  C_14
REMARK    3  A    between atoms: C_14  and  O_15
REMARK                            x       y       z     vdW  Elec       q    Type
REMARK                         _______ _______ _______ _____ _____    ______ ____
ROOT
ATOM      1  O   UNL     1      36.009 -19.321 -21.111  0.00  0.00    -0.446 OA
ATOM      2  C   UNL     1      35.109 -18.611 -21.965  0.00  0.00    +0.337 C 
ATOM      3  C   UNL     1      34.147 -20.603 -20.201  0.00  0.00    +0.034 C 
ATOM      4  C   UNL     1      35.506 -20.283 -20.279  0.00  0.00    +0.142 C 
ATOM      5  C   UNL     1      33.654 -18.963 -21.871  0.00  0.00    +0.054 C 
ATOM      6  C   UNL     1      33.192 -19.900 -21.040  0.00  0.00    +0.005 C 
ATOM      7  C   UNL     1      33.725 -21.601 -19.316  0.00  0.00    +0.003 C 
ATOM      8  C   UNL     1      36.433 -20.954 -19.478  0.00  0.00    +0.037 C 
ATOM      9  C   UNL     1      34.652 -22.271 -18.517  0.00  0.00    +0.000 C 
ATOM     10  C   UNL     1      36.005 -21.948 -18.598  0.00  0.00    +0.003 C 
ENDROOT
BRANCH   2  11
ATOM     11  O   UNL     1      35.554 -18.664 -23.315  0.00  0.00    -0.343 OA
ATOM     12  H   UNL     1      35.661 -17.762 -23.656  0.00  0.00    +0.215 HD
ENDBRANCH   2  11
BRANCH   2  14
ATOM     13  O   UNL     1      35.246 -16.762 -20.415  0.00  0.00    -0.243 OA
ATOM     14  C   UNL     1      35.219 -17.171 -21.566  0.00  0.00    +0.383 C 
BRANCH  14  15
ATOM     15  O   UNL     1      35.283 -16.375 -22.662  0.00  0.00    -0.476 OA
ATOM     16  H   UNL     1      36.102 -16.240 -23.096  0.00  0.00    +0.295 HD
ENDBRANCH  14  15
ENDBRANCH   2  14
TORSDOF 3
ENDMDL
MODEL 3
REMARK VINA RESULT:      -7.6      7.151      9.088
REMARK  Name = 16122570
REMARK  3 active torsions:
REMARK  status: ('A' for Active; 'I' for Inactive)
REMARK    1  A    between atoms: C_2  and  O_11
REMARK    2  A    between atoms: C_2  and  C_14
REMARK    3  A    between atoms: C_14  and  O_15
REMARK                            x       y       z     vdW  Elec       q    Type
REMARK                         _______ _______ _______ _____ _____    ______ ____
ROOT
ATOM      1  O   UNL     1      29.703 -23.149 -16.964  0.00  0.00    -0.446 OA
ATOM      2  C   UNL     1      28.470 -23.697 -16.493  0.00  0.00    +0.337 C 
ATOM      3  C   UNL     1      30.882 -24.183 -15.099  0.00  0.00    +0.034 C 
ATOM      4  C   UNL     1      30.849 -23.415 -16.267  0.00  0.00    +0.142 C 
ATOM      5  C   UNL     1      28.518 -24.518 -15.239  0.00  0.00    +0.054 C 
ATOM      6  C   UNL     1      29.652 -24.750 -14.573  0.00  0.00    +0.005 C 
ATOM      7  C   UNL     1      32.104 -24.398 -14.450  0.00  0.00    +0.003 C 
ATOM      8  C   UNL     1      32.027 -22.867 -16.780  0.00  0.00    +0.037 C 
ATOM      9  C   UNL     1      33.279 -23.851 -14.965  0.00  0.00    +0.000 C 
ATOM     10  C   UNL     1      33.241 -23.086 -16.129  0.00  0.00    +0.003 C 
ENDROOT
BRANCH   2  11
ATOM     11  O   UNL     1      27.808 -24.405 -17.534  0.00  0.00    -0.343 OA
ATOM     12  H   UNL     1      27.820 -23.875 -18.346  0.00  0.00    +0.215 HD
ENDBRANCH   2  11
BRANCH   2  14
ATOM     13  O   UNL     1      26.896 -22.403 -15.193  0.00  0.00    -0.243 OA
ATOM     14  C   UNL     1      27.590 -22.521 -16.191  0.00  0.00    +0.383 C 
BRANCH  14  15
ATOM     15  O   UNL     1      27.668 -21.599 -17.181  0.00  0.00    -0.476 OA
ATOM     16  H   UNL     1      27.402 -21.822 -18.051  0.00  0.00    +0.295 HD
ENDBRANCH  14  15
ENDBRANCH   2  14
TORSDOF 3
ENDMDL
MODEL 4
REMARK VINA RESULT:      -7.5     11.097     13.320
REMARK  Name = 16122570
REMARK  3 active torsions:
REMARK  status: ('A' for Active; 'I' for Inactive)
REMARK    1  A    between atoms: C_2  and  O_11
REMARK    2  A    between atoms: C_2  and  C_14
REMARK    3  A    between atoms: C_14  and  O_15
REMARK                            x       y       z     vdW  Elec       q    Type
REMARK                         _______ _______ _______ _____ _____    ______ ____
ROOT
ATOM      1  O   UNL     1      33.720  -7.736 -21.735  0.00  0.00    -0.446 OA
ATOM      2  C   UNL     1      32.737  -7.588 -20.708  0.00  0.00    +0.337 C 
ATOM      3  C   UNL     1      32.423  -6.282 -23.198  0.00  0.00    +0.034 C 
ATOM      4  C   UNL     1      33.537  -7.080 -22.921  0.00  0.00    +0.142 C 
ATOM      5  C   UNL     1      31.546  -6.730 -21.018  0.00  0.00    +0.054 C 
ATOM      6  C   UNL     1      31.389  -6.113 -22.191  0.00  0.00    +0.005 C 
ATOM      7  C   UNL     1      32.319  -5.654 -24.444  0.00  0.00    +0.003 C 
ATOM      8  C   UNL     1      34.537  -7.249 -23.882  0.00  0.00    +0.037 C 
ATOM      9  C   UNL     1      33.319  -5.821 -25.402  0.00  0.00    +0.000 C 
ATOM     10  C   UNL     1      34.427  -6.619 -25.121  0.00  0.00    +0.003 C 
ENDROOT
BRANCH   2  11
ATOM     11  O   UNL     1      33.344  -7.185 -19.487  0.00  0.00    -0.343 OA
ATOM     12  H   UNL     1      33.859  -6.376 -19.633  0.00  0.00    +0.215 HD
ENDBRANCH   2  11
BRANCH   2  14
ATOM     13  O   UNL     1      31.538  -9.619 -21.241  0.00  0.00    -0.243 OA
ATOM     14  C   UNL     1      32.205  -8.966 -20.452  0.00  0.00    +0.383 C 
BRANCH  14  15
ATOM     15  O   UNL     1      32.565  -9.395 -19.218  0.00  0.00    -0.476 OA
ATOM     16  H   UNL     1      32.092  -9.104 -18.463  0.00  0.00    +0.295 HD
ENDBRANCH  14  15
ENDBRANCH   2  14
TORSDOF 3
ENDMDL
MODEL 5
REMARK VINA RESULT:      -7.5      8.430     10.111
REMARK  Name = 16122570
REMARK  3 active torsions:
REMARK  status: ('A' for Active; 'I' for Inactive)
REMARK    1  A    between atoms: C_2  and  O_11
REMARK    2  A    between atoms: C_2  and  C_14
REMARK    3  A    between atoms: C_14  and  O_15
REMARK                            x       y       z     vdW  Elec       q    Type
REMARK                         _______ _______ _______ _____ _____    ______ ____
ROOT
ATOM      1  O   UNL     1      34.793 -24.558 -12.359  0.00  0.00    -0.446 OA
ATOM      2  C   UNL     1      36.202 -24.715 -12.174  0.00  0.00    +0.337 C 
ATOM      3  C   UNL     1      35.170 -23.798 -14.643  0.00  0.00    +0.034 C 
ATOM      4  C   UNL     1      34.333 -24.121 -13.570  0.00  0.00    +0.142 C 
ATOM      5  C   UNL     1      37.089 -24.365 -13.333  0.00  0.00    +0.054 C 
ATOM      6  C   UNL     1      36.610 -23.929 -14.500  0.00  0.00    +0.005 C 
ATOM      7  C   UNL     1      34.607 -23.354 -15.845  0.00  0.00    +0.003 C 
ATOM      8  C   UNL     1      32.948 -24.001 -13.698  0.00  0.00    +0.037 C 
ATOM      9  C   UNL     1      33.222 -23.236 -15.972  0.00  0.00    +0.000 C 
ATOM     10  C   UNL     1      32.393 -23.558 -14.900  0.00  0.00    +0.003 C 
ENDROOT
BRANCH   2  11
ATOM     11  O   UNL     1      36.501 -26.018 -11.688  0.00  0.00    -0.343 OA
ATOM     12  H   UNL     1      35.680 -26.459 -11.417  0.00  0.00    +0.215 HD
ENDBRANCH   2  11
BRANCH   2  14
ATOM     13  O   UNL     1      37.264 -22.780 -11.190  0.00  0.00    -0.243 OA
ATOM     14  C   UNL     1      36.575 -23.781 -11.063  0.00  0.00    +0.383 C 
BRANCH  14  15
ATOM     15  O   UNL     1      36.042 -24.198  -9.889  0.00  0.00    -0.476 OA
ATOM     16  H   UNL     1      36.425 -23.929  -9.078  0.00  0.00    +0.295 HD
ENDBRANCH  14  15
ENDBRANCH   2  14
TORSDOF 3
ENDMDL
MODEL 6
REMARK VINA RESULT:      -7.5      2.413      4.933
REMARK  Name = 16122570
REMARK  3 active torsions:
REMARK  status: ('A' for Active; 'I' for Inactive)
REMARK    1  A    between atoms: C_2  and  O_11
REMARK    2  A    between atoms: C_2  and  C_14
REMARK    3  A    between atoms: C_14  and  O_15
REMARK                            x       y       z     vdW  Elec       q    Type
REMARK                         _______ _______ _______ _____ _____    ______ ____
ROOT
ATOM      1  O   UNL     1      35.064 -17.751 -20.649  0.00  0.00    -0.446 OA
ATOM      2  C   UNL     1      35.314 -19.057 -21.172  0.00  0.00    +0.337 C 
ATOM      3  C   UNL     1      34.831 -16.880 -22.913  0.00  0.00    +0.034 C 
ATOM      4  C   UNL     1      34.825 -16.727 -21.523  0.00  0.00    +0.142 C 
ATOM      5  C   UNL     1      35.319 -19.209 -22.665  0.00  0.00    +0.054 C 
ATOM      6  C   UNL     1      35.094 -18.187 -23.493  0.00  0.00    +0.005 C 
ATOM      7  C   UNL     1      34.580 -15.772 -23.729  0.00  0.00    +0.003 C 
ATOM      8  C   UNL     1      34.572 -15.476 -20.956  0.00  0.00    +0.037 C 
ATOM      9  C   UNL     1      34.326 -14.523 -23.161  0.00  0.00    +0.000 C 
ATOM     10  C   UNL     1      34.322 -14.375 -21.775  0.00  0.00    +0.003 C 
ENDROOT
BRANCH   2  11
ATOM     11  O   UNL     1      34.448 -20.011 -20.571  0.00  0.00    -0.343 OA
ATOM     12  H   UNL     1      33.712 -19.553 -20.137  0.00  0.00    +0.215 HD
ENDBRANCH   2  11
BRANCH   2  14
ATOM     13  O   UNL     1      37.729 -19.091 -21.261  0.00  0.00    -0.243 OA
ATOM     14  C   UNL     1      36.692 -19.425 -20.709  0.00  0.00    +0.383 C 
BRANCH  14  15
ATOM     15  O   UNL     1      36.633 -20.184 -19.588  0.00  0.00    -0.476 OA
ATOM     16  H   UNL     1      37.358 -20.727 -19.350  0.00  0.00    +0.295 HD
ENDBRANCH  14  15
ENDBRANCH   2  14
TORSDOF 3
ENDMDL
MODEL 7
REMARK VINA RESULT:      -7.3      7.381      9.318
REMARK  Name = 16122570
REMARK  3 active torsions:
REMARK  status: ('A' for Active; 'I' for Inactive)
REMARK    1  A    between atoms: C_2  and  O_11
REMARK    2  A    between atoms: C_2  and  C_14
REMARK    3  A    between atoms: C_14  and  O_15
REMARK                            x       y       z     vdW  Elec       q    Type
REMARK                         _______ _______ _______ _____ _____    ______ ____
ROOT
ATOM      1  O   UNL     1      38.518 -23.690 -14.821  0.00  0.00    -0.446 OA
ATOM      2  C   UNL     1      38.709 -24.724 -13.853  0.00  0.00    +0.337 C 
ATOM      3  C   UNL     1      36.175 -24.321 -15.044  0.00  0.00    +0.034 C 
ATOM      4  C   UNL     1      37.275 -23.521 -15.367  0.00  0.00    +0.142 C 
ATOM      5  C   UNL     1      37.521 -25.575 -13.515  0.00  0.00    +0.054 C 
ATOM      6  C   UNL     1      36.323 -25.394 -14.075  0.00  0.00    +0.005 C 
ATOM      7  C   UNL     1      34.941 -24.076 -15.658  0.00  0.00    +0.003 C 
ATOM      8  C   UNL     1      37.143 -22.487 -16.296  0.00  0.00    +0.037 C 
ATOM      9  C   UNL     1      34.811 -23.041 -16.584  0.00  0.00    +0.000 C 
ATOM     10  C   UNL     1      35.910 -22.247 -16.904  0.00  0.00    +0.003 C 
ENDROOT
BRANCH   2  11
ATOM     11  O   UNL     1      39.305 -24.200 -12.673  0.00  0.00    -0.343 OA
ATOM     12  H   UNL     1      38.780 -23.451 -12.350  0.00  0.00    +0.215 HD
ENDBRANCH   2  11
BRANCH   2  14
ATOM     13  O   UNL     1      39.541 -26.820 -14.723  0.00  0.00    -0.243 OA
ATOM     14  C   UNL     1      39.734 -25.647 -14.439  0.00  0.00    +0.383 C 
BRANCH  14  15
ATOM     15  O   UNL     1      40.914 -25.003 -14.613  0.00  0.00    -0.476 OA
ATOM     16  H   UNL     1      41.719 -25.477 -14.559  0.00  0.00    +0.295 HD
ENDBRANCH  14  15
ENDBRANCH   2  14
TORSDOF 3
ENDMDL
MODEL 8
REMARK VINA RESULT:      -7.2      2.345      5.224
REMARK  Name = 16122570
REMARK  3 active torsions:
REMARK  status: ('A' for Active; 'I' for Inactive)
REMARK    1  A    between atoms: C_2  and  O_11
REMARK    2  A    between atoms: C_2  and  C_14
REMARK    3  A    between atoms: C_14  and  O_15
REMARK                            x       y       z     vdW  Elec       q    Type
REMARK                         _______ _______ _______ _____ _____    ______ ____
ROOT
ATOM      1  O   UNL     1      35.206 -18.263 -23.106  0.00  0.00    -0.446 OA
ATOM      2  C   UNL     1      35.488 -18.295 -21.705  0.00  0.00    +0.337 C 
ATOM      3  C   UNL     1      34.299 -16.013 -22.881  0.00  0.00    +0.034 C 
ATOM      4  C   UNL     1      34.639 -17.138 -23.638  0.00  0.00    +0.142 C 
ATOM      5  C   UNL     1      35.118 -17.082 -20.904  0.00  0.00    +0.054 C 
ATOM      6  C   UNL     1      34.554 -16.002 -21.450  0.00  0.00    +0.005 C 
ATOM      7  C   UNL     1      33.718 -14.908 -23.513  0.00  0.00    +0.003 C 
ATOM      8  C   UNL     1      34.399 -17.157 -25.014  0.00  0.00    +0.037 C 
ATOM      9  C   UNL     1      33.480 -14.928 -24.888  0.00  0.00    +0.000 C 
ATOM     10  C   UNL     1      33.820 -16.052 -25.638  0.00  0.00    +0.003 C 
ENDROOT
BRANCH   2  11
ATOM     11  O   UNL     1      36.844 -18.655 -21.477  0.00  0.00    -0.343 OA
ATOM     12  H   UNL     1      37.108 -18.379 -20.585  0.00  0.00    +0.215 HD
ENDBRANCH   2  11
BRANCH   2  14
ATOM     13  O   UNL     1      33.551 -19.728 -21.517  0.00  0.00    -0.243 OA
ATOM     14  C   UNL     1      34.677 -19.427 -21.151  0.00  0.00    +0.383 C 
BRANCH  14  15
ATOM     15  O   UNL     1      35.365 -20.078 -20.182  0.00  0.00    -0.476 OA
ATOM     16  H   UNL     1      36.012 -20.715 -20.413  0.00  0.00    +0.295 HD
ENDBRANCH  14  15
ENDBRANCH   2  14
TORSDOF 3
ENDMDL
MODEL 9
REMARK VINA RESULT:      -7.2      8.029     10.052
REMARK  Name = 16122570
REMARK  3 active torsions:
REMARK  status: ('A' for Active; 'I' for Inactive)
REMARK    1  A    between atoms: C_2  and  O_11
REMARK    2  A    between atoms: C_2  and  C_14
REMARK    3  A    between atoms: C_14  and  O_15
REMARK                            x       y       z     vdW  Elec       q    Type
REMARK                         _______ _______ _______ _____ _____    ______ ____
ROOT
ATOM      1  O   UNL     1      35.035 -24.736 -12.748  0.00  0.00    -0.446 OA
ATOM      2  C   UNL     1      36.337 -24.835 -12.166  0.00  0.00    +0.337 C 
ATOM      3  C   UNL     1      35.983 -23.619 -14.695  0.00  0.00    +0.034 C 
ATOM      4  C   UNL     1      34.907 -24.150 -13.977  0.00  0.00    +0.142 C 
ATOM      5  C   UNL     1      37.482 -24.261 -12.946  0.00  0.00    +0.054 C 
ATOM      6  C   UNL     1      37.324 -23.683 -14.139  0.00  0.00    +0.005 C 
ATOM      7  C   UNL     1      35.754 -23.033 -15.946  0.00  0.00    +0.003 C 
ATOM      8  C   UNL     1      33.615 -24.094 -14.504  0.00  0.00    +0.037 C 
ATOM      9  C   UNL     1      34.463 -22.980 -16.471  0.00  0.00    +0.000 C 
ATOM     10  C   UNL     1      33.394 -23.509 -15.751  0.00  0.00    +0.003 C 
ENDROOT
BRANCH   2  11
ATOM     11  O   UNL     1      36.611 -26.175 -11.779  0.00  0.00    -0.343 OA
ATOM     12  H   UNL     1      35.820 -26.721 -11.915  0.00  0.00    +0.215 HD
ENDBRANCH   2  11
BRANCH   2  14
ATOM     13  O   UNL     1      35.544 -24.324  -9.940  0.00  0.00    -0.243 OA
ATOM     14  C   UNL     1      36.271 -24.058 -10.885  0.00  0.00    +0.383 C 
BRANCH  14  15
ATOM     15  O   UNL     1      37.131 -23.011 -10.917  0.00  0.00    -0.476 OA
ATOM     16  H   UNL     1      37.460 -22.699 -11.736  0.00  0.00    +0.295 HD
ENDBRANCH  14  15
ENDBRANCH   2  14
TORSDOF 3
ENDMDL
