MODEL 1
REMARK VINA RESULT:      -3.8      0.000      0.000
REMARK  Name = 4837
REMARK  0 active torsions:
REMARK  status: ('A' for Active; 'I' for Inactive)
REMARK                            x       y       z     vdW  Elec       q    Type
REMARK                         _______ _______ _______ _____ _____    ______ ____
ROOT
ATOM      1  N   UNL     1      32.954 -21.794 -19.859  0.00  0.00    +0.381 N 
ATOM      2  N   UNL     1      35.500 -20.414 -19.908  0.00  0.00    +0.381 N 
ATOM      3  C   UNL     1      33.039 -20.371 -20.187  0.00  0.00    -0.106 C 
ATOM      4  C   UNL     1      34.048 -22.191 -18.973  0.00  0.00    -0.106 C 
ATOM      5  C   UNL     1      34.400 -20.026 -20.793  0.00  0.00    -0.106 C 
ATOM      6  C   UNL     1      35.406 -21.840 -19.583  0.00  0.00    -0.106 C 
ATOM      7  H   UNL     1      33.005 -22.340 -20.719  0.00  0.00    -0.085 HD
ATOM      8  H   UNL     1      32.069 -21.966 -19.381  0.00  0.00    -0.085 HD
ATOM      9  H   UNL     1      35.450 -19.868 -19.048  0.00  0.00    -0.085 HD
ATOM     10  H   UNL     1      36.387 -20.237 -20.380  0.00  0.00    -0.085 HD
ENDROOT
TORSDOF 0
ENDMDL
MODEL 2
REMARK VINA RESULT:      -3.8      0.218      2.092
REMARK  Name = 4837
REMARK  0 active torsions:
REMARK  status: ('A' for Active; 'I' for Inactive)
REMARK                            x       y       z     vdW  Elec       q    Type
REMARK                         _______ _______ _______ _____ _____    ______ ____
ROOT
ATOM      1  N   UNL     1      35.414 -20.202 -20.105  0.00  0.00    +0.381 N 
ATOM      2  N   UNL     1      32.998 -21.780 -19.856  0.00  0.00    +0.381 N 
ATOM      3  C   UNL     1      34.227 -19.902 -20.905  0.00  0.00    -0.106 C 
ATOM      4  C   UNL     1      35.469 -21.624 -19.768  0.00  0.00    -0.106 C 
ATOM      5  C   UNL     1      32.953 -20.355 -20.191  0.00  0.00    -0.106 C 
ATOM      6  C   UNL     1      34.192 -22.072 -19.057  0.00  0.00    -0.106 C 
ATOM      7  H   UNL     1      35.386 -19.655 -19.246  0.00  0.00    -0.085 HD
ATOM      8  H   UNL     1      36.243 -19.964 -20.651  0.00  0.00    -0.085 HD
ATOM      9  H   UNL     1      33.026 -22.328 -20.715  0.00  0.00    -0.085 HD
ATOM     10  H   UNL     1      32.167 -22.023 -19.315  0.00  0.00    -0.085 HD
ENDROOT
TORSDOF 0
ENDMDL
MODEL 3
REMARK VINA RESULT:      -3.6      8.845      8.991
REMARK  Name = 4837
REMARK  0 active torsions:
REMARK  status: ('A' for Active; 'I' for Inactive)
REMARK                            x       y       z     vdW  Elec       q    Type
REMARK                         _______ _______ _______ _____ _____    ______ ____
ROOT
ATOM      1  N   UNL     1      35.886 -25.214 -12.642  0.00  0.00    +0.381 N 
ATOM      2  N   UNL     1      38.213 -23.830 -11.612  0.00  0.00    +0.381 N 
ATOM      3  C   UNL     1      35.762 -24.192 -11.602  0.00  0.00    -0.106 C 
ATOM      4  C   UNL     1      37.191 -25.872 -12.573  0.00  0.00    -0.106 C 
ATOM      5  C   UNL     1      36.903 -23.178 -11.687  0.00  0.00    -0.106 C 
ATOM      6  C   UNL     1      38.328 -24.853 -12.655  0.00  0.00    -0.106 C 
ATOM      7  H   UNL     1      35.781 -24.775 -13.557  0.00  0.00    -0.085 HD
ATOM      8  H   UNL     1      35.159 -25.915 -12.498  0.00  0.00    -0.085 HD
ATOM      9  H   UNL     1      38.319 -24.268 -10.697  0.00  0.00    -0.085 HD
ATOM     10  H   UNL     1      38.943 -23.130 -11.749  0.00  0.00    -0.085 HD
ENDROOT
TORSDOF 0
ENDMDL
MODEL 4
REMARK VINA RESULT:      -3.6      0.759      2.103
REMARK  Name = 4837
REMARK  0 active torsions:
REMARK  status: ('A' for Active; 'I' for Inactive)
REMARK                            x       y       z     vdW  Elec       q    Type
REMARK                         _______ _______ _______ _____ _____    ______ ____
ROOT
ATOM      1  N   UNL     1      32.727 -20.834 -19.528  0.00  0.00    +0.381 N 
ATOM      2  N   UNL     1      35.319 -20.495 -20.778  0.00  0.00    +0.381 N 
ATOM      3  C   UNL     1      33.757 -21.868 -19.430  0.00  0.00    -0.106 C 
ATOM      4  C   UNL     1      32.879 -20.063 -20.762  0.00  0.00    -0.106 C 
ATOM      5  C   UNL     1      35.157 -21.263 -19.541  0.00  0.00    -0.106 C 
ATOM      6  C   UNL     1      34.282 -19.464 -20.869  0.00  0.00    -0.106 C 
ATOM      7  H   UNL     1      32.807 -20.205 -18.729  0.00  0.00    -0.085 HD
ATOM      8  H   UNL     1      31.812 -21.285 -19.536  0.00  0.00    -0.085 HD
ATOM      9  H   UNL     1      35.240 -21.124 -21.577  0.00  0.00    -0.085 HD
ATOM     10  H   UNL     1      36.236 -20.048 -20.776  0.00  0.00    -0.085 HD
ENDROOT
TORSDOF 0
ENDMDL
MODEL 5
REMARK VINA RESULT:      -3.6      8.818      9.184
REMARK  Name = 4837
REMARK  0 active torsions:
REMARK  status: ('A' for Active; 'I' for Inactive)
REMARK                            x       y       z     vdW  Elec       q    Type
REMARK                         _______ _______ _______ _____ _____    ______ ____
ROOT
ATOM      1  N   UNL     1      38.190 -23.859 -11.605  0.00  0.00    +0.381 N 
ATOM      2  N   UNL     1      35.844 -25.178 -12.677  0.00  0.00    +0.381 N 
ATOM      3  C   UNL     1      36.904 -23.166 -11.693  0.00  0.00    -0.106 C 
ATOM      4  C   UNL     1      38.304 -24.880 -12.645  0.00  0.00    -0.106 C 
ATOM      5  C   UNL     1      35.740 -24.156 -11.633  0.00  0.00    -0.106 C 
ATOM      6  C   UNL     1      37.136 -25.865 -12.582  0.00  0.00    -0.106 C 
ATOM      7  H   UNL     1      38.268 -24.303 -10.690  0.00  0.00    -0.085 HD
ATOM      8  H   UNL     1      38.937 -23.177 -11.734  0.00  0.00    -0.085 HD
ATOM      9  H   UNL     1      35.765 -24.735 -13.592  0.00  0.00    -0.085 HD
ATOM     10  H   UNL     1      35.094 -25.859 -12.554  0.00  0.00    -0.085 HD
ENDROOT
TORSDOF 0
ENDMDL
MODEL 6
REMARK VINA RESULT:      -3.6      4.103      5.180
REMARK  Name = 4837
REMARK  0 active torsions:
REMARK  status: ('A' for Active; 'I' for Inactive)
REMARK                            x       y       z     vdW  Elec       q    Type
REMARK                         _______ _______ _______ _____ _____    ______ ____
ROOT
ATOM      1  N   UNL     1      34.579 -18.971 -22.599  0.00  0.00    +0.381 N 
ATOM      2  N   UNL     1      35.412 -16.681 -24.165  0.00  0.00    +0.381 N 
ATOM      3  C   UNL     1      35.355 -17.885 -22.001  0.00  0.00    -0.106 C 
ATOM      4  C   UNL     1      34.872 -19.095 -24.027  0.00  0.00    -0.106 C 
ATOM      5  C   UNL     1      35.114 -16.566 -22.736  0.00  0.00    -0.106 C 
ATOM      6  C   UNL     1      34.632 -17.773 -24.756  0.00  0.00    -0.106 C 
ATOM      7  H   UNL     1      33.585 -18.780 -22.477  0.00  0.00    -0.085 HD
ATOM      8  H   UNL     1      34.832 -19.845 -22.138  0.00  0.00    -0.085 HD
ATOM      9  H   UNL     1      36.406 -16.872 -24.289  0.00  0.00    -0.085 HD
ATOM     10  H   UNL     1      35.166 -15.806 -24.629  0.00  0.00    -0.085 HD
ENDROOT
TORSDOF 0
ENDMDL
MODEL 7
REMARK VINA RESULT:      -3.6      4.090      5.407
REMARK  Name = 4837
REMARK  0 active torsions:
REMARK  status: ('A' for Active; 'I' for Inactive)
REMARK                            x       y       z     vdW  Elec       q    Type
REMARK                         _______ _______ _______ _____ _____    ______ ____
ROOT
ATOM      1  N   UNL     1      35.404 -16.672 -24.151  0.00  0.00    +0.381 N 
ATOM      2  N   UNL     1      34.583 -19.028 -22.679  0.00  0.00    +0.381 N 
ATOM      3  C   UNL     1      35.158 -16.619 -22.710  0.00  0.00    -0.106 C 
ATOM      4  C   UNL     1      34.592 -17.714 -24.779  0.00  0.00    -0.106 C 
ATOM      5  C   UNL     1      35.399 -17.981 -22.059  0.00  0.00    -0.106 C 
ATOM      6  C   UNL     1      34.834 -19.074 -24.122  0.00  0.00    -0.106 C 
ATOM      7  H   UNL     1      36.391 -16.872 -24.315  0.00  0.00    -0.085 HD
ATOM      8  H   UNL     1      35.151 -15.772 -24.558  0.00  0.00    -0.085 HD
ATOM      9  H   UNL     1      33.597 -18.829 -22.514  0.00  0.00    -0.085 HD
ATOM     10  H   UNL     1      34.829 -19.930 -22.269  0.00  0.00    -0.085 HD
ENDROOT
TORSDOF 0
ENDMDL
MODEL 8
REMARK VINA RESULT:      -3.5      0.645      2.804
REMARK  Name = 4837
REMARK  0 active torsions:
REMARK  status: ('A' for Active; 'I' for Inactive)
REMARK                            x       y       z     vdW  Elec       q    Type
REMARK                         _______ _______ _______ _____ _____    ______ ____
ROOT
ATOM      1  N   UNL     1      35.602 -20.966 -20.366  0.00  0.00    +0.381 N 
ATOM      2  N   UNL     1      32.842 -20.901 -19.488  0.00  0.00    +0.381 N 
ATOM      3  C   UNL     1      35.180 -21.643 -19.140  0.00  0.00    -0.106 C 
ATOM      4  C   UNL     1      34.744 -19.815 -20.647  0.00  0.00    -0.106 C 
ATOM      5  C   UNL     1      33.708 -22.050 -19.213  0.00  0.00    -0.106 C 
ATOM      6  C   UNL     1      33.273 -20.227 -20.716  0.00  0.00    -0.106 C 
ATOM      7  H   UNL     1      35.549 -21.621 -21.145  0.00  0.00    -0.085 HD
ATOM      8  H   UNL     1      36.560 -20.636 -20.243  0.00  0.00    -0.085 HD
ATOM      9  H   UNL     1      32.894 -20.245 -18.708  0.00  0.00    -0.085 HD
ATOM     10  H   UNL     1      31.882 -21.226 -19.605  0.00  0.00    -0.085 HD
ENDROOT
TORSDOF 0
ENDMDL
MODEL 9
REMARK VINA RESULT:      -3.5      5.469      6.303
REMARK  Name = 4837
REMARK  0 active torsions:
REMARK  status: ('A' for Active; 'I' for Inactive)
REMARK                            x       y       z     vdW  Elec       q    Type
REMARK                         _______ _______ _______ _____ _____    ______ ____
ROOT
ATOM      1  N   UNL     1      33.833 -15.744 -24.434  0.00  0.00    +0.381 N 
ATOM      2  N   UNL     1      35.759 -17.446 -23.097  0.00  0.00    +0.381 N 
ATOM      3  C   UNL     1      34.580 -16.766 -25.167  0.00  0.00    -0.106 C 
ATOM      4  C   UNL     1      34.599 -15.264 -23.284  0.00  0.00    -0.106 C 
ATOM      5  C   UNL     1      34.986 -17.918 -24.248  0.00  0.00    -0.106 C 
ATOM      6  C   UNL     1      35.005 -16.421 -22.370  0.00  0.00    -0.106 C 
ATOM      7  H   UNL     1      32.953 -16.143 -24.107  0.00  0.00    -0.085 HD
ATOM      8  H   UNL     1      33.657 -14.958 -25.059  0.00  0.00    -0.085 HD
ATOM      9  H   UNL     1      36.640 -17.048 -23.424  0.00  0.00    -0.085 HD
ATOM     10  H   UNL     1      35.943 -18.231 -22.473  0.00  0.00    -0.085 HD
ENDROOT
TORSDOF 0
ENDMDL
