MODEL 1
REMARK VINA RESULT:      -9.7      0.000      0.000
REMARK  Name = 2608
REMARK  3 active torsions:
REMARK  status: ('A' for Active; 'I' for Inactive)
REMARK    1  A    between atoms: C_1  and  S_18
REMARK    2  A    between atoms: C_2  and  N_7
REMARK    3  A    between atoms: S_18  and  N_21
REMARK                            x       y       z     vdW  Elec       q    Type
REMARK                         _______ _______ _______ _____ _____    ______ ____
ROOT
ATOM      1  C   UNL     1      34.233 -21.564 -19.479  0.00  0.00    +0.122 C 
ATOM      2  C   UNL     1      34.766 -19.376 -21.126  0.00  0.00    +0.049 C 
ATOM      3  C   UNL     1      35.552 -21.208 -19.761  0.00  0.00    +0.021 C 
ATOM      4  C   UNL     1      33.180 -20.825 -20.019  0.00  0.00    +0.021 C 
ATOM      5  C   UNL     1      35.818 -20.114 -20.584  0.00  0.00    +0.016 C 
ATOM      6  C   UNL     1      33.446 -19.732 -20.843  0.00  0.00    +0.016 C 
ENDROOT
BRANCH   2   7
ATOM      7  N   UNL     1      35.034 -18.270 -21.959  0.00  0.00    -0.301 N 
ATOM      8  N   UNL     1      34.835 -16.348 -20.568  0.00  0.00    -0.233 NA
ATOM      9  N   UNL     1      34.383 -14.196 -21.554  0.00  0.00    -0.234 NA
ATOM     10  C   UNL     1      34.814 -16.887 -21.810  0.00  0.00    +0.113 C 
ATOM     11  C   UNL     1      34.587 -16.144 -22.954  0.00  0.00    +0.121 C 
ATOM     12  C   UNL     1      34.375 -14.793 -22.764  0.00  0.00    +0.107 C 
ATOM     13  C   UNL     1      34.615 -15.020 -20.515  0.00  0.00    +0.252 C 
ATOM     14  H   UNL     1      35.458 -18.513 -22.813  0.00  0.00    +0.153 HD
ATOM     15  N   UNL     1      34.139 -14.002 -23.914  0.00  0.00    -0.346 N 
ATOM     16  H   UNL     1      33.984 -13.034 -23.823  0.00  0.00    +0.143 HD
ATOM     17  H   UNL     1      34.130 -14.420 -24.806  0.00  0.00    +0.143 HD
ENDBRANCH   2   7
BRANCH   1  18
ATOM     18  S   UNL     1      33.900 -22.932 -18.448  0.00  0.00    +0.057 S 
ATOM     19  O   UNL     1      33.879 -24.108 -19.317  0.00  0.00    -0.153 OA
ATOM     20  O   UNL     1      34.868 -22.844 -17.357  0.00  0.00    -0.153 OA
BRANCH  18  21
ATOM     21  N   UNL     1      32.324 -22.760 -17.777  0.00  0.00    -0.203 NA
ATOM     22  H   UNL     1      32.321 -23.113 -16.820  0.00  0.00    +0.144 HD
ATOM     23  H   UNL     1      31.657 -23.291 -18.337  0.00  0.00    +0.144 HD
ENDBRANCH  18  21
ENDBRANCH   1  18
TORSDOF 3
ENDMDL
MODEL 2
REMARK VINA RESULT:      -8.8      7.533      9.545
REMARK  Name = 2608
REMARK  3 active torsions:
REMARK  status: ('A' for Active; 'I' for Inactive)
REMARK    1  A    between atoms: C_1  and  S_18
REMARK    2  A    between atoms: C_2  and  N_7
REMARK    3  A    between atoms: S_18  and  N_21
REMARK                            x       y       z     vdW  Elec       q    Type
REMARK                         _______ _______ _______ _____ _____    ______ ____
ROOT
ATOM      1  C   UNL     1      31.447 -23.188 -15.778  0.00  0.00    +0.122 C 
ATOM      2  C   UNL     1      34.218 -23.456 -15.584  0.00  0.00    +0.049 C 
ATOM      3  C   UNL     1      32.047 -23.348 -14.528  0.00  0.00    +0.021 C 
ATOM      4  C   UNL     1      32.233 -23.162 -16.931  0.00  0.00    +0.021 C 
ATOM      5  C   UNL     1      33.432 -23.481 -14.432  0.00  0.00    +0.016 C 
ATOM      6  C   UNL     1      33.618 -23.297 -16.834  0.00  0.00    +0.016 C 
ENDROOT
BRANCH   2   7
ATOM      7  N   UNL     1      35.618 -23.592 -15.486  0.00  0.00    -0.301 N 
ATOM      8  N   UNL     1      36.049 -25.932 -15.562  0.00  0.00    -0.233 NA
ATOM      9  N   UNL     1      38.100 -26.804 -14.646  0.00  0.00    -0.234 NA
ATOM     10  C   UNL     1      36.453 -24.690 -15.205  0.00  0.00    +0.113 C 
ATOM     11  C   UNL     1      37.657 -24.439 -14.573  0.00  0.00    +0.121 C 
ATOM     12  C   UNL     1      38.446 -25.542 -14.316  0.00  0.00    +0.107 C 
ATOM     13  C   UNL     1      36.907 -26.925 -15.258  0.00  0.00    +0.252 C 
ATOM     14  H   UNL     1      36.108 -22.752 -15.644  0.00  0.00    +0.153 HD
ATOM     15  N   UNL     1      39.686 -25.322 -13.669  0.00  0.00    -0.346 N 
ATOM     16  H   UNL     1      40.278 -26.082 -13.468  0.00  0.00    +0.143 HD
ATOM     17  H   UNL     1      39.956 -24.408 -13.421  0.00  0.00    +0.143 HD
ENDBRANCH   2   7
BRANCH   1  18
ATOM     18  S   UNL     1      29.714 -23.020 -15.899  0.00  0.00    +0.057 S 
ATOM     19  O   UNL     1      29.285 -22.302 -14.701  0.00  0.00    -0.153 OA
ATOM     20  O   UNL     1      29.468 -22.452 -17.222  0.00  0.00    -0.153 OA
BRANCH  18  21
ATOM     21  N   UNL     1      28.994 -24.583 -15.849  0.00  0.00    -0.203 NA
ATOM     22  H   UNL     1      28.217 -24.578 -15.187  0.00  0.00    +0.144 HD
ATOM     23  H   UNL     1      29.689 -25.268 -15.551  0.00  0.00    +0.144 HD
ENDBRANCH  18  21
ENDBRANCH   1  18
TORSDOF 3
ENDMDL
MODEL 3
REMARK VINA RESULT:      -8.7      5.188      7.270
REMARK  Name = 2608
REMARK  3 active torsions:
REMARK  status: ('A' for Active; 'I' for Inactive)
REMARK    1  A    between atoms: C_1  and  S_18
REMARK    2  A    between atoms: C_2  and  N_7
REMARK    3  A    between atoms: S_18  and  N_21
REMARK                            x       y       z     vdW  Elec       q    Type
REMARK                         _______ _______ _______ _____ _____    ______ ____
ROOT
ATOM      1  C   UNL     1      35.865 -24.029 -13.098  0.00  0.00    +0.122 C 
ATOM      2  C   UNL     1      34.650 -23.597 -15.573  0.00  0.00    +0.049 C 
ATOM      3  C   UNL     1      34.487 -24.203 -13.240  0.00  0.00    +0.021 C 
ATOM      4  C   UNL     1      36.635 -23.639 -14.194  0.00  0.00    +0.021 C 
ATOM      5  C   UNL     1      33.881 -23.988 -14.477  0.00  0.00    +0.016 C 
ATOM      6  C   UNL     1      36.027 -23.422 -15.431  0.00  0.00    +0.016 C 
ENDROOT
BRANCH   2   7
ATOM      7  N   UNL     1      34.037 -23.377 -16.823  0.00  0.00    -0.301 N 
ATOM      8  N   UNL     1      35.659 -22.249 -18.152  0.00  0.00    -0.233 NA
ATOM      9  N   UNL     1      34.953 -20.922 -20.035  0.00  0.00    -0.234 NA
ATOM     10  C   UNL     1      34.360 -22.544 -17.912  0.00  0.00    +0.113 C 
ATOM     11  C   UNL     1      33.319 -22.066 -18.688  0.00  0.00    +0.121 C 
ATOM     12  C   UNL     1      33.679 -21.253 -19.744  0.00  0.00    +0.107 C 
ATOM     13  C   UNL     1      35.879 -21.447 -19.211  0.00  0.00    +0.252 C 
ATOM     14  H   UNL     1      33.221 -23.912 -16.963  0.00  0.00    +0.153 HD
ATOM     15  N   UNL     1      32.638 -20.746 -20.560  0.00  0.00    -0.346 N 
ATOM     16  H   UNL     1      32.852 -20.162 -21.323  0.00  0.00    +0.143 HD
ATOM     17  H   UNL     1      31.701 -20.977 -20.364  0.00  0.00    +0.143 HD
ENDBRANCH   2   7
BRANCH   1  18
ATOM     18  S   UNL     1      36.624 -24.301 -11.550  0.00  0.00    +0.057 S 
ATOM     19  O   UNL     1      37.561 -25.407 -11.739  0.00  0.00    -0.153 OA
ATOM     20  O   UNL     1      37.111 -22.992 -11.119  0.00  0.00    -0.153 OA
BRANCH  18  21
ATOM     21  N   UNL     1      35.432 -24.823 -10.424  0.00  0.00    -0.203 NA
ATOM     22  H   UNL     1      35.056 -24.015  -9.927  0.00  0.00    +0.144 HD
ATOM     23  H   UNL     1      35.855 -25.466  -9.755  0.00  0.00    +0.144 HD
ENDBRANCH  18  21
ENDBRANCH   1  18
TORSDOF 3
ENDMDL
MODEL 4
REMARK VINA RESULT:      -8.6      4.911      7.502
REMARK  Name = 2608
REMARK  3 active torsions:
REMARK  status: ('A' for Active; 'I' for Inactive)
REMARK    1  A    between atoms: C_1  and  S_18
REMARK    2  A    between atoms: C_2  and  N_7
REMARK    3  A    between atoms: S_18  and  N_21
REMARK                            x       y       z     vdW  Elec       q    Type
REMARK                         _______ _______ _______ _____ _____    ______ ____
ROOT
ATOM      1  C   UNL     1      33.916 -15.068 -23.328  0.00  0.00    +0.122 C 
ATOM      2  C   UNL     1      35.156 -17.360 -22.333  0.00  0.00    +0.049 C 
ATOM      3  C   UNL     1      34.328 -16.074 -24.203  0.00  0.00    +0.021 C 
ATOM      4  C   UNL     1      34.124 -15.208 -21.956  0.00  0.00    +0.021 C 
ATOM      5  C   UNL     1      34.948 -17.220 -23.705  0.00  0.00    +0.016 C 
ATOM      6  C   UNL     1      34.744 -16.354 -21.458  0.00  0.00    +0.016 C 
ENDROOT
BRANCH   2   7
ATOM      7  N   UNL     1      35.784 -18.519 -21.829  0.00  0.00    -0.301 N 
ATOM      8  N   UNL     1      34.032 -19.880 -20.965  0.00  0.00    -0.233 NA
ATOM      9  N   UNL     1      34.523 -21.548 -19.296  0.00  0.00    -0.234 NA
ATOM     10  C   UNL     1      35.344 -19.546 -20.972  0.00  0.00    +0.113 C 
ATOM     11  C   UNL     1      36.288 -20.168 -20.175  0.00  0.00    +0.121 C 
ATOM     12  C   UNL     1      35.816 -21.169 -19.350  0.00  0.00    +0.107 C 
ATOM     13  C   UNL     1      33.697 -20.872 -20.117  0.00  0.00    +0.252 C 
ATOM     14  H   UNL     1      36.713 -18.630 -22.137  0.00  0.00    +0.153 HD
ATOM     15  N   UNL     1      36.756 -21.827 -18.520  0.00  0.00    -0.346 N 
ATOM     16  H   UNL     1      36.460 -22.547 -17.917  0.00  0.00    +0.143 HD
ATOM     17  H   UNL     1      37.705 -21.565 -18.546  0.00  0.00    +0.143 HD
ENDBRANCH   2   7
BRANCH   1  18
ATOM     18  S   UNL     1      33.140 -13.634 -23.951  0.00  0.00    +0.057 S 
ATOM     19  O   UNL     1      32.814 -13.916 -25.348  0.00  0.00    -0.153 OA
ATOM     20  O   UNL     1      32.077 -13.320 -22.999  0.00  0.00    -0.153 OA
BRANCH  18  21
ATOM     21  N   UNL     1      34.268 -12.334 -23.938  0.00  0.00    -0.203 NA
ATOM     22  H   UNL     1      35.014 -12.538 -23.272  0.00  0.00    +0.144 HD
ATOM     23  H   UNL     1      33.793 -11.474 -23.662  0.00  0.00    +0.144 HD
ENDBRANCH  18  21
ENDBRANCH   1  18
TORSDOF 3
ENDMDL
MODEL 5
REMARK VINA RESULT:      -8.6      8.315      9.476
REMARK  Name = 2608
REMARK  3 active torsions:
REMARK  status: ('A' for Active; 'I' for Inactive)
REMARK    1  A    between atoms: C_1  and  S_18
REMARK    2  A    between atoms: C_2  and  N_7
REMARK    3  A    between atoms: S_18  and  N_21
REMARK                            x       y       z     vdW  Elec       q    Type
REMARK                         _______ _______ _______ _____ _____    ______ ____
ROOT
ATOM      1  C   UNL     1      36.529 -24.890 -13.728  0.00  0.00    +0.122 C 
ATOM      2  C   UNL     1      34.081 -23.718 -14.370  0.00  0.00    +0.049 C 
ATOM      3  C   UNL     1      35.624 -24.567 -12.717  0.00  0.00    +0.021 C 
ATOM      4  C   UNL     1      36.210 -24.628 -15.061  0.00  0.00    +0.021 C 
ATOM      5  C   UNL     1      34.399 -23.982 -13.039  0.00  0.00    +0.016 C 
ATOM      6  C   UNL     1      34.986 -24.041 -15.382  0.00  0.00    +0.016 C 
ENDROOT
BRANCH   2   7
ATOM      7  N   UNL     1      32.843 -23.124 -14.696  0.00  0.00    -0.301 N 
ATOM      8  N   UNL     1      31.224 -24.861 -14.514  0.00  0.00    -0.233 NA
ATOM      9  N   UNL     1      29.134 -24.680 -15.699  0.00  0.00    -0.234 NA
ATOM     10  C   UNL     1      31.585 -23.662 -15.030  0.00  0.00    +0.113 C 
ATOM     11  C   UNL     1      30.775 -22.928 -15.877  0.00  0.00    +0.121 C 
ATOM     12  C   UNL     1      29.551 -23.490 -16.179  0.00  0.00    +0.107 C 
ATOM     13  C   UNL     1      30.007 -25.302 -14.884  0.00  0.00    +0.252 C 
ATOM     14  H   UNL     1      32.863 -22.140 -14.689  0.00  0.00    +0.153 HD
ATOM     15  N   UNL     1      28.696 -22.765 -17.044  0.00  0.00    -0.346 N 
ATOM     16  H   UNL     1      27.815 -23.131 -17.285  0.00  0.00    +0.143 HD
ATOM     17  H   UNL     1      28.983 -21.895 -17.404  0.00  0.00    +0.143 HD
ENDBRANCH   2   7
BRANCH   1  18
ATOM     18  S   UNL     1      38.061 -25.625 -13.326  0.00  0.00    +0.057 S 
ATOM     19  O   UNL     1      39.077 -24.592 -13.521  0.00  0.00    -0.153 OA
ATOM     20  O   UNL     1      37.871 -26.228 -12.009  0.00  0.00    -0.153 OA
BRANCH  18  21
ATOM     21  N   UNL     1      38.389 -26.888 -14.449  0.00  0.00    -0.203 NA
ATOM     22  H   UNL     1      37.865 -26.724 -15.309  0.00  0.00    +0.144 HD
ATOM     23  H   UNL     1      38.108 -27.782 -14.045  0.00  0.00    +0.144 HD
ENDBRANCH  18  21
ENDBRANCH   1  18
TORSDOF 3
ENDMDL
MODEL 6
REMARK VINA RESULT:      -8.5      3.825      7.753
REMARK  Name = 2608
REMARK  3 active torsions:
REMARK  status: ('A' for Active; 'I' for Inactive)
REMARK    1  A    between atoms: C_1  and  S_18
REMARK    2  A    between atoms: C_2  and  N_7
REMARK    3  A    between atoms: S_18  and  N_21
REMARK                            x       y       z     vdW  Elec       q    Type
REMARK                         _______ _______ _______ _____ _____    ______ ____
ROOT
ATOM      1  C   UNL     1      34.698 -19.767 -21.057  0.00  0.00    +0.122 C 
ATOM      2  C   UNL     1      34.446 -21.771 -19.132  0.00  0.00    +0.049 C 
ATOM      3  C   UNL     1      33.432 -20.181 -20.642  0.00  0.00    +0.021 C 
ATOM      4  C   UNL     1      35.839 -20.355 -20.509  0.00  0.00    +0.021 C 
ATOM      5  C   UNL     1      33.307 -21.182 -19.679  0.00  0.00    +0.016 C 
ATOM      6  C   UNL     1      35.713 -21.357 -19.547  0.00  0.00    +0.016 C 
ENDROOT
BRANCH   2   7
ATOM      7  N   UNL     1      34.320 -22.784 -18.160  0.00  0.00    -0.301 N 
ATOM      8  N   UNL     1      32.064 -22.677 -17.403  0.00  0.00    -0.233 NA
ATOM      9  N   UNL     1      31.482 -23.569 -15.242  0.00  0.00    -0.234 NA
ATOM     10  C   UNL     1      33.347 -23.046 -17.175  0.00  0.00    +0.113 C 
ATOM     11  C   UNL     1      33.759 -23.674 -16.014  0.00  0.00    +0.121 C 
ATOM     12  C   UNL     1      32.776 -23.912 -15.075  0.00  0.00    +0.107 C 
ATOM     13  C   UNL     1      31.200 -22.965 -16.412  0.00  0.00    +0.252 C 
ATOM     14  H   UNL     1      35.057 -23.436 -18.171  0.00  0.00    +0.153 HD
ATOM     15  N   UNL     1      33.162 -24.553 -13.873  0.00  0.00    -0.346 N 
ATOM     16  H   UNL     1      32.492 -24.742 -13.178  0.00  0.00    +0.143 HD
ATOM     17  H   UNL     1      34.102 -24.811 -13.733  0.00  0.00    +0.143 HD
ENDBRANCH   2   7
BRANCH   1  18
ATOM     18  S   UNL     1      34.856 -18.513 -22.261  0.00  0.00    +0.057 S 
ATOM     19  O   UNL     1      34.366 -19.081 -23.515  0.00  0.00    -0.153 OA
ATOM     20  O   UNL     1      34.208 -17.336 -21.687  0.00  0.00    -0.153 OA
BRANCH  18  21
ATOM     21  N   UNL     1      36.524 -18.149 -22.478  0.00  0.00    -0.203 NA
ATOM     22  H   UNL     1      36.723 -17.223 -22.100  0.00  0.00    +0.144 HD
ATOM     23  H   UNL     1      36.749 -18.165 -23.473  0.00  0.00    +0.144 HD
ENDBRANCH  18  21
ENDBRANCH   1  18
TORSDOF 3
ENDMDL
MODEL 7
REMARK VINA RESULT:      -8.5      2.179      2.646
REMARK  Name = 2608
REMARK  3 active torsions:
REMARK  status: ('A' for Active; 'I' for Inactive)
REMARK    1  A    between atoms: C_1  and  S_18
REMARK    2  A    between atoms: C_2  and  N_7
REMARK    3  A    between atoms: S_18  and  N_21
REMARK                            x       y       z     vdW  Elec       q    Type
REMARK                         _______ _______ _______ _____ _____    ______ ____
ROOT
ATOM      1  C   UNL     1      34.768 -22.537 -17.532  0.00  0.00    +0.122 C 
ATOM      2  C   UNL     1      35.337 -21.177 -19.901  0.00  0.00    +0.049 C 
ATOM      3  C   UNL     1      36.061 -22.070 -17.776  0.00  0.00    +0.021 C 
ATOM      4  C   UNL     1      33.761 -22.323 -18.473  0.00  0.00    +0.021 C 
ATOM      5  C   UNL     1      36.344 -21.390 -18.960  0.00  0.00    +0.016 C 
ATOM      6  C   UNL     1      34.045 -21.643 -19.657  0.00  0.00    +0.016 C 
ENDROOT
BRANCH   2   7
ATOM      7  N   UNL     1      35.625 -20.490 -21.098  0.00  0.00    -0.301 N 
ATOM      8  N   UNL     1      35.282 -18.182 -20.620  0.00  0.00    -0.233 NA
ATOM      9  N   UNL     1      34.829 -16.640 -22.415  0.00  0.00    -0.234 NA
ATOM     10  C   UNL     1      35.355 -19.178 -21.535  0.00  0.00    +0.113 C 
ATOM     11  C   UNL     1      35.177 -18.974 -22.891  0.00  0.00    +0.121 C 
ATOM     12  C   UNL     1      34.915 -17.675 -23.277  0.00  0.00    +0.107 C 
ATOM     13  C   UNL     1      35.020 -16.960 -21.122  0.00  0.00    +0.252 C 
ATOM     14  H   UNL     1      36.108 -21.035 -21.760  0.00  0.00    +0.153 HD
ATOM     15  N   UNL     1      34.727 -17.430 -24.659  0.00  0.00    -0.346 N 
ATOM     16  H   UNL     1      34.538 -16.518 -24.976  0.00  0.00    +0.143 HD
ATOM     17  H   UNL     1      34.787 -18.172 -25.303  0.00  0.00    +0.143 HD
ENDBRANCH   2   7
BRANCH   1  18
ATOM     18  S   UNL     1      34.413 -23.387 -16.050  0.00  0.00    +0.057 S 
ATOM     19  O   UNL     1      32.956 -23.482 -15.969  0.00  0.00    -0.153 OA
ATOM     20  O   UNL     1      35.225 -24.600 -16.090  0.00  0.00    -0.153 OA
BRANCH  18  21
ATOM     21  N   UNL     1      34.941 -22.436 -14.716  0.00  0.00    -0.203 NA
ATOM     22  H   UNL     1      34.131 -22.049 -14.231  0.00  0.00    +0.144 HD
ATOM     23  H   UNL     1      35.530 -21.674 -15.055  0.00  0.00    +0.144 HD
ENDBRANCH  18  21
ENDBRANCH   1  18
TORSDOF 3
ENDMDL
MODEL 8
REMARK VINA RESULT:      -8.4      7.800      9.135
REMARK  Name = 2608
REMARK  3 active torsions:
REMARK  status: ('A' for Active; 'I' for Inactive)
REMARK    1  A    between atoms: C_1  and  S_18
REMARK    2  A    between atoms: C_2  and  N_7
REMARK    3  A    between atoms: S_18  and  N_21
REMARK                            x       y       z     vdW  Elec       q    Type
REMARK                         _______ _______ _______ _____ _____    ______ ____
ROOT
ATOM      1  C   UNL     1      30.054 -23.576 -15.732  0.00  0.00    +0.122 C 
ATOM      2  C   UNL     1      32.611 -24.260 -14.849  0.00  0.00    +0.049 C 
ATOM      3  C   UNL     1      30.210 -24.417 -14.629  0.00  0.00    +0.021 C 
ATOM      4  C   UNL     1      31.177 -23.077 -16.393  0.00  0.00    +0.021 C 
ATOM      5  C   UNL     1      31.488 -24.757 -14.188  0.00  0.00    +0.016 C 
ATOM      6  C   UNL     1      32.455 -23.419 -15.952  0.00  0.00    +0.016 C 
ENDROOT
BRANCH   2   7
ATOM      7  N   UNL     1      33.903 -24.605 -14.403  0.00  0.00    -0.301 N 
ATOM      8  N   UNL     1      35.337 -22.862 -15.161  0.00  0.00    -0.233 NA
ATOM      9  N   UNL     1      37.697 -23.277 -15.417  0.00  0.00    -0.234 NA
ATOM     10  C   UNL     1      35.188 -24.144 -14.750  0.00  0.00    +0.113 C 
ATOM     11  C   UNL     1      36.241 -25.034 -14.651  0.00  0.00    +0.121 C 
ATOM     12  C   UNL     1      37.482 -24.542 -15.000  0.00  0.00    +0.107 C 
ATOM     13  C   UNL     1      36.597 -22.503 -15.473  0.00  0.00    +0.252 C 
ATOM     14  H   UNL     1      33.909 -25.309 -13.714  0.00  0.00    +0.153 HD
ATOM     15  N   UNL     1      38.584 -25.428 -14.910  0.00  0.00    -0.346 N 
ATOM     16  H   UNL     1      39.486 -25.116 -15.150  0.00  0.00    +0.143 HD
ATOM     17  H   UNL     1      38.448 -26.355 -14.608  0.00  0.00    +0.143 HD
ENDBRANCH   2   7
BRANCH   1  18
ATOM     18  S   UNL     1      28.454 -23.148 -16.284  0.00  0.00    +0.057 S 
ATOM     19  O   UNL     1      27.591 -23.171 -15.104  0.00  0.00    -0.153 OA
ATOM     20  O   UNL     1      28.621 -21.913 -17.046  0.00  0.00    -0.153 OA
BRANCH  18  21
ATOM     21  N   UNL     1      27.888 -24.366 -17.360  0.00  0.00    -0.203 NA
ATOM     22  H   UNL     1      28.586 -25.107 -17.434  0.00  0.00    +0.144 HD
ATOM     23  H   UNL     1      27.729 -23.957 -18.282  0.00  0.00    +0.144 HD
ENDBRANCH  18  21
ENDBRANCH   1  18
TORSDOF 3
ENDMDL
MODEL 9
REMARK VINA RESULT:      -8.3      3.656      5.520
REMARK  Name = 2608
REMARK  3 active torsions:
REMARK  status: ('A' for Active; 'I' for Inactive)
REMARK    1  A    between atoms: C_1  and  S_18
REMARK    2  A    between atoms: C_2  and  N_7
REMARK    3  A    between atoms: S_18  and  N_21
REMARK                            x       y       z     vdW  Elec       q    Type
REMARK                         _______ _______ _______ _____ _____    ______ ____
ROOT
ATOM      1  C   UNL     1      32.458 -23.677 -15.164  0.00  0.00    +0.122 C 
ATOM      2  C   UNL     1      32.772 -22.604 -17.720  0.00  0.00    +0.049 C 
ATOM      3  C   UNL     1      31.353 -23.165 -15.846  0.00  0.00    +0.021 C 
ATOM      4  C   UNL     1      33.719 -23.653 -15.760  0.00  0.00    +0.021 C 
ATOM      5  C   UNL     1      31.511 -22.630 -17.124  0.00  0.00    +0.016 C 
ATOM      6  C   UNL     1      33.876 -23.116 -17.037  0.00  0.00    +0.016 C 
ENDROOT
BRANCH   2   7
ATOM      7  N   UNL     1      32.931 -22.062 -19.012  0.00  0.00    -0.301 N 
ATOM      8  N   UNL     1      35.247 -21.546 -19.217  0.00  0.00    -0.233 NA
ATOM      9  N   UNL     1      35.970 -19.899 -20.820  0.00  0.00    -0.234 NA
ATOM     10  C   UNL     1      33.971 -21.332 -19.619  0.00  0.00    +0.113 C 
ATOM     11  C   UNL     1      33.632 -20.426 -20.607  0.00  0.00    +0.121 C 
ATOM     12  C   UNL     1      34.680 -19.732 -21.176  0.00  0.00    +0.107 C 
ATOM     13  C   UNL     1      36.179 -20.808 -19.849  0.00  0.00    +0.252 C 
ATOM     14  H   UNL     1      32.163 -22.224 -19.606  0.00  0.00    +0.153 HD
ATOM     15  N   UNL     1      34.368 -18.795 -22.191  0.00  0.00    -0.346 N 
ATOM     16  H   UNL     1      35.087 -18.279 -22.623  0.00  0.00    +0.143 HD
ATOM     17  H   UNL     1      33.432 -18.660 -22.465  0.00  0.00    +0.143 HD
ENDBRANCH   2   7
BRANCH   1  18
ATOM     18  S   UNL     1      32.261 -24.349 -13.565  0.00  0.00    +0.057 S 
ATOM     19  O   UNL     1      31.691 -23.286 -12.738  0.00  0.00    -0.153 OA
ATOM     20  O   UNL     1      31.533 -25.601 -13.754  0.00  0.00    -0.153 OA
BRANCH  18  21
ATOM     21  N   UNL     1      33.812 -24.726 -12.920  0.00  0.00    -0.203 NA
ATOM     22  H   UNL     1      33.959 -24.200 -12.058  0.00  0.00    +0.144 HD
ATOM     23  H   UNL     1      34.532 -24.475 -13.598  0.00  0.00    +0.144 HD
ENDBRANCH  18  21
ENDBRANCH   1  18
TORSDOF 3
ENDMDL
