MODEL 1
REMARK VINA RESULT:      -9.2      0.000      0.000
REMARK  Name = 5362456
REMARK  1 active torsions:
REMARK  status: ('A' for Active; 'I' for Inactive)
REMARK    1  A    between atoms: C_18  and  O_21
REMARK                            x       y       z     vdW  Elec       q    Type
REMARK                         _______ _______ _______ _____ _____    ______ ____
ROOT
ATOM      1  O   UNL     1      31.706 -11.231 -22.753  0.00  0.00    -0.476 OA
ATOM      2  N   UNL     1      31.575  -6.092 -23.540  0.00  0.00    +0.387 N 
ATOM      3  C   UNL     1      31.617  -8.822 -22.547  0.00  0.00    +0.054 C 
ATOM      4  C   UNL     1      31.951  -7.612 -21.670  0.00  0.00    -0.011 C 
ATOM      5  C   UNL     1      32.623  -6.550 -22.594  0.00  0.00    -0.053 C 
ATOM      6  C   UNL     1      31.264 -10.151 -21.854  0.00  0.00    +0.169 C 
ATOM      7  C   UNL     1      30.571  -8.385 -23.597  0.00  0.00    -0.015 C 
ATOM      8  C   UNL     1      32.837  -9.306 -23.247  0.00  0.00    +0.013 C 
ATOM      9  C   UNL     1      32.764  -7.982 -20.425  0.00  0.00    -0.001 C 
ATOM     10  C   UNL     1      31.944 -10.365 -20.486  0.00  0.00    +0.044 C 
ATOM     11  C   UNL     1      33.938  -7.080 -23.267  0.00  0.00    +0.005 C 
ATOM     12  C   UNL     1      31.025  -7.149 -24.395  0.00  0.00    -0.077 C 
ATOM     13  C   UNL     1      32.053  -9.094 -19.653  0.00  0.00    +0.004 C 
ATOM     14  C   UNL     1      33.905  -8.533 -23.657  0.00  0.00    -0.025 C 
ATOM     15  C   UNL     1      32.789 -10.678 -23.397  0.00  0.00    +0.168 C 
ATOM     16  C   UNL     1      31.967  -4.924 -24.321  0.00  0.00    -0.101 C 
ATOM     17  C   UNL     1      34.932  -9.192 -24.333  0.00  0.00    -0.001 C 
ATOM     18  C   UNL     1      33.784 -11.345 -24.075  0.00  0.00    +0.167 C 
ATOM     19  C   UNL     1      34.861 -10.585 -24.554  0.00  0.00    +0.039 C 
ATOM     20  H   UNL     1      30.814  -5.800 -22.928  0.00  0.00    -0.080 HD
ENDROOT
BRANCH  18  21
ATOM     21  O   UNL     1      33.751 -12.689 -24.246  0.00  0.00    -0.503 OA
ATOM     22  H   UNL     1      33.455 -13.051 -25.058  0.00  0.00    +0.292 HD
ENDBRANCH  18  21
TORSDOF 1
ENDMDL
MODEL 2
REMARK VINA RESULT:      -6.7     16.373     18.564
REMARK  Name = 5362456
REMARK  1 active torsions:
REMARK  status: ('A' for Active; 'I' for Inactive)
REMARK    1  A    between atoms: C_18  and  O_21
REMARK                            x       y       z     vdW  Elec       q    Type
REMARK                         _______ _______ _______ _____ _____    ______ ____
ROOT
ATOM      1  O   UNL     1      38.773 -23.936 -14.129  0.00  0.00    -0.476 OA
ATOM      2  N   UNL     1      33.858 -23.646 -15.808  0.00  0.00    +0.387 N 
ATOM      3  C   UNL     1      36.587 -24.337 -15.086  0.00  0.00    +0.054 C 
ATOM      4  C   UNL     1      35.523 -25.386 -15.418  0.00  0.00    -0.011 C 
ATOM      5  C   UNL     1      34.152 -24.814 -14.941  0.00  0.00    -0.053 C 
ATOM      6  C   UNL     1      38.067 -24.760 -15.126  0.00  0.00    +0.169 C 
ATOM      7  C   UNL     1      36.293 -23.069 -15.918  0.00  0.00    -0.015 C 
ATOM      8  C   UNL     1      36.539 -23.993 -13.640  0.00  0.00    +0.013 C 
ATOM      9  C   UNL     1      35.861 -26.776 -14.869  0.00  0.00    -0.001 C 
ATOM     10  C   UNL     1      38.323 -26.242 -14.781  0.00  0.00    +0.044 C 
ATOM     11  C   UNL     1      34.124 -24.519 -13.400  0.00  0.00    +0.005 C 
ATOM     12  C   UNL     1      34.849 -22.567 -15.729  0.00  0.00    -0.077 C 
ATOM     13  C   UNL     1      37.260 -27.188 -15.327  0.00  0.00    +0.004 C 
ATOM     14  C   UNL     1      35.418 -23.999 -12.834  0.00  0.00    -0.025 C 
ATOM     15  C   UNL     1      37.808 -23.703 -13.176  0.00  0.00    +0.168 C 
ATOM     16  C   UNL     1      32.501 -23.136 -15.656  0.00  0.00    -0.101 C 
ATOM     17  C   UNL     1      35.597 -23.602 -11.509  0.00  0.00    -0.001 C 
ATOM     18  C   UNL     1      38.003 -23.294 -11.877  0.00  0.00    +0.167 C 
ATOM     19  C   UNL     1      36.878 -23.236 -11.041  0.00  0.00    +0.039 C 
ATOM     20  H   UNL     1      33.931 -24.026 -16.751  0.00  0.00    -0.080 HD
ENDROOT
BRANCH  18  21
ATOM     21  O   UNL     1      39.237 -22.992 -11.403  0.00  0.00    -0.503 OA
ATOM     22  H   UNL     1      39.713 -23.623 -10.900  0.00  0.00    +0.292 HD
ENDBRANCH  18  21
TORSDOF 1
ENDMDL
MODEL 3
REMARK VINA RESULT:      -6.6     16.079     18.170
REMARK  Name = 5362456
REMARK  1 active torsions:
REMARK  status: ('A' for Active; 'I' for Inactive)
REMARK    1  A    between atoms: C_18  and  O_21
REMARK                            x       y       z     vdW  Elec       q    Type
REMARK                         _______ _______ _______ _____ _____    ______ ____
ROOT
ATOM      1  O   UNL     1      38.661 -23.809 -14.375  0.00  0.00    -0.476 OA
ATOM      2  N   UNL     1      33.504 -23.657 -13.718  0.00  0.00    +0.387 N 
ATOM      3  C   UNL     1      36.290 -23.333 -14.473  0.00  0.00    +0.054 C 
ATOM      4  C   UNL     1      35.130 -22.855 -15.349  0.00  0.00    -0.011 C 
ATOM      5  C   UNL     1      33.947 -23.846 -15.121  0.00  0.00    -0.053 C 
ATOM      6  C   UNL     1      37.694 -22.760 -14.743  0.00  0.00    +0.169 C 
ATOM      7  C   UNL     1      35.860 -23.217 -12.994  0.00  0.00    -0.015 C 
ATOM      8  C   UNL     1      36.617 -24.752 -14.776  0.00  0.00    +0.013 C 
ATOM      9  C   UNL     1      35.528 -22.662 -16.816  0.00  0.00    -0.001 C 
ATOM     10  C   UNL     1      37.958 -22.369 -16.213  0.00  0.00    +0.044 C 
ATOM     11  C   UNL     1      34.313 -25.323 -15.508  0.00  0.00    +0.005 C 
ATOM     12  C   UNL     1      34.532 -23.945 -12.712  0.00  0.00    -0.077 C 
ATOM     13  C   UNL     1      36.751 -21.748 -16.906  0.00  0.00    +0.004 C 
ATOM     14  C   UNL     1      35.730 -25.724 -15.193  0.00  0.00    -0.025 C 
ATOM     15  C   UNL     1      37.972 -24.973 -14.629  0.00  0.00    +0.168 C 
ATOM     16  C   UNL     1      32.250 -24.335 -13.408  0.00  0.00    -0.101 C 
ATOM     17  C   UNL     1      36.247 -27.005 -15.383  0.00  0.00    -0.001 C 
ATOM     18  C   UNL     1      38.501 -26.232 -14.795  0.00  0.00    +0.167 C 
ATOM     19  C   UNL     1      37.620 -27.258 -15.168  0.00  0.00    +0.039 C 
ATOM     20  H   UNL     1      33.324 -22.655 -13.658  0.00  0.00    -0.080 HD
ENDROOT
BRANCH  18  21
ATOM     21  O   UNL     1      39.826 -26.475 -14.643  0.00  0.00    -0.503 OA
ATOM     22  H   UNL     1      40.266 -27.053 -15.234  0.00  0.00    +0.292 HD
ENDBRANCH  18  21
TORSDOF 1
ENDMDL
MODEL 4
REMARK VINA RESULT:      -6.4      2.569      4.556
REMARK  Name = 5362456
REMARK  1 active torsions:
REMARK  status: ('A' for Active; 'I' for Inactive)
REMARK    1  A    between atoms: C_18  and  O_21
REMARK                            x       y       z     vdW  Elec       q    Type
REMARK                         _______ _______ _______ _____ _____    ______ ____
ROOT
ATOM      1  O   UNL     1      32.319  -5.988 -20.804  0.00  0.00    -0.476 OA
ATOM      2  N   UNL     1      34.470  -9.538 -23.939  0.00  0.00    +0.387 N 
ATOM      3  C   UNL     1      33.141  -8.005 -21.859  0.00  0.00    +0.054 C 
ATOM      4  C   UNL     1      32.943  -9.512 -22.037  0.00  0.00    -0.011 C 
ATOM      5  C   UNL     1      33.061  -9.811 -23.564  0.00  0.00    -0.053 C 
ATOM      6  C   UNL     1      32.742  -7.369 -20.515  0.00  0.00    +0.169 C 
ATOM      7  C   UNL     1      34.580  -7.651 -22.296  0.00  0.00    -0.015 C 
ATOM      8  C   UNL     1      32.175  -7.253 -22.704  0.00  0.00    +0.013 C 
ATOM      9  C   UNL     1      31.657 -10.028 -21.382  0.00  0.00    -0.001 C 
ATOM     10  C   UNL     1      31.579  -8.077 -19.788  0.00  0.00    +0.044 C 
ATOM     11  C   UNL     1      31.987  -9.044 -24.414  0.00  0.00    +0.005 C 
ATOM     12  C   UNL     1      34.899  -8.153 -23.717  0.00  0.00    -0.077 C 
ATOM     13  C   UNL     1      31.612  -9.595 -19.916  0.00  0.00    +0.004 C 
ATOM     14  C   UNL     1      31.663  -7.659 -23.920  0.00  0.00    -0.025 C 
ATOM     15  C   UNL     1      31.805  -6.079 -22.078  0.00  0.00    +0.168 C 
ATOM     16  C   UNL     1      34.813  -9.994 -25.281  0.00  0.00    -0.101 C 
ATOM     17  C   UNL     1      30.797  -6.776 -24.562  0.00  0.00    -0.001 C 
ATOM     18  C   UNL     1      30.964  -5.186 -22.701  0.00  0.00    +0.167 C 
ATOM     19  C   UNL     1      30.466  -5.541 -23.963  0.00  0.00    +0.039 C 
ATOM     20  H   UNL     1      35.005 -10.106 -23.284  0.00  0.00    -0.080 HD
ENDROOT
BRANCH  18  21
ATOM     21  O   UNL     1      30.598  -4.022 -22.111  0.00  0.00    -0.503 OA
ATOM     22  H   UNL     1      29.946  -4.023 -21.439  0.00  0.00    +0.292 HD
ENDBRANCH  18  21
TORSDOF 1
ENDMDL
MODEL 5
REMARK VINA RESULT:      -6.2     16.831     18.675
REMARK  Name = 5362456
REMARK  1 active torsions:
REMARK  status: ('A' for Active; 'I' for Inactive)
REMARK    1  A    between atoms: C_18  and  O_21
REMARK                            x       y       z     vdW  Elec       q    Type
REMARK                         _______ _______ _______ _____ _____    ______ ____
ROOT
ATOM      1  O   UNL     1      38.210 -26.606 -13.015  0.00  0.00    -0.476 OA
ATOM      2  N   UNL     1      34.681 -23.812 -15.621  0.00  0.00    +0.387 N 
ATOM      3  C   UNL     1      36.460 -25.086 -13.709  0.00  0.00    +0.054 C 
ATOM      4  C   UNL     1      35.748 -23.760 -13.428  0.00  0.00    -0.011 C 
ATOM      5  C   UNL     1      35.617 -23.014 -14.792  0.00  0.00    -0.053 C 
ATOM      6  C   UNL     1      37.031 -25.876 -12.517  0.00  0.00    +0.169 C 
ATOM      7  C   UNL     1      35.552 -25.938 -14.625  0.00  0.00    -0.015 C 
ATOM      8  C   UNL     1      37.755 -24.842 -14.398  0.00  0.00    +0.013 C 
ATOM      9  C   UNL     1      36.417 -22.947 -12.316  0.00  0.00    -0.001 C 
ATOM     10  C   UNL     1      37.482 -25.006 -11.325  0.00  0.00    +0.044 C 
ATOM     11  C   UNL     1      37.009 -22.723 -15.457  0.00  0.00    +0.005 C 
ATOM     12  C   UNL     1      35.130 -25.181 -15.898  0.00  0.00    -0.077 C 
ATOM     13  C   UNL     1      36.574 -23.811 -11.064  0.00  0.00    +0.004 C 
ATOM     14  C   UNL     1      38.039 -23.804 -15.263  0.00  0.00    -0.025 C 
ATOM     15  C   UNL     1      38.686 -25.788 -14.014  0.00  0.00    +0.168 C 
ATOM     16  C   UNL     1      34.259 -23.132 -16.840  0.00  0.00    -0.101 C 
ATOM     17  C   UNL     1      39.313 -23.790 -15.827  0.00  0.00    -0.001 C 
ATOM     18  C   UNL     1      39.944 -25.801 -14.571  0.00  0.00    +0.167 C 
ATOM     19  C   UNL     1      40.252 -24.792 -15.496  0.00  0.00    +0.039 C 
ATOM     20  H   UNL     1      33.856 -23.902 -15.028  0.00  0.00    -0.080 HD
ENDROOT
BRANCH  18  21
ATOM     21  O   UNL     1      40.869 -26.727 -14.219  0.00  0.00    -0.503 OA
ATOM     22  H   UNL     1      40.913 -27.542 -14.677  0.00  0.00    +0.292 HD
ENDBRANCH  18  21
TORSDOF 1
ENDMDL
MODEL 6
REMARK VINA RESULT:      -6.2      2.802      5.272
REMARK  Name = 5362456
REMARK  1 active torsions:
REMARK  status: ('A' for Active; 'I' for Inactive)
REMARK    1  A    between atoms: C_18  and  O_21
REMARK                            x       y       z     vdW  Elec       q    Type
REMARK                         _______ _______ _______ _____ _____    ______ ____
ROOT
ATOM      1  O   UNL     1      31.629  -5.721 -25.126  0.00  0.00    -0.476 OA
ATOM      2  N   UNL     1      31.861  -9.781 -21.885  0.00  0.00    +0.387 N 
ATOM      3  C   UNL     1      32.284  -7.626 -23.787  0.00  0.00    +0.054 C 
ATOM      4  C   UNL     1      33.430  -8.320 -23.047  0.00  0.00    -0.011 C 
ATOM      5  C   UNL     1      32.885  -8.735 -21.645  0.00  0.00    -0.053 C 
ATOM      6  C   UNL     1      32.618  -6.810 -25.049  0.00  0.00    +0.169 C 
ATOM      7  C   UNL     1      31.156  -8.659 -24.010  0.00  0.00    -0.015 C 
ATOM      8  C   UNL     1      31.757  -6.494 -22.978  0.00  0.00    +0.013 C 
ATOM      9  C   UNL     1      34.713  -7.483 -23.012  0.00  0.00    -0.001 C 
ATOM     10  C   UNL     1      34.024  -6.174 -25.052  0.00  0.00    +0.044 C 
ATOM     11  C   UNL     1      32.393  -7.506 -20.801  0.00  0.00    +0.005 C 
ATOM     12  C   UNL     1      30.723  -9.342 -22.699  0.00  0.00    -0.077 C 
ATOM     13  C   UNL     1      35.096  -7.060 -24.430  0.00  0.00    +0.004 C 
ATOM     14  C   UNL     1      31.725  -6.419 -21.600  0.00  0.00    -0.025 C 
ATOM     15  C   UNL     1      31.332  -5.473 -23.805  0.00  0.00    +0.168 C 
ATOM     16  C   UNL     1      31.418 -10.452 -20.667  0.00  0.00    -0.101 C 
ATOM     17  C   UNL     1      31.148  -5.276 -21.049  0.00  0.00    -0.001 C 
ATOM     18  C   UNL     1      30.745  -4.344 -23.282  0.00  0.00    +0.167 C 
ATOM     19  C   UNL     1      30.647  -4.255 -21.886  0.00  0.00    +0.039 C 
ATOM     20  H   UNL     1      32.356 -10.475 -22.445  0.00  0.00    -0.080 HD
ENDROOT
BRANCH  18  21
ATOM     21  O   UNL     1      30.309  -3.335 -24.076  0.00  0.00    -0.503 OA
ATOM     22  H   UNL     1      30.889  -2.636 -24.304  0.00  0.00    +0.292 HD
ENDBRANCH  18  21
TORSDOF 1
ENDMDL
