MODEL 1
REMARK VINA RESULT:      -9.2      0.000      0.000
REMARK  Name = 1712095
REMARK  9 active torsions:
REMARK  status: ('A' for Active; 'I' for Inactive)
REMARK    1  A    between atoms: C_9  and  O_25
REMARK    2  A    between atoms: C_10  and  O_28
REMARK    3  A    between atoms: C_11  and  C_13
REMARK    4  A    between atoms: C_16  and  O_19
REMARK    5  A    between atoms: C_17  and  O_22
REMARK    6  A    between atoms: O_19  and  C_20
REMARK    7  A    between atoms: O_22  and  C_23
REMARK    8  A    between atoms: O_25  and  C_26
REMARK    9  A    between atoms: O_28  and  C_29
REMARK                            x       y       z     vdW  Elec       q    Type
REMARK                         _______ _______ _______ _____ _____    ______ ____
ROOT
ATOM      1  N   UNL     1      36.210 -20.579 -20.204  0.00  0.00    -0.332 N 
ATOM      2  C   UNL     1      36.931 -21.557 -18.104  0.00  0.00    +0.048 C 
ATOM      3  C   UNL     1      35.516 -22.058 -17.933  0.00  0.00    -0.016 C 
ATOM      4  C   UNL     1      34.499 -21.627 -18.818  0.00  0.00    +0.012 C 
ATOM      5  C   UNL     1      37.250 -21.369 -19.583  0.00  0.00    +0.092 C 
ATOM      6  C   UNL     1      34.860 -20.687 -19.921  0.00  0.00    +0.044 C 
ATOM      7  C   UNL     1      35.212 -22.920 -16.869  0.00  0.00    +0.036 C 
ATOM      8  C   UNL     1      33.200 -22.126 -18.630  0.00  0.00    +0.041 C 
ATOM      9  C   UNL     1      33.913 -23.389 -16.692  0.00  0.00    +0.172 C 
ATOM     10  C   UNL     1      32.910 -22.998 -17.575  0.00  0.00    +0.172 C 
ATOM     11  C   UNL     1      33.936 -19.956 -20.570  0.00  0.00    +0.014 C 
ATOM     12  H   UNL     1      36.483 -19.916 -20.879  0.00  0.00    +0.147 HD
ENDROOT
BRANCH  11  13
ATOM     13  C   UNL     1      34.207 -19.012 -21.662  0.00  0.00    +0.004 C 
ATOM     14  C   UNL     1      34.312 -17.647 -21.394  0.00  0.00    +0.040 C 
ATOM     15  C   UNL     1      34.360 -19.480 -22.967  0.00  0.00    +0.003 C 
ATOM     16  C   UNL     1      34.570 -16.750 -22.430  0.00  0.00    +0.172 C 
ATOM     17  C   UNL     1      34.722 -17.218 -23.735  0.00  0.00    +0.172 C 
ATOM     18  C   UNL     1      34.616 -18.583 -24.003  0.00  0.00    +0.040 C 
BRANCH  16  19
ATOM     19  O   UNL     1      34.669 -15.420 -22.156  0.00  0.00    -0.472 OA
BRANCH  19  20
ATOM     20  C   UNL     1      34.270 -14.994 -20.855  0.00  0.00    +0.206 C 
ATOM     21  C   UNL     1      32.949 -14.262 -20.960  0.00  0.00    +0.051 C 
ENDBRANCH  19  20
ENDBRANCH  16  19
BRANCH  17  22
ATOM     22  O   UNL     1      34.976 -16.353 -24.756  0.00  0.00    -0.472 OA
BRANCH  22  23
ATOM     23  C   UNL     1      33.899 -16.065 -25.645  0.00  0.00    +0.206 C 
ATOM     24  C   UNL     1      33.297 -14.726 -25.274  0.00  0.00    +0.051 C 
ENDBRANCH  22  23
ENDBRANCH  17  22
ENDBRANCH  11  13
BRANCH   9  25
ATOM     25  O   UNL     1      33.636 -24.223 -15.653  0.00  0.00    -0.472 OA
BRANCH  25  26
ATOM     26  C   UNL     1      34.701 -24.510 -14.750  0.00  0.00    +0.206 C 
ATOM     27  C   UNL     1      34.253 -24.188 -13.340  0.00  0.00    +0.051 C 
ENDBRANCH  25  26
ENDBRANCH   9  25
BRANCH  10  28
ATOM     28  O   UNL     1      31.638 -23.461 -17.423  0.00  0.00    -0.472 OA
BRANCH  28  29
ATOM     29  C   UNL     1      30.813 -22.784 -16.476  0.00  0.00    +0.206 C 
ATOM     30  C   UNL     1      30.090 -23.811 -15.629  0.00  0.00    +0.051 C 
ENDBRANCH  28  29
ENDBRANCH  10  28
TORSDOF 9
ENDMDL
MODEL 2
REMARK VINA RESULT:      -9.1      1.754      9.400
REMARK  Name = 1712095
REMARK  9 active torsions:
REMARK  status: ('A' for Active; 'I' for Inactive)
REMARK    1  A    between atoms: C_9  and  O_25
REMARK    2  A    between atoms: C_10  and  O_28
REMARK    3  A    between atoms: C_11  and  C_13
REMARK    4  A    between atoms: C_16  and  O_19
REMARK    5  A    between atoms: C_17  and  O_22
REMARK    6  A    between atoms: O_19  and  C_20
REMARK    7  A    between atoms: O_22  and  C_23
REMARK    8  A    between atoms: O_25  and  C_26
REMARK    9  A    between atoms: O_28  and  C_29
REMARK                            x       y       z     vdW  Elec       q    Type
REMARK                         _______ _______ _______ _____ _____    ______ ____
ROOT
ATOM      1  N   UNL     1      34.795 -19.780 -23.060  0.00  0.00    -0.332 N 
ATOM      2  C   UNL     1      34.315 -18.767 -25.211  0.00  0.00    +0.048 C 
ATOM      3  C   UNL     1      34.213 -17.445 -24.487  0.00  0.00    -0.016 C 
ATOM      4  C   UNL     1      34.224 -17.409 -23.072  0.00  0.00    +0.012 C 
ATOM      5  C   UNL     1      35.218 -19.723 -24.441  0.00  0.00    +0.092 C 
ATOM      6  C   UNL     1      34.353 -18.695 -22.324  0.00  0.00    +0.044 C 
ATOM      7  C   UNL     1      34.067 -16.261 -25.225  0.00  0.00    +0.036 C 
ATOM      8  C   UNL     1      34.138 -16.158 -22.439  0.00  0.00    +0.041 C 
ATOM      9  C   UNL     1      33.966 -15.035 -24.575  0.00  0.00    +0.172 C 
ATOM     10  C   UNL     1      34.010 -14.982 -23.185  0.00  0.00    +0.172 C 
ATOM     11  C   UNL     1      34.020 -18.805 -21.025  0.00  0.00    +0.014 C 
ATOM     12  H   UNL     1      34.824 -20.656 -22.609  0.00  0.00    +0.147 HD
ENDROOT
BRANCH  11  13
ATOM     13  C   UNL     1      34.117 -20.028 -20.219  0.00  0.00    +0.004 C 
ATOM     14  C   UNL     1      35.355 -20.447 -19.732  0.00  0.00    +0.040 C 
ATOM     15  C   UNL     1      32.970 -20.772 -19.940  0.00  0.00    +0.003 C 
ATOM     16  C   UNL     1      35.447 -21.609 -18.966  0.00  0.00    +0.172 C 
ATOM     17  C   UNL     1      34.301 -22.353 -18.688  0.00  0.00    +0.172 C 
ATOM     18  C   UNL     1      33.062 -21.934 -19.175  0.00  0.00    +0.040 C 
BRANCH  16  19
ATOM     19  O   UNL     1      36.662 -22.009 -18.498  0.00  0.00    -0.472 OA
BRANCH  19  20
ATOM     20  C   UNL     1      37.124 -21.402 -17.293  0.00  0.00    +0.206 C 
ATOM     21  C   UNL     1      37.521 -22.488 -16.315  0.00  0.00    +0.051 C 
ENDBRANCH  19  20
ENDBRANCH  16  19
BRANCH  17  22
ATOM     22  O   UNL     1      34.377 -23.489 -17.939  0.00  0.00    -0.472 OA
BRANCH  22  23
ATOM     23  C   UNL     1      33.442 -23.625 -16.871  0.00  0.00    +0.206 C 
ATOM     24  C   UNL     1      34.079 -23.126 -15.591  0.00  0.00    +0.051 C 
ENDBRANCH  22  23
ENDBRANCH  17  22
ENDBRANCH  11  13
BRANCH   9  25
ATOM     25  O   UNL     1      33.823 -13.897 -25.308  0.00  0.00    -0.472 OA
BRANCH  25  26
ATOM     26  C   UNL     1      32.975 -13.965 -26.452  0.00  0.00    +0.206 C 
ATOM     27  C   UNL     1      33.384 -12.888 -27.435  0.00  0.00    +0.051 C 
ENDBRANCH  25  26
ENDBRANCH   9  25
BRANCH  10  28
ATOM     28  O   UNL     1      33.927 -13.787 -22.536  0.00  0.00    -0.472 OA
BRANCH  28  29
ATOM     29  C   UNL     1      32.625 -13.342 -22.162  0.00  0.00    +0.206 C 
ATOM     30  C   UNL     1      32.450 -13.528 -20.670  0.00  0.00    +0.051 C 
ENDBRANCH  28  29
ENDBRANCH  10  28
TORSDOF 9
ENDMDL
MODEL 3
REMARK VINA RESULT:      -9.0      5.760     11.809
REMARK  Name = 1712095
REMARK  9 active torsions:
REMARK  status: ('A' for Active; 'I' for Inactive)
REMARK    1  A    between atoms: C_9  and  O_25
REMARK    2  A    between atoms: C_10  and  O_28
REMARK    3  A    between atoms: C_11  and  C_13
REMARK    4  A    between atoms: C_16  and  O_19
REMARK    5  A    between atoms: C_17  and  O_22
REMARK    6  A    between atoms: O_19  and  C_20
REMARK    7  A    between atoms: O_22  and  C_23
REMARK    8  A    between atoms: O_25  and  C_26
REMARK    9  A    between atoms: O_28  and  C_29
REMARK                            x       y       z     vdW  Elec       q    Type
REMARK                         _______ _______ _______ _____ _____    ______ ____
ROOT
ATOM      1  N   UNL     1      34.799 -11.209 -24.802  0.00  0.00    -0.332 N 
ATOM      2  C   UNL     1      34.544  -8.828 -25.192  0.00  0.00    +0.048 C 
ATOM      3  C   UNL     1      33.740  -8.777 -23.913  0.00  0.00    -0.016 C 
ATOM      4  C   UNL     1      33.363  -9.976 -23.264  0.00  0.00    +0.012 C 
ATOM      5  C   UNL     1      35.513 -10.004 -25.160  0.00  0.00    +0.092 C 
ATOM      6  C   UNL     1      33.788 -11.278 -23.860  0.00  0.00    +0.044 C 
ATOM      7  C   UNL     1      33.338  -7.535 -23.399  0.00  0.00    +0.036 C 
ATOM      8  C   UNL     1      32.627  -9.882 -22.071  0.00  0.00    +0.041 C 
ATOM      9  C   UNL     1      32.594  -7.468 -22.225  0.00  0.00    +0.172 C 
ATOM     10  C   UNL     1      32.246  -8.639 -21.558  0.00  0.00    +0.172 C 
ATOM     11  C   UNL     1      33.196 -12.442 -23.536  0.00  0.00    +0.014 C 
ATOM     12  H   UNL     1      35.053 -12.043 -25.262  0.00  0.00    +0.147 HD
ENDROOT
BRANCH  11  13
ATOM     13  C   UNL     1      33.552 -13.760 -24.075  0.00  0.00    +0.004 C 
ATOM     14  C   UNL     1      34.359 -14.622 -23.333  0.00  0.00    +0.040 C 
ATOM     15  C   UNL     1      33.083 -14.150 -25.329  0.00  0.00    +0.003 C 
ATOM     16  C   UNL     1      34.697 -15.875 -23.844  0.00  0.00    +0.172 C 
ATOM     17  C   UNL     1      34.229 -16.265 -25.098  0.00  0.00    +0.172 C 
ATOM     18  C   UNL     1      33.422 -15.403 -25.841  0.00  0.00    +0.040 C 
BRANCH  16  19
ATOM     19  O   UNL     1      35.487 -16.708 -23.111  0.00  0.00    -0.472 OA
BRANCH  19  20
ATOM     20  C   UNL     1      35.022 -17.067 -21.812  0.00  0.00    +0.206 C 
ATOM     21  C   UNL     1      35.778 -18.289 -21.337  0.00  0.00    +0.051 C 
ENDBRANCH  19  20
ENDBRANCH  16  19
BRANCH  17  22
ATOM     22  O   UNL     1      34.551 -17.487 -25.609  0.00  0.00    -0.472 OA
BRANCH  22  23
ATOM     23  C   UNL     1      33.825 -18.609 -25.111  0.00  0.00    +0.206 C 
ATOM     24  C   UNL     1      34.807 -19.668 -24.655  0.00  0.00    +0.051 C 
ENDBRANCH  22  23
ENDBRANCH  17  22
ENDBRANCH  11  13
BRANCH   9  25
ATOM     25  O   UNL     1      32.211  -6.254 -21.741  0.00  0.00    -0.472 OA
BRANCH  25  26
ATOM     26  C   UNL     1      30.990  -5.714 -22.240  0.00  0.00    +0.206 C 
ATOM     27  C   UNL     1      31.290  -4.451 -23.019  0.00  0.00    +0.051 C 
ENDBRANCH  25  26
ENDBRANCH   9  25
BRANCH  10  28
ATOM     28  O   UNL     1      31.530  -8.586 -20.400  0.00  0.00    -0.472 OA
BRANCH  28  29
ATOM     29  C   UNL     1      31.944  -9.453 -19.344  0.00  0.00    +0.206 C 
ATOM     30  C   UNL     1      30.935 -10.573 -19.202  0.00  0.00    +0.051 C 
ENDBRANCH  28  29
ENDBRANCH  10  28
TORSDOF 9
ENDMDL
MODEL 4
REMARK VINA RESULT:      -8.9      5.754     12.319
REMARK  Name = 1712095
REMARK  9 active torsions:
REMARK  status: ('A' for Active; 'I' for Inactive)
REMARK    1  A    between atoms: C_9  and  O_25
REMARK    2  A    between atoms: C_10  and  O_28
REMARK    3  A    between atoms: C_11  and  C_13
REMARK    4  A    between atoms: C_16  and  O_19
REMARK    5  A    between atoms: C_17  and  O_22
REMARK    6  A    between atoms: O_19  and  C_20
REMARK    7  A    between atoms: O_22  and  C_23
REMARK    8  A    between atoms: O_25  and  C_26
REMARK    9  A    between atoms: O_28  and  C_29
REMARK                            x       y       z     vdW  Elec       q    Type
REMARK                         _______ _______ _______ _____ _____    ______ ____
ROOT
ATOM      1  N   UNL     1      31.967 -12.486 -22.208  0.00  0.00    -0.332 N 
ATOM      2  C   UNL     1      31.606 -10.867 -20.437  0.00  0.00    +0.048 C 
ATOM      3  C   UNL     1      31.991  -9.797 -21.433  0.00  0.00    -0.016 C 
ATOM      4  C   UNL     1      32.518 -10.161 -22.695  0.00  0.00    +0.012 C 
ATOM      5  C   UNL     1      31.052 -12.088 -21.162  0.00  0.00    +0.092 C 
ATOM      6  C   UNL     1      32.668 -11.611 -23.019  0.00  0.00    +0.044 C 
ATOM      7  C   UNL     1      31.860  -8.446 -21.081  0.00  0.00    +0.036 C 
ATOM      8  C   UNL     1      32.852  -9.135 -23.595  0.00  0.00    +0.041 C 
ATOM      9  C   UNL     1      32.214  -7.447 -21.983  0.00  0.00    +0.172 C 
ATOM     10  C   UNL     1      32.702  -7.791 -23.240  0.00  0.00    +0.172 C 
ATOM     11  C   UNL     1      33.468 -12.045 -24.009  0.00  0.00    +0.014 C 
ATOM     12  H   UNL     1      32.101 -13.451 -22.354  0.00  0.00    +0.147 HD
ENDROOT
BRANCH  11  13
ATOM     13  C   UNL     1      33.670 -13.449 -24.391  0.00  0.00    +0.004 C 
ATOM     14  C   UNL     1      34.399 -14.299 -23.560  0.00  0.00    +0.040 C 
ATOM     15  C   UNL     1      33.133 -13.931 -25.584  0.00  0.00    +0.003 C 
ATOM     16  C   UNL     1      34.591 -15.633 -23.921  0.00  0.00    +0.172 C 
ATOM     17  C   UNL     1      34.054 -16.115 -25.114  0.00  0.00    +0.172 C 
ATOM     18  C   UNL     1      33.325 -15.264 -25.946  0.00  0.00    +0.040 C 
BRANCH  16  19
ATOM     19  O   UNL     1      35.306 -16.453 -23.102  0.00  0.00    -0.472 OA
BRANCH  19  20
ATOM     20  C   UNL     1      34.947 -16.466 -21.723  0.00  0.00    +0.206 C 
ATOM     21  C   UNL     1      35.316 -17.809 -21.129  0.00  0.00    +0.051 C 
ENDBRANCH  19  20
ENDBRANCH  16  19
BRANCH  17  22
ATOM     22  O   UNL     1      34.233 -17.416 -25.478  0.00  0.00    -0.472 OA
BRANCH  22  23
ATOM     23  C   UNL     1      33.792 -18.413 -24.559  0.00  0.00    +0.206 C 
ATOM     24  C   UNL     1      34.837 -19.507 -24.480  0.00  0.00    +0.051 C 
ENDBRANCH  22  23
ENDBRANCH  17  22
ENDBRANCH  11  13
BRANCH   9  25
ATOM     25  O   UNL     1      32.082  -6.141 -21.624  0.00  0.00    -0.472 OA
BRANCH  25  26
ATOM     26  C   UNL     1      30.820  -5.524 -21.871  0.00  0.00    +0.206 C 
ATOM     27  C   UNL     1      31.007  -4.398 -22.865  0.00  0.00    +0.051 C 
ENDBRANCH  25  26
ENDBRANCH   9  25
BRANCH  10  28
ATOM     28  O   UNL     1      33.038  -6.823 -24.139  0.00  0.00    -0.472 OA
BRANCH  28  29
ATOM     29  C   UNL     1      34.392  -6.799 -24.586  0.00  0.00    +0.206 C 
ATOM     30  C   UNL     1      34.489  -5.921 -25.817  0.00  0.00    +0.051 C 
ENDBRANCH  28  29
ENDBRANCH  10  28
TORSDOF 9
ENDMDL
MODEL 5
REMARK VINA RESULT:      -8.2      2.423      9.908
REMARK  Name = 1712095
REMARK  9 active torsions:
REMARK  status: ('A' for Active; 'I' for Inactive)
REMARK    1  A    between atoms: C_9  and  O_25
REMARK    2  A    between atoms: C_10  and  O_28
REMARK    3  A    between atoms: C_11  and  C_13
REMARK    4  A    between atoms: C_16  and  O_19
REMARK    5  A    between atoms: C_17  and  O_22
REMARK    6  A    between atoms: O_19  and  C_20
REMARK    7  A    between atoms: O_22  and  C_23
REMARK    8  A    between atoms: O_25  and  C_26
REMARK    9  A    between atoms: O_28  and  C_29
REMARK                            x       y       z     vdW  Elec       q    Type
REMARK                         _______ _______ _______ _____ _____    ______ ____
ROOT
ATOM      1  N   UNL     1      33.048 -16.557 -20.403  0.00  0.00    -0.332 N 
ATOM      2  C   UNL     1      33.246 -14.141 -20.502  0.00  0.00    +0.048 C 
ATOM      3  C   UNL     1      33.470 -14.290 -21.989  0.00  0.00    -0.016 C 
ATOM      4  C   UNL     1      33.655 -15.576 -22.552  0.00  0.00    +0.012 C 
ATOM      5  C   UNL     1      32.440 -15.320 -19.968  0.00  0.00    +0.092 C 
ATOM      6  C   UNL     1      33.606 -16.766 -21.652  0.00  0.00    +0.044 C 
ATOM      7  C   UNL     1      33.535 -13.146 -22.796  0.00  0.00    +0.036 C 
ATOM      8  C   UNL     1      33.849 -15.670 -23.940  0.00  0.00    +0.041 C 
ATOM      9  C   UNL     1      33.746 -13.263 -24.167  0.00  0.00    +0.172 C 
ATOM     10  C   UNL     1      33.895 -14.523 -24.739  0.00  0.00    +0.172 C 
ATOM     11  C   UNL     1      34.113 -17.959 -22.013  0.00  0.00    +0.014 C 
ATOM     12  H   UNL     1      33.065 -17.306 -19.764  0.00  0.00    +0.147 HD
ENDROOT
BRANCH  11  13
ATOM     13  C   UNL     1      34.106 -19.174 -21.190  0.00  0.00    +0.004 C 
ATOM     14  C   UNL     1      35.309 -19.719 -20.740  0.00  0.00    +0.040 C 
ATOM     15  C   UNL     1      32.897 -19.785 -20.859  0.00  0.00    +0.003 C 
ATOM     16  C   UNL     1      35.302 -20.873 -19.957  0.00  0.00    +0.172 C 
ATOM     17  C   UNL     1      34.094 -21.484 -19.626  0.00  0.00    +0.172 C 
ATOM     18  C   UNL     1      32.890 -20.940 -20.078  0.00  0.00    +0.040 C 
BRANCH  16  19
ATOM     19  O   UNL     1      36.483 -21.396 -19.524  0.00  0.00    -0.472 OA
BRANCH  19  20
ATOM     20  C   UNL     1      37.021 -20.869 -18.314  0.00  0.00    +0.206 C 
ATOM     21  C   UNL     1      36.948 -21.931 -17.237  0.00  0.00    +0.051 C 
ENDBRANCH  19  20
ENDBRANCH  16  19
BRANCH  17  22
ATOM     22  O   UNL     1      34.073 -22.612 -18.862  0.00  0.00    -0.472 OA
BRANCH  22  23
ATOM     23  C   UNL     1      33.014 -22.735 -17.915  0.00  0.00    +0.206 C 
ATOM     24  C   UNL     1      33.563 -23.324 -16.633  0.00  0.00    +0.051 C 
ENDBRANCH  22  23
ENDBRANCH  17  22
ENDBRANCH  11  13
BRANCH   9  25
ATOM     25  O   UNL     1      33.808 -12.141 -24.936  0.00  0.00    -0.472 OA
BRANCH  25  26
ATOM     26  C   UNL     1      33.906 -10.893 -24.254  0.00  0.00    +0.206 C 
ATOM     27  C   UNL     1      35.027 -10.082 -24.868  0.00  0.00    +0.051 C 
ENDBRANCH  25  26
ENDBRANCH   9  25
BRANCH  10  28
ATOM     28  O   UNL     1      34.087 -14.654 -26.082  0.00  0.00    -0.472 OA
BRANCH  28  29
ATOM     29  C   UNL     1      32.919 -14.736 -26.897  0.00  0.00    +0.206 C 
ATOM     30  C   UNL     1      32.675 -13.389 -27.545  0.00  0.00    +0.051 C 
ENDBRANCH  28  29
ENDBRANCH  10  28
TORSDOF 9
ENDMDL
MODEL 6
REMARK VINA RESULT:      -8.2      7.632     12.456
REMARK  Name = 1712095
REMARK  9 active torsions:
REMARK  status: ('A' for Active; 'I' for Inactive)
REMARK    1  A    between atoms: C_9  and  O_25
REMARK    2  A    between atoms: C_10  and  O_28
REMARK    3  A    between atoms: C_11  and  C_13
REMARK    4  A    between atoms: C_16  and  O_19
REMARK    5  A    between atoms: C_17  and  O_22
REMARK    6  A    between atoms: O_19  and  C_20
REMARK    7  A    between atoms: O_22  and  C_23
REMARK    8  A    between atoms: O_25  and  C_26
REMARK    9  A    between atoms: O_28  and  C_29
REMARK                            x       y       z     vdW  Elec       q    Type
REMARK                         _______ _______ _______ _____ _____    ______ ____
ROOT
ATOM      1  N   UNL     1      31.840  -8.554 -20.950  0.00  0.00    -0.332 N 
ATOM      2  C   UNL     1      31.238 -10.544 -19.700  0.00  0.00    +0.048 C 
ATOM      3  C   UNL     1      31.713 -11.348 -20.889  0.00  0.00    -0.016 C 
ATOM      4  C   UNL     1      32.044 -10.695 -22.100  0.00  0.00    +0.012 C 
ATOM      5  C   UNL     1      31.946  -9.195 -19.659  0.00  0.00    +0.092 C 
ATOM      6  C   UNL     1      31.929  -9.207 -22.166  0.00  0.00    +0.044 C 
ATOM      7  C   UNL     1      31.782 -12.746 -20.794  0.00  0.00    +0.036 C 
ATOM      8  C   UNL     1      32.492 -11.479 -23.176  0.00  0.00    +0.041 C 
ATOM      9  C   UNL     1      32.213 -13.503 -21.880  0.00  0.00    +0.172 C 
ATOM     10  C   UNL     1      32.574 -12.870 -23.066  0.00  0.00    +0.172 C 
ATOM     11  C   UNL     1      31.872  -8.545 -23.336  0.00  0.00    +0.014 C 
ATOM     12  H   UNL     1      31.694  -7.579 -20.965  0.00  0.00    +0.147 HD
ENDROOT
BRANCH  11  13
ATOM     13  C   UNL     1      31.759  -7.089 -23.487  0.00  0.00    +0.004 C 
ATOM     14  C   UNL     1      32.451  -6.438 -24.508  0.00  0.00    +0.040 C 
ATOM     15  C   UNL     1      30.958  -6.357 -22.611  0.00  0.00    +0.003 C 
ATOM     16  C   UNL     1      32.343  -5.055 -24.653  0.00  0.00    +0.172 C 
ATOM     17  C   UNL     1      31.543  -4.323 -23.777  0.00  0.00    +0.172 C 
ATOM     18  C   UNL     1      30.851  -4.973 -22.755  0.00  0.00    +0.040 C 
BRANCH  16  19
ATOM     19  O   UNL     1      33.026  -4.430 -25.653  0.00  0.00    -0.472 OA
BRANCH  19  20
ATOM     20  C   UNL     1      33.430  -5.231 -26.761  0.00  0.00    +0.206 C 
ATOM     21  C   UNL     1      33.137  -4.483 -28.044  0.00  0.00    +0.051 C 
ENDBRANCH  19  20
ENDBRANCH  16  19
BRANCH  17  22
ATOM     22  O   UNL     1      31.428  -2.971 -23.908  0.00  0.00    -0.472 OA
BRANCH  22  23
ATOM     23  C   UNL     1      30.372  -2.488 -24.735  0.00  0.00    +0.206 C 
ATOM     24  C   UNL     1      30.968  -1.786 -25.937  0.00  0.00    +0.051 C 
ENDBRANCH  22  23
ENDBRANCH  17  22
ENDBRANCH  11  13
BRANCH   9  25
ATOM     25  O   UNL     1      32.272 -14.859 -21.771  0.00  0.00    -0.472 OA
BRANCH  25  26
ATOM     26  C   UNL     1      32.899 -15.389 -20.606  0.00  0.00    +0.206 C 
ATOM     27  C   UNL     1      34.401 -15.256 -20.749  0.00  0.00    +0.051 C 
ENDBRANCH  25  26
ENDBRANCH   9  25
BRANCH  10  28
ATOM     28  O   UNL     1      33.011 -13.599 -24.131  0.00  0.00    -0.472 OA
BRANCH  28  29
ATOM     29  C   UNL     1      33.511 -12.870 -25.251  0.00  0.00    +0.206 C 
ATOM     30  C   UNL     1      33.191 -13.635 -26.519  0.00  0.00    +0.051 C 
ENDBRANCH  28  29
ENDBRANCH  10  28
TORSDOF 9
ENDMDL
MODEL 7
REMARK VINA RESULT:      -8.1      1.957      9.535
REMARK  Name = 1712095
REMARK  9 active torsions:
REMARK  status: ('A' for Active; 'I' for Inactive)
REMARK    1  A    between atoms: C_9  and  O_25
REMARK    2  A    between atoms: C_10  and  O_28
REMARK    3  A    between atoms: C_11  and  C_13
REMARK    4  A    between atoms: C_16  and  O_19
REMARK    5  A    between atoms: C_17  and  O_22
REMARK    6  A    between atoms: O_19  and  C_20
REMARK    7  A    between atoms: O_22  and  C_23
REMARK    8  A    between atoms: O_25  and  C_26
REMARK    9  A    between atoms: O_28  and  C_29
REMARK                            x       y       z     vdW  Elec       q    Type
REMARK                         _______ _______ _______ _____ _____    ______ ____
ROOT
ATOM      1  N   UNL     1      34.997 -19.298 -23.445  0.00  0.00    -0.332 N 
ATOM      2  C   UNL     1      34.088 -18.421 -25.516  0.00  0.00    +0.048 C 
ATOM      3  C   UNL     1      33.979 -17.084 -24.819  0.00  0.00    -0.016 C 
ATOM      4  C   UNL     1      34.211 -16.989 -23.426  0.00  0.00    +0.012 C 
ATOM      5  C   UNL     1      35.188 -19.261 -24.877  0.00  0.00    +0.092 C 
ATOM      6  C   UNL     1      34.578 -18.227 -22.676  0.00  0.00    +0.044 C 
ATOM      7  C   UNL     1      33.606 -15.950 -25.555  0.00  0.00    +0.036 C 
ATOM      8  C   UNL     1      34.110 -15.726 -22.821  0.00  0.00    +0.041 C 
ATOM      9  C   UNL     1      33.496 -14.711 -24.930  0.00  0.00    +0.172 C 
ATOM     10  C   UNL     1      33.755 -14.598 -23.567  0.00  0.00    +0.172 C 
ATOM     11  C   UNL     1      34.467 -18.312 -21.337  0.00  0.00    +0.014 C 
ATOM     12  H   UNL     1      35.180 -20.149 -22.982  0.00  0.00    +0.147 HD
ENDROOT
BRANCH  11  13
ATOM     13  C   UNL     1      34.805 -19.488 -20.526  0.00  0.00    +0.004 C 
ATOM     14  C   UNL     1      33.815 -20.411 -20.188  0.00  0.00    +0.040 C 
ATOM     15  C   UNL     1      36.117 -19.683 -20.093  0.00  0.00    +0.003 C 
ATOM     16  C   UNL     1      34.136 -21.528 -19.418  0.00  0.00    +0.172 C 
ATOM     17  C   UNL     1      35.447 -21.723 -18.984  0.00  0.00    +0.172 C 
ATOM     18  C   UNL     1      36.437 -20.800 -19.322  0.00  0.00    +0.040 C 
BRANCH  16  19
ATOM     19  O   UNL     1      33.160 -22.421 -19.093  0.00  0.00    -0.472 OA
BRANCH  19  20
ATOM     20  C   UNL     1      32.361 -22.122 -17.951  0.00  0.00    +0.206 C 
ATOM     21  C   UNL     1      32.439 -23.278 -16.977  0.00  0.00    +0.051 C 
ENDBRANCH  19  20
ENDBRANCH  16  19
BRANCH  17  22
ATOM     22  O   UNL     1      35.774 -22.811 -18.233  0.00  0.00    -0.472 OA
BRANCH  22  23
ATOM     23  C   UNL     1      35.875 -22.619 -16.823  0.00  0.00    +0.206 C 
ATOM     24  C   UNL     1      37.335 -22.488 -16.446  0.00  0.00    +0.051 C 
ENDBRANCH  22  23
ENDBRANCH  17  22
ENDBRANCH  11  13
BRANCH   9  25
ATOM     25  O   UNL     1      33.132 -13.621 -25.660  0.00  0.00    -0.472 OA
BRANCH  25  26
ATOM     26  C   UNL     1      33.323 -13.691 -27.071  0.00  0.00    +0.206 C 
ATOM     27  C   UNL     1      34.407 -12.713 -27.471  0.00  0.00    +0.051 C 
ENDBRANCH  25  26
ENDBRANCH   9  25
BRANCH  10  28
ATOM     28  O   UNL     1      33.664 -13.389 -22.946  0.00  0.00    -0.472 OA
BRANCH  28  29
ATOM     29  C   UNL     1      32.383 -13.013 -22.444  0.00  0.00    +0.206 C 
ATOM     30  C   UNL     1      32.346 -13.264 -20.951  0.00  0.00    +0.051 C 
ENDBRANCH  28  29
ENDBRANCH  10  28
TORSDOF 9
ENDMDL
MODEL 8
REMARK VINA RESULT:      -7.9      1.804      3.169
REMARK  Name = 1712095
REMARK  9 active torsions:
REMARK  status: ('A' for Active; 'I' for Inactive)
REMARK    1  A    between atoms: C_9  and  O_25
REMARK    2  A    between atoms: C_10  and  O_28
REMARK    3  A    between atoms: C_11  and  C_13
REMARK    4  A    between atoms: C_16  and  O_19
REMARK    5  A    between atoms: C_17  and  O_22
REMARK    6  A    between atoms: O_19  and  C_20
REMARK    7  A    between atoms: O_22  and  C_23
REMARK    8  A    between atoms: O_25  and  C_26
REMARK    9  A    between atoms: O_28  and  C_29
REMARK                            x       y       z     vdW  Elec       q    Type
REMARK                         _______ _______ _______ _____ _____    ______ ____
ROOT
ATOM      1  N   UNL     1      33.128 -19.631 -20.994  0.00  0.00    -0.332 N 
ATOM      2  C   UNL     1      32.320 -21.492 -19.665  0.00  0.00    +0.048 C 
ATOM      3  C   UNL     1      33.728 -21.634 -19.135  0.00  0.00    -0.016 C 
ATOM      4  C   UNL     1      34.781 -20.883 -19.710  0.00  0.00    +0.012 C 
ATOM      5  C   UNL     1      32.065 -20.058 -20.112  0.00  0.00    +0.092 C 
ATOM      6  C   UNL     1      34.464 -19.949 -20.831  0.00  0.00    +0.044 C 
ATOM      7  C   UNL     1      33.988 -22.541 -18.097  0.00  0.00    +0.036 C 
ATOM      8  C   UNL     1      36.072 -21.036 -19.179  0.00  0.00    +0.041 C 
ATOM      9  C   UNL     1      35.279 -22.688 -17.599  0.00  0.00    +0.172 C 
ATOM     10  C   UNL     1      36.318 -21.931 -18.134  0.00  0.00    +0.172 C 
ATOM     11  C   UNL     1      35.414 -19.478 -21.661  0.00  0.00    +0.014 C 
ATOM     12  H   UNL     1      32.882 -19.072 -21.767  0.00  0.00    +0.147 HD
ENDROOT
BRANCH  11  13
ATOM     13  C   UNL     1      35.187 -18.559 -22.784  0.00  0.00    +0.004 C 
ATOM     14  C   UNL     1      35.226 -17.181 -22.576  0.00  0.00    +0.040 C 
ATOM     15  C   UNL     1      34.934 -19.066 -24.058  0.00  0.00    +0.003 C 
ATOM     16  C   UNL     1      35.011 -16.308 -23.642  0.00  0.00    +0.172 C 
ATOM     17  C   UNL     1      34.758 -16.813 -24.916  0.00  0.00    +0.172 C 
ATOM     18  C   UNL     1      34.719 -18.193 -25.125  0.00  0.00    +0.040 C 
BRANCH  16  19
ATOM     19  O   UNL     1      35.050 -14.963 -23.426  0.00  0.00    -0.472 OA
BRANCH  19  20
ATOM     20  C   UNL     1      34.310 -14.464 -22.314  0.00  0.00    +0.206 C 
ATOM     21  C   UNL     1      32.898 -14.151 -22.761  0.00  0.00    +0.051 C 
ENDBRANCH  19  20
ENDBRANCH  16  19
BRANCH  17  22
ATOM     22  O   UNL     1      34.548 -15.972 -25.967  0.00  0.00    -0.472 OA
BRANCH  22  23
ATOM     23  C   UNL     1      33.203 -15.573 -26.220  0.00  0.00    +0.206 C 
ATOM     24  C   UNL     1      33.176 -14.088 -26.517  0.00  0.00    +0.051 C 
ENDBRANCH  22  23
ENDBRANCH  17  22
ENDBRANCH  11  13
BRANCH   9  25
ATOM     25  O   UNL     1      35.514 -23.575 -16.594  0.00  0.00    -0.472 OA
BRANCH  25  26
ATOM     26  C   UNL     1      34.515 -23.689 -15.583  0.00  0.00    +0.206 C 
ATOM     27  C   UNL     1      35.035 -24.576 -14.472  0.00  0.00    +0.051 C 
ENDBRANCH  25  26
ENDBRANCH   9  25
BRANCH  10  28
ATOM     28  O   UNL     1      37.584 -22.055 -17.645  0.00  0.00    -0.472 OA
BRANCH  28  29
ATOM     29  C   UNL     1      37.743 -21.962 -16.231  0.00  0.00    +0.206 C 
ATOM     30  C   UNL     1      38.372 -23.242 -15.721  0.00  0.00    +0.051 C 
ENDBRANCH  28  29
ENDBRANCH  10  28
TORSDOF 9
ENDMDL
MODEL 9
REMARK VINA RESULT:      -7.8      2.673     10.036
REMARK  Name = 1712095
REMARK  9 active torsions:
REMARK  status: ('A' for Active; 'I' for Inactive)
REMARK    1  A    between atoms: C_9  and  O_25
REMARK    2  A    between atoms: C_10  and  O_28
REMARK    3  A    between atoms: C_11  and  C_13
REMARK    4  A    between atoms: C_16  and  O_19
REMARK    5  A    between atoms: C_17  and  O_22
REMARK    6  A    between atoms: O_19  and  C_20
REMARK    7  A    between atoms: O_22  and  C_23
REMARK    8  A    between atoms: O_25  and  C_26
REMARK    9  A    between atoms: O_28  and  C_29
REMARK                            x       y       z     vdW  Elec       q    Type
REMARK                         _______ _______ _______ _____ _____    ______ ____
ROOT
ATOM      1  N   UNL     1      33.193 -16.219 -20.606  0.00  0.00    -0.332 N 
ATOM      2  C   UNL     1      32.628 -13.866 -20.438  0.00  0.00    +0.048 C 
ATOM      3  C   UNL     1      33.018 -13.740 -21.892  0.00  0.00    -0.016 C 
ATOM      4  C   UNL     1      33.646 -14.823 -22.554  0.00  0.00    +0.012 C 
ATOM      5  C   UNL     1      32.190 -15.293 -20.129  0.00  0.00    +0.092 C 
ATOM      6  C   UNL     1      33.896 -16.081 -21.790  0.00  0.00    +0.044 C 
ATOM      7  C   UNL     1      32.789 -12.533 -22.568  0.00  0.00    +0.036 C 
ATOM      8  C   UNL     1      33.981 -14.668 -23.909  0.00  0.00    +0.041 C 
ATOM      9  C   UNL     1      33.146 -12.397 -23.907  0.00  0.00    +0.172 C 
ATOM     10  C   UNL     1      33.734 -13.465 -24.578  0.00  0.00    +0.172 C 
ATOM     11  C   UNL     1      34.782 -17.006 -22.202  0.00  0.00    +0.014 C 
ATOM     12  H   UNL     1      33.389 -17.006 -20.047  0.00  0.00    +0.147 HD
ENDROOT
BRANCH  11  13
ATOM     13  C   UNL     1      35.086 -18.265 -21.512  0.00  0.00    +0.004 C 
ATOM     14  C   UNL     1      34.069 -19.185 -21.257  0.00  0.00    +0.040 C 
ATOM     15  C   UNL     1      36.393 -18.542 -21.110  0.00  0.00    +0.003 C 
ATOM     16  C   UNL     1      34.357 -20.382 -20.602  0.00  0.00    +0.172 C 
ATOM     17  C   UNL     1      35.663 -20.658 -20.200  0.00  0.00    +0.172 C 
ATOM     18  C   UNL     1      36.681 -19.738 -20.453  0.00  0.00    +0.040 C 
BRANCH  16  19
ATOM     19  O   UNL     1      33.355 -21.271 -20.358  0.00  0.00    -0.472 OA
BRANCH  19  20
ATOM     20  C   UNL     1      32.676 -21.156 -19.110  0.00  0.00    +0.206 C 
ATOM     21  C   UNL     1      32.889 -22.426 -18.313  0.00  0.00    +0.051 C 
ENDBRANCH  19  20
ENDBRANCH  16  19
BRANCH  17  22
ATOM     22  O   UNL     1      35.959 -21.824 -19.560  0.00  0.00    -0.472 OA
BRANCH  22  23
ATOM     23  C   UNL     1      36.810 -21.741 -18.419  0.00  0.00    +0.206 C 
ATOM     24  C   UNL     1      36.066 -22.265 -17.209  0.00  0.00    +0.051 C 
ENDBRANCH  22  23
ENDBRANCH  17  22
ENDBRANCH  11  13
BRANCH   9  25
ATOM     25  O   UNL     1      32.919 -11.217 -24.545  0.00  0.00    -0.472 OA
BRANCH  25  26
ATOM     26  C   UNL     1      33.673 -10.088 -24.110  0.00  0.00    +0.206 C 
ATOM     27  C   UNL     1      34.997 -10.066 -24.844  0.00  0.00    +0.051 C 
ENDBRANCH  25  26
ENDBRANCH   9  25
BRANCH  10  28
ATOM     28  O   UNL     1      34.074 -13.351 -25.892  0.00  0.00    -0.472 OA
BRANCH  28  29
ATOM     29  C   UNL     1      33.293 -14.090 -26.829  0.00  0.00    +0.206 C 
ATOM     30  C   UNL     1      32.247 -13.174 -27.430  0.00  0.00    +0.051 C 
ENDBRANCH  28  29
ENDBRANCH  10  28
TORSDOF 9
ENDMDL
