MODEL 1
REMARK VINA RESULT:      -9.5      0.000      0.000
REMARK  Name = 60700
REMARK  5 active torsions:
REMARK  status: ('A' for Active; 'I' for Inactive)
REMARK    1  A    between atoms: C_6  and  O_24
REMARK    2  A    between atoms: C_6  and  C_28
REMARK    3  A    between atoms: C_20  and  C_30
REMARK    4  A    between atoms: C_22  and  O_26
REMARK    5  A    between atoms: C_30  and  N_31
REMARK                            x       y       z     vdW  Elec       q    Type
REMARK                         _______ _______ _______ _____ _____    ______ ____
ROOT
ATOM      1  O   UNL     1      35.452 -19.783 -23.428  0.00  0.00    -0.442 OA
ATOM      2  O   UNL     1      34.522 -16.493 -25.921  0.00  0.00    -0.270 OA
ATOM      3  O   UNL     1      35.958 -20.381 -21.324  0.00  0.00    -0.247 OA
ATOM      4  N   UNL     1      33.878 -15.223 -24.099  0.00  0.00    -0.249 N 
ATOM      5  N   UNL     1      32.831 -13.277 -21.260  0.00  0.00    -0.405 NA
ATOM      6  C   UNL     1      34.299 -18.646 -21.580  0.00  0.00    +0.196 C 
ATOM      7  C   UNL     1      34.182 -17.448 -22.482  0.00  0.00    +0.017 C 
ATOM      8  C   UNL     1      33.606 -15.129 -22.744  0.00  0.00    +0.084 C 
ATOM      9  C   UNL     1      33.656 -13.929 -24.777  0.00  0.00    +0.128 C 
ATOM     10  C   UNL     1      34.438 -17.571 -23.797  0.00  0.00    +0.074 C 
ATOM     11  C   UNL     1      33.213 -13.055 -23.649  0.00  0.00    +0.029 C 
ATOM     12  C   UNL     1      33.184 -13.765 -22.458  0.00  0.00    +0.142 C 
ATOM     13  C   UNL     1      33.735 -16.179 -21.929  0.00  0.00    +0.016 C 
ATOM     14  C   UNL     1      34.291 -16.388 -24.720  0.00  0.00    +0.252 C 
ATOM     15  C   UNL     1      34.860 -18.874 -24.383  0.00  0.00    +0.239 C 
ATOM     16  C   UNL     1      35.315 -19.662 -22.088  0.00  0.00    +0.346 C 
ATOM     17  C   UNL     1      32.852 -11.729 -23.631  0.00  0.00    +0.002 C 
ATOM     18  C   UNL     1      32.472 -11.162 -22.403  0.00  0.00    +0.022 C 
ATOM     19  C   UNL     1      32.475 -11.977 -21.236  0.00  0.00    +0.113 C 
ATOM     20  C   UNL     1      32.093  -9.813 -22.319  0.00  0.00    -0.008 C 
ATOM     21  C   UNL     1      32.095 -11.393 -20.031  0.00  0.00    +0.088 C 
ATOM     22  C   UNL     1      31.718  -9.260 -21.098  0.00  0.00    +0.124 C 
ATOM     23  C   UNL     1      31.719 -10.050 -19.955  0.00  0.00    +0.018 C 
ENDROOT
BRANCH   6  24
ATOM     24  O   UNL     1      34.803 -18.242 -20.304  0.00  0.00    -0.373 OA
ATOM     25  H   UNL     1      34.140 -17.696 -19.852  0.00  0.00    +0.211 HD
ENDBRANCH   6  24
BRANCH  22  26
ATOM     26  O   UNL     1      31.347  -7.952 -21.001  0.00  0.00    -0.506 OA
ATOM     27  H   UNL     1      31.999  -7.288 -20.891  0.00  0.00    +0.292 HD
ENDBRANCH  22  26
BRANCH   6  28
ATOM     28  C   UNL     1      32.949 -19.338 -21.382  0.00  0.00    +0.042 C 
ATOM     29  C   UNL     1      33.000 -20.327 -20.235  0.00  0.00    +0.003 C 
ENDBRANCH   6  28
BRANCH  20  30
ATOM     30  C   UNL     1      32.078  -8.928 -23.530  0.00  0.00    -0.047 C 
BRANCH  30  31
ATOM     31  N   UNL     1      33.029  -7.851 -23.385  0.00  0.00    +0.387 N 
ATOM     32  C   UNL     1      32.598  -6.660 -24.128  0.00  0.00    -0.100 C 
ATOM     33  C   UNL     1      34.365  -8.261 -23.838  0.00  0.00    -0.100 C 
ATOM     34  H   UNL     1      33.077  -7.620 -22.393  0.00  0.00    -0.079 HD
ENDBRANCH  30  31
ENDBRANCH  20  30
TORSDOF 5
ENDMDL
MODEL 2
REMARK VINA RESULT:      -9.0      1.855      9.218
REMARK  Name = 60700
REMARK  5 active torsions:
REMARK  status: ('A' for Active; 'I' for Inactive)
REMARK    1  A    between atoms: C_6  and  O_24
REMARK    2  A    between atoms: C_6  and  C_28
REMARK    3  A    between atoms: C_20  and  C_30
REMARK    4  A    between atoms: C_22  and  O_26
REMARK    5  A    between atoms: C_30  and  N_31
REMARK                            x       y       z     vdW  Elec       q    Type
REMARK                         _______ _______ _______ _____ _____    ______ ____
ROOT
ATOM      1  O   UNL     1      31.884  -7.748 -20.725  0.00  0.00    -0.442 OA
ATOM      2  O   UNL     1      31.458 -11.525 -18.862  0.00  0.00    -0.270 OA
ATOM      3  O   UNL     1      32.975  -6.633 -22.338  0.00  0.00    -0.247 OA
ATOM      4  N   UNL     1      32.343 -12.597 -20.710  0.00  0.00    -0.249 N 
ATOM      5  N   UNL     1      33.672 -14.258 -23.611  0.00  0.00    -0.405 NA
ATOM      6  C   UNL     1      32.327  -8.901 -22.850  0.00  0.00    +0.196 C 
ATOM      7  C   UNL     1      32.347 -10.187 -22.068  0.00  0.00    +0.017 C 
ATOM      8  C   UNL     1      32.790 -12.548 -22.020  0.00  0.00    +0.084 C 
ATOM      9  C   UNL     1      32.424 -13.971 -20.171  0.00  0.00    +0.128 C 
ATOM     10  C   UNL     1      31.893 -10.209 -20.802  0.00  0.00    +0.074 C 
ATOM     11  C   UNL     1      32.976 -14.732 -21.332  0.00  0.00    +0.029 C 
ATOM     12  C   UNL     1      33.188 -13.893 -22.416  0.00  0.00    +0.142 C 
ATOM     13  C   UNL     1      32.805 -11.408 -22.713  0.00  0.00    +0.016 C 
ATOM     14  C   UNL     1      31.872 -11.496 -20.018  0.00  0.00    +0.252 C 
ATOM     15  C   UNL     1      31.385  -8.973 -20.142  0.00  0.00    +0.239 C 
ATOM     16  C   UNL     1      32.442  -7.673 -21.955  0.00  0.00    +0.346 C 
ATOM     17  C   UNL     1      33.281 -16.065 -21.467  0.00  0.00    +0.002 C 
ATOM     18  C   UNL     1      33.793 -16.508 -22.698  0.00  0.00    +0.022 C 
ATOM     19  C   UNL     1      33.973 -15.565 -23.749  0.00  0.00    +0.113 C 
ATOM     20  C   UNL     1      34.125 -17.857 -22.898  0.00  0.00    -0.008 C 
ATOM     21  C   UNL     1      34.482 -16.026 -24.960  0.00  0.00    +0.088 C 
ATOM     22  C   UNL     1      34.631 -18.286 -24.121  0.00  0.00    +0.124 C 
ATOM     23  C   UNL     1      34.810 -17.371 -25.151  0.00  0.00    +0.018 C 
ENDROOT
BRANCH   6  24
ATOM     24  O   UNL     1      33.476  -8.835 -23.698  0.00  0.00    -0.373 OA
ATOM     25  H   UNL     1      34.279  -8.814 -23.154  0.00  0.00    +0.211 HD
ENDBRANCH   6  24
BRANCH  22  26
ATOM     26  O   UNL     1      34.958 -19.593 -24.329  0.00  0.00    -0.506 OA
ATOM     27  H   UNL     1      34.633 -20.042 -25.085  0.00  0.00    +0.292 HD
ENDBRANCH  22  26
BRANCH   6  28
ATOM     28  C   UNL     1      31.068  -8.783 -23.711  0.00  0.00    +0.042 C 
ATOM     29  C   UNL     1      30.904  -7.378 -24.255  0.00  0.00    +0.003 C 
ENDBRANCH   6  28
BRANCH  20  30
ATOM     30  C   UNL     1      33.947 -18.875 -21.811  0.00  0.00    -0.047 C 
BRANCH  30  31
ATOM     31  N   UNL     1      35.194 -19.547 -21.533  0.00  0.00    +0.387 N 
ATOM     32  C   UNL     1      35.012 -20.612 -20.538  0.00  0.00    -0.100 C 
ATOM     33  C   UNL     1      36.213 -18.599 -21.064  0.00  0.00    -0.100 C 
ATOM     34  H   UNL     1      35.514 -19.966 -22.407  0.00  0.00    -0.079 HD
ENDBRANCH  30  31
ENDBRANCH  20  30
TORSDOF 5
ENDMDL
MODEL 3
REMARK VINA RESULT:      -8.5      2.028      2.851
REMARK  Name = 60700
REMARK  5 active torsions:
REMARK  status: ('A' for Active; 'I' for Inactive)
REMARK    1  A    between atoms: C_6  and  O_24
REMARK    2  A    between atoms: C_6  and  C_28
REMARK    3  A    between atoms: C_20  and  C_30
REMARK    4  A    between atoms: C_22  and  O_26
REMARK    5  A    between atoms: C_30  and  N_31
REMARK                            x       y       z     vdW  Elec       q    Type
REMARK                         _______ _______ _______ _____ _____    ______ ____
ROOT
ATOM      1  O   UNL     1      34.980 -17.198 -23.675  0.00  0.00    -0.442 OA
ATOM      2  O   UNL     1      33.574 -14.174 -26.280  0.00  0.00    -0.270 OA
ATOM      3  O   UNL     1      35.881 -17.578 -21.654  0.00  0.00    -0.247 OA
ATOM      4  N   UNL     1      33.282 -12.710 -24.513  0.00  0.00    -0.249 N 
ATOM      5  N   UNL     1      32.784 -10.462 -21.750  0.00  0.00    -0.405 NA
ATOM      6  C   UNL     1      34.194 -15.855 -21.772  0.00  0.00    +0.196 C 
ATOM      7  C   UNL     1      33.901 -14.757 -22.757  0.00  0.00    +0.017 C 
ATOM      8  C   UNL     1      33.272 -12.471 -23.149  0.00  0.00    +0.084 C 
ATOM      9  C   UNL     1      32.927 -11.492 -25.270  0.00  0.00    +0.128 C 
ATOM     10  C   UNL     1      33.902 -15.021 -24.076  0.00  0.00    +0.074 C 
ATOM     11  C   UNL     1      32.702 -10.498 -24.178  0.00  0.00    +0.029 C 
ATOM     12  C   UNL     1      32.905 -11.078 -22.934  0.00  0.00    +0.142 C 
ATOM     13  C   UNL     1      33.560 -13.430 -22.267  0.00  0.00    +0.016 C 
ATOM     14  C   UNL     1      33.575 -13.940 -25.074  0.00  0.00    +0.252 C 
ATOM     15  C   UNL     1      34.212 -16.385 -24.590  0.00  0.00    +0.239 C 
ATOM     16  C   UNL     1      35.101 -16.934 -22.353  0.00  0.00    +0.346 C 
ATOM     17  C   UNL     1      32.343  -9.172 -24.232  0.00  0.00    +0.002 C 
ATOM     18  C   UNL     1      32.202  -8.473 -23.022  0.00  0.00    +0.022 C 
ATOM     19  C   UNL     1      32.432  -9.161 -21.796  0.00  0.00    +0.113 C 
ATOM     20  C   UNL     1      31.838  -7.117 -23.010  0.00  0.00    -0.008 C 
ATOM     21  C   UNL     1      32.285  -8.448 -20.610  0.00  0.00    +0.088 C 
ATOM     22  C   UNL     1      31.699  -6.433 -21.806  0.00  0.00    +0.124 C 
ATOM     23  C   UNL     1      31.923  -7.099 -20.606  0.00  0.00    +0.018 C 
ENDROOT
BRANCH   6  24
ATOM     24  O   UNL     1      34.930 -15.327 -20.665  0.00  0.00    -0.373 OA
ATOM     25  H   UNL     1      35.667 -14.788 -20.994  0.00  0.00    +0.211 HD
ENDBRANCH   6  24
BRANCH  22  26
ATOM     26  O   UNL     1      31.347  -5.117 -21.779  0.00  0.00    -0.506 OA
ATOM     27  H   UNL     1      30.469  -4.863 -21.988  0.00  0.00    +0.292 HD
ENDBRANCH  22  26
BRANCH   6  28
ATOM     28  C   UNL     1      32.911 -16.503 -21.249  0.00  0.00    +0.042 C 
ATOM     29  C   UNL     1      32.229 -15.622 -20.222  0.00  0.00    +0.003 C 
ENDBRANCH   6  28
BRANCH  20  30
ATOM     30  C   UNL     1      31.587  -6.364 -24.283  0.00  0.00    -0.047 C 
BRANCH  30  31
ATOM     31  N   UNL     1      32.627  -5.389 -24.510  0.00  0.00    +0.387 N 
ATOM     32  C   UNL     1      32.078  -4.153 -25.082  0.00  0.00    -0.100 C 
ATOM     33  C   UNL     1      33.671  -5.923 -25.395  0.00  0.00    -0.100 C 
ATOM     34  H   UNL     1      33.044  -5.174 -23.605  0.00  0.00    -0.079 HD
ENDBRANCH  30  31
ENDBRANCH  20  30
TORSDOF 5
ENDMDL
MODEL 4
REMARK VINA RESULT:      -8.3      1.822      3.340
REMARK  Name = 60700
REMARK  5 active torsions:
REMARK  status: ('A' for Active; 'I' for Inactive)
REMARK    1  A    between atoms: C_6  and  O_24
REMARK    2  A    between atoms: C_6  and  C_28
REMARK    3  A    between atoms: C_20  and  C_30
REMARK    4  A    between atoms: C_22  and  O_26
REMARK    5  A    between atoms: C_30  and  N_31
REMARK                            x       y       z     vdW  Elec       q    Type
REMARK                         _______ _______ _______ _____ _____    ______ ____
ROOT
ATOM      1  O   UNL     1      33.776 -19.297 -22.095  0.00  0.00    -0.442 OA
ATOM      2  O   UNL     1      31.619 -16.129 -20.300  0.00  0.00    -0.270 OA
ATOM      3  O   UNL     1      34.917 -19.905 -23.930  0.00  0.00    -0.247 OA
ATOM      4  N   UNL     1      32.644 -14.578 -21.676  0.00  0.00    -0.249 N 
ATOM      5  N   UNL     1      34.284 -12.171 -23.787  0.00  0.00    -0.405 NA
ATOM      6  C   UNL     1      35.224 -17.632 -23.178  0.00  0.00    +0.196 C 
ATOM      7  C   UNL     1      34.288 -16.578 -22.653  0.00  0.00    +0.017 C 
ATOM      8  C   UNL     1      33.603 -14.274 -22.628  0.00  0.00    +0.084 C 
ATOM      9  C   UNL     1      31.876 -13.375 -21.292  0.00  0.00    +0.128 C 
ATOM     10  C   UNL     1      33.375 -16.897 -21.718  0.00  0.00    +0.074 C 
ATOM     11  C   UNL     1      32.506 -12.317 -22.138  0.00  0.00    +0.029 C 
ATOM     12  C   UNL     1      33.520 -12.850 -22.919  0.00  0.00    +0.142 C 
ATOM     13  C   UNL     1      34.419 -15.207 -23.123  0.00  0.00    +0.016 C 
ATOM     14  C   UNL     1      32.454 -15.845 -21.155  0.00  0.00    +0.252 C 
ATOM     15  C   UNL     1      33.255 -18.289 -21.200  0.00  0.00    +0.239 C 
ATOM     16  C   UNL     1      34.621 -19.031 -23.117  0.00  0.00    +0.346 C 
ATOM     17  C   UNL     1      32.237 -10.973 -22.240  0.00  0.00    +0.002 C 
ATOM     18  C   UNL     1      33.005 -10.209 -23.134  0.00  0.00    +0.022 C 
ATOM     19  C   UNL     1      34.025 -10.851 -23.891  0.00  0.00    +0.113 C 
ATOM     20  C   UNL     1      32.778  -8.832 -23.284  0.00  0.00    -0.008 C 
ATOM     21  C   UNL     1      34.773 -10.074 -24.770  0.00  0.00    +0.088 C 
ATOM     22  C   UNL     1      33.545  -8.082 -24.172  0.00  0.00    +0.124 C 
ATOM     23  C   UNL     1      34.542  -8.704 -24.915  0.00  0.00    +0.018 C 
ENDROOT
BRANCH   6  24
ATOM     24  O   UNL     1      35.471 -17.408 -24.568  0.00  0.00    -0.373 OA
ATOM     25  H   UNL     1      35.587 -18.260 -25.018  0.00  0.00    +0.211 HD
ENDBRANCH   6  24
BRANCH  22  26
ATOM     26  O   UNL     1      33.336  -6.745 -24.329  0.00  0.00    -0.506 OA
ATOM     27  H   UNL     1      34.056  -6.178 -24.523  0.00  0.00    +0.292 HD
ENDBRANCH  22  26
BRANCH   6  28
ATOM     28  C   UNL     1      36.559 -17.625 -22.430  0.00  0.00    +0.042 C 
ATOM     29  C   UNL     1      36.614 -18.730 -21.394  0.00  0.00    +0.003 C 
ENDBRANCH   6  28
BRANCH  20  30
ATOM     30  C   UNL     1      31.713  -8.124 -22.501  0.00  0.00    -0.047 C 
BRANCH  30  31
ATOM     31  N   UNL     1      32.299  -7.173 -21.587  0.00  0.00    +0.387 N 
ATOM     32  C   UNL     1      32.541  -7.780 -20.272  0.00  0.00    -0.100 C 
ATOM     33  C   UNL     1      31.444  -5.988 -21.436  0.00  0.00    -0.100 C 
ATOM     34  H   UNL     1      33.193  -6.883 -21.984  0.00  0.00    -0.079 HD
ENDBRANCH  30  31
ENDBRANCH  20  30
TORSDOF 5
ENDMDL
MODEL 5
REMARK VINA RESULT:      -7.0      2.196      9.507
REMARK  Name = 60700
REMARK  5 active torsions:
REMARK  status: ('A' for Active; 'I' for Inactive)
REMARK    1  A    between atoms: C_6  and  O_24
REMARK    2  A    between atoms: C_6  and  C_28
REMARK    3  A    between atoms: C_20  and  C_30
REMARK    4  A    between atoms: C_22  and  O_26
REMARK    5  A    between atoms: C_30  and  N_31
REMARK                            x       y       z     vdW  Elec       q    Type
REMARK                         _______ _______ _______ _____ _____    ______ ____
ROOT
ATOM      1  O   UNL     1      31.780  -5.987 -20.886  0.00  0.00    -0.442 OA
ATOM      2  O   UNL     1      31.721  -9.841 -19.138  0.00  0.00    -0.270 OA
ATOM      3  O   UNL     1      32.557  -4.792 -22.619  0.00  0.00    -0.247 OA
ATOM      4  N   UNL     1      32.268 -10.826 -21.158  0.00  0.00    -0.249 N 
ATOM      5  N   UNL     1      33.067 -12.348 -24.317  0.00  0.00    -0.405 NA
ATOM      6  C   UNL     1      31.843  -7.047 -23.102  0.00  0.00    +0.196 C 
ATOM      7  C   UNL     1      32.012  -8.362 -22.392  0.00  0.00    +0.017 C 
ATOM      8  C   UNL     1      32.472 -10.717 -22.524  0.00  0.00    +0.084 C 
ATOM      9  C   UNL     1      32.454 -12.218 -20.701  0.00  0.00    +0.128 C 
ATOM     10  C   UNL     1      31.792  -8.442 -21.067  0.00  0.00    +0.074 C 
ATOM     11  C   UNL     1      32.794 -12.924 -21.973  0.00  0.00    +0.029 C 
ATOM     12  C   UNL     1      32.802 -12.039 -23.041  0.00  0.00    +0.142 C 
ATOM     13  C   UNL     1      32.355  -9.549 -23.159  0.00  0.00    +0.016 C 
ATOM     14  C   UNL     1      31.921  -9.760 -20.347  0.00  0.00    +0.252 C 
ATOM     15  C   UNL     1      31.402  -7.241 -20.275  0.00  0.00    +0.239 C 
ATOM     16  C   UNL     1      32.108  -5.854 -22.192  0.00  0.00    +0.346 C 
ATOM     17  C   UNL     1      33.079 -14.246 -22.216  0.00  0.00    +0.002 C 
ATOM     18  C   UNL     1      33.366 -14.631 -23.536  0.00  0.00    +0.022 C 
ATOM     19  C   UNL     1      33.348 -13.644 -24.562  0.00  0.00    +0.113 C 
ATOM     20  C   UNL     1      33.666 -15.966 -23.849  0.00  0.00    -0.008 C 
ATOM     21  C   UNL     1      33.635 -14.049 -25.862  0.00  0.00    +0.088 C 
ATOM     22  C   UNL     1      33.948 -16.338 -25.160  0.00  0.00    +0.124 C 
ATOM     23  C   UNL     1      33.933 -15.380 -26.166  0.00  0.00    +0.018 C 
ENDROOT
BRANCH   6  24
ATOM     24  O   UNL     1      32.821  -6.930 -24.139  0.00  0.00    -0.373 OA
ATOM     25  H   UNL     1      32.375  -6.819 -24.994  0.00  0.00    +0.211 HD
ENDBRANCH   6  24
BRANCH  22  26
ATOM     26  O   UNL     1      34.241 -17.631 -25.479  0.00  0.00    -0.506 OA
ATOM     27  H   UNL     1      35.106 -17.860 -25.757  0.00  0.00    +0.292 HD
ENDBRANCH  22  26
BRANCH   6  28
ATOM     28  C   UNL     1      30.449  -6.912 -23.719  0.00  0.00    +0.042 C 
ATOM     29  C   UNL     1      30.427  -5.852 -24.802  0.00  0.00    +0.003 C 
ENDBRANCH   6  28
BRANCH  20  30
ATOM     30  C   UNL     1      33.692 -17.030 -22.792  0.00  0.00    -0.047 C 
BRANCH  30  31
ATOM     31  N   UNL     1      35.040 -17.245 -22.320  0.00  0.00    +0.387 N 
ATOM     32  C   UNL     1      35.468 -18.630 -22.552  0.00  0.00    -0.100 C 
ATOM     33  C   UNL     1      35.158 -16.923 -20.891  0.00  0.00    -0.100 C 
ATOM     34  H   UNL     1      35.649 -16.620 -22.847  0.00  0.00    -0.079 HD
ENDBRANCH  30  31
ENDBRANCH  20  30
TORSDOF 5
ENDMDL
MODEL 6
REMARK VINA RESULT:      -6.8      6.603     10.009
REMARK  Name = 60700
REMARK  5 active torsions:
REMARK  status: ('A' for Active; 'I' for Inactive)
REMARK    1  A    between atoms: C_6  and  O_24
REMARK    2  A    between atoms: C_6  and  C_28
REMARK    3  A    between atoms: C_20  and  C_30
REMARK    4  A    between atoms: C_22  and  O_26
REMARK    5  A    between atoms: C_30  and  N_31
REMARK                            x       y       z     vdW  Elec       q    Type
REMARK                         _______ _______ _______ _____ _____    ______ ____
ROOT
ATOM      1  O   UNL     1      35.517 -25.440 -13.906  0.00  0.00    -0.442 OA
ATOM      2  O   UNL     1      32.636 -23.998 -16.650  0.00  0.00    -0.270 OA
ATOM      3  O   UNL     1      37.717 -25.728 -13.567  0.00  0.00    -0.247 OA
ATOM      4  N   UNL     1      34.220 -22.687 -17.709  0.00  0.00    -0.249 N 
ATOM      5  N   UNL     1      36.682 -20.613 -19.313  0.00  0.00    -0.405 NA
ATOM      6  C   UNL     1      37.058 -23.688 -14.678  0.00  0.00    +0.196 C 
ATOM      7  C   UNL     1      36.049 -23.370 -15.748  0.00  0.00    +0.017 C 
ATOM      8  C   UNL     1      35.502 -22.166 -17.755  0.00  0.00    +0.084 C 
ATOM      9  C   UNL     1      33.407 -22.201 -18.842  0.00  0.00    +0.128 C 
ATOM     10  C   UNL     1      34.806 -23.878 -15.671  0.00  0.00    +0.074 C 
ATOM     11  C   UNL     1      34.372 -21.321 -19.568  0.00  0.00    +0.029 C 
ATOM     12  C   UNL     1      35.601 -21.303 -18.924  0.00  0.00    +0.142 C 
ATOM     13  C   UNL     1      36.414 -22.465 -16.828  0.00  0.00    +0.016 C 
ATOM     14  C   UNL     1      33.773 -23.539 -16.715  0.00  0.00    +0.252 C 
ATOM     15  C   UNL     1      34.407 -24.775 -14.550  0.00  0.00    +0.239 C 
ATOM     16  C   UNL     1      36.804 -25.040 -14.021  0.00  0.00    +0.346 C 
ATOM     17  C   UNL     1      34.220 -20.573 -20.710  0.00  0.00    +0.002 C 
ATOM     18  C   UNL     1      35.320 -19.829 -21.168  0.00  0.00    +0.022 C 
ATOM     19  C   UNL     1      36.539 -19.877 -20.434  0.00  0.00    +0.113 C 
ATOM     20  C   UNL     1      35.228 -19.046 -22.329  0.00  0.00    -0.008 C 
ATOM     21  C   UNL     1      37.615 -19.131 -20.906  0.00  0.00    +0.088 C 
ATOM     22  C   UNL     1      36.323 -18.311 -22.774  0.00  0.00    +0.124 C 
ATOM     23  C   UNL     1      37.516 -18.354 -22.063  0.00  0.00    +0.018 C 
ENDROOT
BRANCH   6  24
ATOM     24  O   UNL     1      38.357 -23.812 -15.262  0.00  0.00    -0.373 OA
ATOM     25  H   UNL     1      38.632 -22.955 -15.625  0.00  0.00    +0.211 HD
ENDBRANCH   6  24
BRANCH  22  26
ATOM     26  O   UNL     1      36.248 -17.546 -23.900  0.00  0.00    -0.506 OA
ATOM     27  H   UNL     1      35.878 -17.902 -24.684  0.00  0.00    +0.292 HD
ENDBRANCH  22  26
BRANCH   6  28
ATOM     28  C   UNL     1      37.100 -22.603 -13.601  0.00  0.00    +0.042 C 
ATOM     29  C   UNL     1      37.148 -23.208 -12.212  0.00  0.00    +0.003 C 
ENDBRANCH   6  28
BRANCH  20  30
ATOM     30  C   UNL     1      33.958 -18.973 -23.125  0.00  0.00    -0.047 C 
BRANCH  30  31
ATOM     31  N   UNL     1      34.241 -19.006 -24.540  0.00  0.00    +0.387 N 
ATOM     32  C   UNL     1      33.093 -18.531 -25.322  0.00  0.00    -0.100 C 
ATOM     33  C   UNL     1      34.610 -20.360 -24.974  0.00  0.00    -0.100 C 
ATOM     34  H   UNL     1      35.031 -18.383 -24.706  0.00  0.00    -0.079 HD
ENDBRANCH  30  31
ENDBRANCH  20  30
TORSDOF 5
ENDMDL
MODEL 7
REMARK VINA RESULT:      -6.7      6.146     11.594
REMARK  Name = 60700
REMARK  5 active torsions:
REMARK  status: ('A' for Active; 'I' for Inactive)
REMARK    1  A    between atoms: C_6  and  O_24
REMARK    2  A    between atoms: C_6  and  C_28
REMARK    3  A    between atoms: C_20  and  C_30
REMARK    4  A    between atoms: C_22  and  O_26
REMARK    5  A    between atoms: C_30  and  N_31
REMARK                            x       y       z     vdW  Elec       q    Type
REMARK                         _______ _______ _______ _____ _____    ______ ____
ROOT
ATOM      1  O   UNL     1      36.416 -19.173 -22.395  0.00  0.00    -0.442 OA
ATOM      2  O   UNL     1      37.163 -21.588 -19.001  0.00  0.00    -0.270 OA
ATOM      3  O   UNL     1      34.873 -18.631 -23.933  0.00  0.00    -0.247 OA
ATOM      4  N   UNL     1      34.897 -21.821 -18.599  0.00  0.00    -0.249 N 
ATOM      5  N   UNL     1      31.372 -22.131 -17.955  0.00  0.00    -0.405 NA
ATOM      6  C   UNL     1      34.070 -18.986 -21.684  0.00  0.00    +0.196 C 
ATOM      7  C   UNL     1      34.385 -20.000 -20.619  0.00  0.00    +0.017 C 
ATOM      8  C   UNL     1      33.590 -21.469 -18.890  0.00  0.00    +0.084 C 
ATOM      9  C   UNL     1      34.951 -22.801 -17.495  0.00  0.00    +0.128 C 
ATOM     10  C   UNL     1      35.664 -20.312 -20.346  0.00  0.00    +0.074 C 
ATOM     11  C   UNL     1      33.506 -22.985 -17.167  0.00  0.00    +0.029 C 
ATOM     12  C   UNL     1      32.710 -22.200 -17.989  0.00  0.00    +0.142 C 
ATOM     13  C   UNL     1      33.298 -20.593 -19.854  0.00  0.00    +0.016 C 
ATOM     14  C   UNL     1      35.997 -21.300 -19.257  0.00  0.00    +0.252 C 
ATOM     15  C   UNL     1      36.789 -19.685 -21.096  0.00  0.00    +0.239 C 
ATOM     16  C   UNL     1      35.139 -18.930 -22.770  0.00  0.00    +0.346 C 
ATOM     17  C   UNL     1      32.894 -23.774 -16.222  0.00  0.00    +0.002 C 
ATOM     18  C   UNL     1      31.492 -23.744 -16.139  0.00  0.00    +0.022 C 
ATOM     19  C   UNL     1      30.766 -22.902 -17.029  0.00  0.00    +0.113 C 
ATOM     20  C   UNL     1      30.808 -24.526 -15.196  0.00  0.00    -0.008 C 
ATOM     21  C   UNL     1      29.378 -22.888 -16.929  0.00  0.00    +0.088 C 
ATOM     22  C   UNL     1      29.419 -24.489 -15.121  0.00  0.00    +0.124 C 
ATOM     23  C   UNL     1      28.704 -23.670 -15.987  0.00  0.00    +0.018 C 
ENDROOT
BRANCH   6  24
ATOM     24  O   UNL     1      32.877 -19.365 -22.375  0.00  0.00    -0.373 OA
ATOM     25  H   UNL     1      33.099 -19.989 -23.085  0.00  0.00    +0.211 HD
ENDBRANCH   6  24
BRANCH  22  26
ATOM     26  O   UNL     1      28.742 -25.244 -14.211  0.00  0.00    -0.506 OA
ATOM     27  H   UNL     1      28.069 -25.830 -14.496  0.00  0.00    +0.292 HD
ENDBRANCH  22  26
BRANCH   6  28
ATOM     28  C   UNL     1      33.877 -17.588 -21.093  0.00  0.00    +0.042 C 
ATOM     29  C   UNL     1      34.853 -16.597 -21.695  0.00  0.00    +0.003 C 
ENDBRANCH   6  28
BRANCH  20  30
ATOM     30  C   UNL     1      31.543 -25.422 -14.244  0.00  0.00    -0.047 C 
BRANCH  30  31
ATOM     31  N   UNL     1      31.986 -24.681 -13.087  0.00  0.00    +0.387 N 
ATOM     32  C   UNL     1      31.317 -23.377 -13.003  0.00  0.00    -0.100 C 
ATOM     33  C   UNL     1      33.443 -24.490 -13.107  0.00  0.00    -0.100 C 
ATOM     34  H   UNL     1      31.740 -25.230 -12.263  0.00  0.00    -0.079 HD
ENDBRANCH  30  31
ENDBRANCH  20  30
TORSDOF 5
ENDMDL
MODEL 8
REMARK VINA RESULT:      -6.5      6.360     10.708
REMARK  Name = 60700
REMARK  5 active torsions:
REMARK  status: ('A' for Active; 'I' for Inactive)
REMARK    1  A    between atoms: C_6  and  O_24
REMARK    2  A    between atoms: C_6  and  C_28
REMARK    3  A    between atoms: C_20  and  C_30
REMARK    4  A    between atoms: C_22  and  O_26
REMARK    5  A    between atoms: C_30  and  N_31
REMARK                            x       y       z     vdW  Elec       q    Type
REMARK                         _______ _______ _______ _____ _____    ______ ____
ROOT
ATOM      1  O   UNL     1      36.066 -25.669 -12.813  0.00  0.00    -0.442 OA
ATOM      2  O   UNL     1      32.975 -24.287 -15.352  0.00  0.00    -0.270 OA
ATOM      3  O   UNL     1      38.281 -26.002 -12.666  0.00  0.00    -0.247 OA
ATOM      4  N   UNL     1      34.483 -23.080 -16.623  0.00  0.00    -0.249 N 
ATOM      5  N   UNL     1      36.832 -21.164 -18.560  0.00  0.00    -0.405 NA
ATOM      6  C   UNL     1      37.570 -24.005 -13.820  0.00  0.00    +0.196 C 
ATOM      7  C   UNL     1      36.472 -23.713 -14.807  0.00  0.00    +0.017 C 
ATOM      8  C   UNL     1      35.767 -22.599 -16.817  0.00  0.00    +0.084 C 
ATOM      9  C   UNL     1      33.578 -22.629 -17.701  0.00  0.00    +0.128 C 
ATOM     10  C   UNL     1      35.230 -24.180 -14.586  0.00  0.00    +0.074 C 
ATOM     11  C   UNL     1      34.492 -21.817 -18.559  0.00  0.00    +0.029 C 
ATOM     12  C   UNL     1      35.776 -21.801 -18.035  0.00  0.00    +0.142 C 
ATOM     13  C   UNL     1      36.756 -22.877 -15.963  0.00  0.00    +0.016 C 
ATOM     14  C   UNL     1      34.112 -23.866 -15.547  0.00  0.00    +0.252 C 
ATOM     15  C   UNL     1      34.918 -25.006 -13.386  0.00  0.00    +0.239 C 
ATOM     16  C   UNL     1      37.347 -25.313 -13.069  0.00  0.00    +0.346 C 
ATOM     17  C   UNL     1      34.250 -21.125 -19.722  0.00  0.00    +0.002 C 
ATOM     18  C   UNL     1      35.320 -20.438 -20.320  0.00  0.00    +0.022 C 
ATOM     19  C   UNL     1      36.601 -20.483 -19.701  0.00  0.00    +0.113 C 
ATOM     20  C   UNL     1      35.137 -19.713 -21.508  0.00  0.00    -0.008 C 
ATOM     21  C   UNL     1      37.645 -19.795 -20.311  0.00  0.00    +0.088 C 
ATOM     22  C   UNL     1      36.203 -19.035 -22.092  0.00  0.00    +0.124 C 
ATOM     23  C   UNL     1      37.457 -19.076 -21.494  0.00  0.00    +0.018 C 
ENDROOT
BRANCH   6  24
ATOM     24  O   UNL     1      38.805 -24.197 -14.515  0.00  0.00    -0.373 OA
ATOM     25  H   UNL     1      38.730 -23.835 -15.413  0.00  0.00    +0.211 HD
ENDBRANCH   6  24
BRANCH  22  26
ATOM     26  O   UNL     1      36.041 -18.328 -23.246  0.00  0.00    -0.506 OA
ATOM     27  H   UNL     1      35.182 -18.085 -23.529  0.00  0.00    +0.292 HD
ENDBRANCH  22  26
BRANCH   6  28
ATOM     28  C   UNL     1      37.740 -22.867 -12.812  0.00  0.00    +0.042 C 
ATOM     29  C   UNL     1      37.049 -23.185 -11.501  0.00  0.00    +0.003 C 
ENDBRANCH   6  28
BRANCH  20  30
ATOM     30  C   UNL     1      33.800 -19.645 -22.184  0.00  0.00    -0.047 C 
BRANCH  30  31
ATOM     31  N   UNL     1      33.034 -18.528 -21.684  0.00  0.00    +0.387 N 
ATOM     32  C   UNL     1      33.911 -17.485 -21.137  0.00  0.00    -0.100 C 
ATOM     33  C   UNL     1      32.077 -18.960 -20.657  0.00  0.00    -0.100 C 
ATOM     34  H   UNL     1      32.515 -18.140 -22.472  0.00  0.00    -0.079 HD
ENDBRANCH  30  31
ENDBRANCH  20  30
TORSDOF 5
ENDMDL
