MODEL 1
REMARK VINA RESULT:      -9.8      0.000      0.000
REMARK  Name = 3948
REMARK  4 active torsions:
REMARK  status: ('A' for Active; 'I' for Inactive)
REMARK    1  A    between atoms: N_4  and  C_27
REMARK    2  A    between atoms: C_5  and  N_14
REMARK    3  A    between atoms: C_13  and  C_24
REMARK    4  A    between atoms: C_24  and  O_25
REMARK                            x       y       z     vdW  Elec       q    Type
REMARK                         _______ _______ _______ _____ _____    ______ ____
ROOT
ATOM      1  F   UNL     1      34.755 -16.856 -20.519  0.00  0.00    -0.201 F 
ATOM      2  F   UNL     1      35.123 -20.117 -23.902  0.00  0.00    -0.203 F 
ATOM      3  O   UNL     1      33.931 -15.909 -26.375  0.00  0.00    -0.286 OA
ATOM      4  N   UNL     1      34.102 -14.820 -22.448  0.00  0.00    -0.284 N 
ATOM      5  C   UNL     1      34.938 -18.476 -22.199  0.00  0.00    +0.105 C 
ATOM      6  C   UNL     1      34.684 -17.152 -21.826  0.00  0.00    +0.169 C 
ATOM      7  C   UNL     1      34.366 -16.169 -22.781  0.00  0.00    +0.084 C 
ATOM      8  C   UNL     1      34.881 -18.850 -23.537  0.00  0.00    +0.156 C 
ATOM      9  C   UNL     1      34.314 -16.578 -24.134  0.00  0.00    +0.057 C 
ATOM     10  C   UNL     1      34.569 -17.904 -24.508  0.00  0.00    +0.035 C 
ATOM     11  C   UNL     1      33.982 -15.588 -25.194  0.00  0.00    +0.204 C 
ATOM     12  C   UNL     1      33.793 -13.921 -23.453  0.00  0.00    +0.075 C 
ATOM     13  C   UNL     1      33.717 -14.195 -24.760  0.00  0.00    +0.129 C 
ENDROOT
BRANCH   5  14
ATOM     14  N   UNL     1      35.251 -19.428 -21.224  0.00  0.00    -0.308 N 
ATOM     15  N   UNL     1      35.880 -21.537 -19.409  0.00  0.00    +0.387 N 
ATOM     16  C   UNL     1      34.502 -21.048 -19.516  0.00  0.00    -0.042 C 
ATOM     17  C   UNL     1      34.243 -20.451 -20.908  0.00  0.00    +0.070 C 
ATOM     18  C   UNL     1      36.647 -19.828 -21.019  0.00  0.00    +0.068 C 
ATOM     19  C   UNL     1      36.827 -20.447 -19.634  0.00  0.00    -0.060 C 
ATOM     20  C   UNL     1      33.538 -22.199 -19.237  0.00  0.00    -0.022 C 
ATOM     21  H   UNL     1      36.033 -22.264 -20.108  0.00  0.00    -0.084 HD
ATOM     22  H   UNL     1      36.025 -21.915 -18.473  0.00  0.00    -0.084 HD
ENDBRANCH   5  14
BRANCH  13  24
ATOM     23  O   UNL     1      33.769 -11.962 -25.574  0.00  0.00    -0.245 OA
ATOM     24  C   UNL     1      33.377 -13.111 -25.682  0.00  0.00    +0.342 C 
BRANCH  24  25
ATOM     25  O   UNL     1      32.570 -13.580 -26.657  0.00  0.00    -0.477 OA
ATOM     26  H   UNL     1      31.907 -13.027 -27.023  0.00  0.00    +0.295 HD
ENDBRANCH  24  25
ENDBRANCH  13  24
BRANCH   4  27
ATOM     27  C   UNL     1      34.154 -14.390 -21.052  0.00  0.00    +0.096 C 
ATOM     28  C   UNL     1      32.765 -14.164 -20.489  0.00  0.00    +0.024 C 
ENDBRANCH   4  27
TORSDOF 4
ENDMDL
MODEL 2
REMARK VINA RESULT:      -9.4      4.700      7.297
REMARK  Name = 3948
REMARK  4 active torsions:
REMARK  status: ('A' for Active; 'I' for Inactive)
REMARK    1  A    between atoms: N_4  and  C_27
REMARK    2  A    between atoms: C_5  and  N_14
REMARK    3  A    between atoms: C_13  and  C_24
REMARK    4  A    between atoms: C_24  and  O_25
REMARK                            x       y       z     vdW  Elec       q    Type
REMARK                         _______ _______ _______ _____ _____    ______ ____
ROOT
ATOM      1  F   UNL     1      32.143 -12.706 -22.256  0.00  0.00    -0.201 F 
ATOM      2  F   UNL     1      35.024 -11.460 -25.772  0.00  0.00    -0.203 F 
ATOM      3  O   UNL     1      33.729  -7.099 -23.638  0.00  0.00    -0.286 OA
ATOM      4  N   UNL     1      31.777  -9.957 -21.481  0.00  0.00    -0.284 N 
ATOM      5  C   UNL     1      33.574 -12.087 -24.003  0.00  0.00    +0.105 C 
ATOM      6  C   UNL     1      32.759 -11.720 -22.926  0.00  0.00    +0.169 C 
ATOM      7  C   UNL     1      32.590 -10.372 -22.560  0.00  0.00    +0.084 C 
ATOM      8  C   UNL     1      34.242 -11.115 -24.739  0.00  0.00    +0.156 C 
ATOM      9  C   UNL     1      33.280  -9.405 -23.328  0.00  0.00    +0.057 C 
ATOM     10  C   UNL     1      34.097  -9.772 -24.406  0.00  0.00    +0.035 C 
ATOM     11  C   UNL     1      33.144  -7.962 -22.995  0.00  0.00    +0.204 C 
ATOM     12  C   UNL     1      31.666  -8.608 -21.195  0.00  0.00    +0.075 C 
ATOM     13  C   UNL     1      32.270  -7.611 -21.849  0.00  0.00    +0.129 C 
ENDROOT
BRANCH   5  14
ATOM     14  N   UNL     1      33.719 -13.437 -24.339  0.00  0.00    -0.308 N 
ATOM     15  N   UNL     1      33.841 -16.237 -24.867  0.00  0.00    +0.387 N 
ATOM     16  C   UNL     1      34.803 -15.621 -23.947  0.00  0.00    -0.042 C 
ATOM     17  C   UNL     1      34.209 -14.359 -23.305  0.00  0.00    +0.070 C 
ATOM     18  C   UNL     1      32.846 -14.031 -25.357  0.00  0.00    +0.068 C 
ATOM     19  C   UNL     1      33.477 -15.300 -25.927  0.00  0.00    -0.060 C 
ATOM     20  C   UNL     1      35.194 -16.637 -22.876  0.00  0.00    -0.022 C 
ATOM     21  H   UNL     1      33.003 -16.501 -24.349  0.00  0.00    -0.084 HD
ATOM     22  H   UNL     1      34.267 -17.064 -25.287  0.00  0.00    -0.084 HD
ENDBRANCH   5  14
BRANCH  13  24
ATOM     23  O   UNL     1      31.467  -5.384 -22.060  0.00  0.00    -0.245 OA
ATOM     24  C   UNL     1      32.035  -6.238 -21.401  0.00  0.00    +0.342 C 
BRANCH  24  25
ATOM     25  O   UNL     1      32.541  -6.071 -20.161  0.00  0.00    -0.477 OA
ATOM     26  H   UNL     1      32.863  -6.810 -19.683  0.00  0.00    +0.295 HD
ENDBRANCH  24  25
ENDBRANCH  13  24
BRANCH   4  27
ATOM     27  C   UNL     1      31.061 -10.951 -20.683  0.00  0.00    +0.096 C 
ATOM     28  C   UNL     1      31.348 -10.786 -19.204  0.00  0.00    +0.024 C 
ENDBRANCH   4  27
TORSDOF 4
ENDMDL
MODEL 3
REMARK VINA RESULT:      -9.2      3.494      5.492
REMARK  Name = 3948
REMARK  4 active torsions:
REMARK  status: ('A' for Active; 'I' for Inactive)
REMARK    1  A    between atoms: N_4  and  C_27
REMARK    2  A    between atoms: C_5  and  N_14
REMARK    3  A    between atoms: C_13  and  C_24
REMARK    4  A    between atoms: C_24  and  O_25
REMARK                            x       y       z     vdW  Elec       q    Type
REMARK                         _______ _______ _______ _____ _____    ______ ____
ROOT
ATOM      1  F   UNL     1      34.525 -13.866 -24.175  0.00  0.00    -0.201 F 
ATOM      2  F   UNL     1      32.333 -15.214 -20.226  0.00  0.00    -0.203 F 
ATOM      3  O   UNL     1      30.893 -10.443 -20.866  0.00  0.00    -0.286 OA
ATOM      4  N   UNL     1      33.370 -11.234 -24.007  0.00  0.00    -0.284 N 
ATOM      5  C   UNL     1      33.437 -14.536 -22.213  0.00  0.00    +0.105 C 
ATOM      6  C   UNL     1      33.702 -13.546 -23.165  0.00  0.00    +0.169 C 
ATOM      7  C   UNL     1      33.130 -12.264 -23.068  0.00  0.00    +0.084 C 
ATOM      8  C   UNL     1      32.592 -14.270 -21.142  0.00  0.00    +0.156 C 
ATOM      9  C   UNL     1      32.275 -12.021 -21.968  0.00  0.00    +0.057 C 
ATOM     10  C   UNL     1      32.009 -13.013 -21.014  0.00  0.00    +0.035 C 
ATOM     11  C   UNL     1      31.639 -10.687 -21.806  0.00  0.00    +0.204 C 
ATOM     12  C   UNL     1      32.768 -10.002 -23.831  0.00  0.00    +0.075 C 
ATOM     13  C   UNL     1      31.945  -9.661 -22.833  0.00  0.00    +0.129 C 
ENDROOT
BRANCH   5  14
ATOM     14  N   UNL     1      34.023 -15.800 -22.339  0.00  0.00    -0.308 N 
ATOM     15  N   UNL     1      35.401 -18.269 -22.710  0.00  0.00    +0.387 N 
ATOM     16  C   UNL     1      34.327 -17.883 -23.631  0.00  0.00    -0.042 C 
ATOM     17  C   UNL     1      34.186 -16.354 -23.690  0.00  0.00    +0.070 C 
ATOM     18  C   UNL     1      35.003 -16.250 -21.345  0.00  0.00    +0.068 C 
ATOM     19  C   UNL     1      35.122 -17.772 -21.364  0.00  0.00    -0.060 C 
ATOM     20  C   UNL     1      34.626 -18.450 -25.017  0.00  0.00    -0.022 C 
ATOM     21  H   UNL     1      36.283 -17.875 -23.038  0.00  0.00    -0.084 HD
ATOM     22  H   UNL     1      35.462 -19.287 -22.681  0.00  0.00    -0.084 HD
ENDBRANCH   5  14
BRANCH  13  24
ATOM     23  O   UNL     1      30.755  -7.803 -23.716  0.00  0.00    -0.245 OA
ATOM     24  C   UNL     1      31.398  -8.304 -22.810  0.00  0.00    +0.342 C 
BRANCH  24  25
ATOM     25  O   UNL     1      31.717  -7.705 -21.644  0.00  0.00    -0.477 OA
ATOM     26  H   UNL     1      32.245  -8.156 -21.014  0.00  0.00    +0.295 HD
ENDBRANCH  24  25
ENDBRANCH  13  24
BRANCH   4  27
ATOM     27  C   UNL     1      34.252 -11.478 -25.147  0.00  0.00    +0.096 C 
ATOM     28  C   UNL     1      35.224 -10.334 -25.351  0.00  0.00    +0.024 C 
ENDBRANCH   4  27
TORSDOF 4
ENDMDL
MODEL 4
REMARK VINA RESULT:      -9.1      4.657      7.308
REMARK  Name = 3948
REMARK  4 active torsions:
REMARK  status: ('A' for Active; 'I' for Inactive)
REMARK    1  A    between atoms: N_4  and  C_27
REMARK    2  A    between atoms: C_5  and  N_14
REMARK    3  A    between atoms: C_13  and  C_24
REMARK    4  A    between atoms: C_24  and  O_25
REMARK                            x       y       z     vdW  Elec       q    Type
REMARK                         _______ _______ _______ _____ _____    ______ ____
ROOT
ATOM      1  F   UNL     1      34.159 -11.488 -24.766  0.00  0.00    -0.201 F 
ATOM      2  F   UNL     1      31.770 -14.269 -21.804  0.00  0.00    -0.203 F 
ATOM      3  O   UNL     1      31.296  -9.673 -19.829  0.00  0.00    -0.286 OA
ATOM      4  N   UNL     1      33.548  -9.157 -23.190  0.00  0.00    -0.284 N 
ATOM      5  C   UNL     1      32.972 -12.870 -23.294  0.00  0.00    +0.105 C 
ATOM      6  C   UNL     1      33.421 -11.593 -23.649  0.00  0.00    +0.169 C 
ATOM      7  C   UNL     1      33.115 -10.464 -22.869  0.00  0.00    +0.084 C 
ATOM      8  C   UNL     1      32.203 -13.049 -22.150  0.00  0.00    +0.156 C 
ATOM      9  C   UNL     1      32.332 -10.676 -21.710  0.00  0.00    +0.057 C 
ATOM     10  C   UNL     1      31.882 -11.954 -21.354  0.00  0.00    +0.035 C 
ATOM     11  C   UNL     1      31.973  -9.525 -20.839  0.00  0.00    +0.204 C 
ATOM     12  C   UNL     1      33.202  -8.105 -22.362  0.00  0.00    +0.075 C 
ATOM     13  C   UNL     1      32.469  -8.187 -21.246  0.00  0.00    +0.129 C 
ENDROOT
BRANCH   5  14
ATOM     14  N   UNL     1      33.296 -13.971 -24.093  0.00  0.00    -0.308 N 
ATOM     15  N   UNL     1      33.779 -16.337 -25.611  0.00  0.00    +0.387 N 
ATOM     16  C   UNL     1      34.599 -16.042 -24.432  0.00  0.00    -0.042 C 
ATOM     17  C   UNL     1      33.820 -15.175 -23.432  0.00  0.00    +0.070 C 
ATOM     18  C   UNL     1      32.568 -14.201 -25.345  0.00  0.00    +0.068 C 
ATOM     19  C   UNL     1      33.379 -15.099 -26.278  0.00  0.00    -0.060 C 
ATOM     20  C   UNL     1      35.034 -17.354 -23.782  0.00  0.00    -0.022 C 
ATOM     21  H   UNL     1      32.945 -16.847 -25.321  0.00  0.00    -0.084 HD
ATOM     22  H   UNL     1      34.325 -16.902 -26.262  0.00  0.00    -0.084 HD
ENDBRANCH   5  14
BRANCH  13  24
ATOM     23  O   UNL     1      31.451  -6.074 -20.862  0.00  0.00    -0.245 OA
ATOM     24  C   UNL     1      32.201  -6.961 -20.494  0.00  0.00    +0.342 C 
BRANCH  24  25
ATOM     25  O   UNL     1      32.909  -6.969 -19.345  0.00  0.00    -0.477 OA
ATOM     26  H   UNL     1      32.654  -7.534 -18.642  0.00  0.00    +0.295 HD
ENDBRANCH  24  25
ENDBRANCH  13  24
BRANCH   4  27
ATOM     27  C   UNL     1      34.357  -8.931 -24.387  0.00  0.00    +0.096 C 
ATOM     28  C   UNL     1      34.700  -7.465 -24.555  0.00  0.00    +0.024 C 
ENDBRANCH   4  27
TORSDOF 4
ENDMDL
MODEL 5
REMARK VINA RESULT:      -9.1      3.378      5.473
REMARK  Name = 3948
REMARK  4 active torsions:
REMARK  status: ('A' for Active; 'I' for Inactive)
REMARK    1  A    between atoms: N_4  and  C_27
REMARK    2  A    between atoms: C_5  and  N_14
REMARK    3  A    between atoms: C_13  and  C_24
REMARK    4  A    between atoms: C_24  and  O_25
REMARK                            x       y       z     vdW  Elec       q    Type
REMARK                         _______ _______ _______ _____ _____    ______ ____
ROOT
ATOM      1  F   UNL     1      34.634 -13.658 -24.662  0.00  0.00    -0.201 F 
ATOM      2  F   UNL     1      32.407 -15.537 -20.958  0.00  0.00    -0.203 F 
ATOM      3  O   UNL     1      30.934 -10.733 -20.972  0.00  0.00    -0.286 OA
ATOM      4  N   UNL     1      33.455 -11.080 -24.159  0.00  0.00    -0.284 N 
ATOM      5  C   UNL     1      33.528 -14.592 -22.822  0.00  0.00    +0.105 C 
ATOM      6  C   UNL     1      33.796 -13.481 -23.629  0.00  0.00    +0.169 C 
ATOM      7  C   UNL     1      33.212 -12.228 -23.370  0.00  0.00    +0.084 C 
ATOM      8  C   UNL     1      32.668 -14.477 -21.736  0.00  0.00    +0.156 C 
ATOM      9  C   UNL     1      32.343 -12.140 -22.258  0.00  0.00    +0.057 C 
ATOM     10  C   UNL     1      32.073 -13.252 -21.449  0.00  0.00    +0.035 C 
ATOM     11  C   UNL     1      31.693 -10.843 -21.927  0.00  0.00    +0.204 C 
ATOM     12  C   UNL     1      32.840  -9.886 -23.828  0.00  0.00    +0.075 C 
ATOM     13  C   UNL     1      32.003  -9.687 -22.804  0.00  0.00    +0.129 C 
ENDROOT
BRANCH   5  14
ATOM     14  N   UNL     1      34.126 -15.823 -23.108  0.00  0.00    -0.308 N 
ATOM     15  N   UNL     1      35.150 -18.440 -23.595  0.00  0.00    +0.387 N 
ATOM     16  C   UNL     1      35.590 -17.687 -22.416  0.00  0.00    -0.042 C 
ATOM     17  C   UNL     1      34.514 -16.682 -21.980  0.00  0.00    +0.070 C 
ATOM     18  C   UNL     1      33.791 -16.523 -24.353  0.00  0.00    +0.068 C 
ATOM     19  C   UNL     1      34.881 -17.532 -24.708  0.00  0.00    -0.060 C 
ATOM     20  C   UNL     1      35.903 -18.665 -21.284  0.00  0.00    -0.022 C 
ATOM     21  H   UNL     1      34.300 -18.954 -23.367  0.00  0.00    -0.084 HD
ATOM     22  H   UNL     1      35.889 -19.089 -23.868  0.00  0.00    -0.084 HD
ENDBRANCH   5  14
BRANCH  13  24
ATOM     23  O   UNL     1      30.795  -7.742 -23.440  0.00  0.00    -0.245 OA
ATOM     24  C   UNL     1      31.445  -8.349 -22.607  0.00  0.00    +0.342 C 
BRANCH  24  25
ATOM     25  O   UNL     1      31.760  -7.902 -21.374  0.00  0.00    -0.477 OA
ATOM     26  H   UNL     1      32.173  -7.066 -21.270  0.00  0.00    +0.295 HD
ENDBRANCH  24  25
ENDBRANCH  13  24
BRANCH   4  27
ATOM     27  C   UNL     1      34.353 -11.163 -25.310  0.00  0.00    +0.096 C 
ATOM     28  C   UNL     1      35.384 -10.054 -25.291  0.00  0.00    +0.024 C 
ENDBRANCH   4  27
TORSDOF 4
ENDMDL
MODEL 6
REMARK VINA RESULT:      -8.9      5.997      8.811
REMARK  Name = 3948
REMARK  4 active torsions:
REMARK  status: ('A' for Active; 'I' for Inactive)
REMARK    1  A    between atoms: N_4  and  C_27
REMARK    2  A    between atoms: C_5  and  N_14
REMARK    3  A    between atoms: C_13  and  C_24
REMARK    4  A    between atoms: C_24  and  O_25
REMARK                            x       y       z     vdW  Elec       q    Type
REMARK                         _______ _______ _______ _____ _____    ______ ____
ROOT
ATOM      1  F   UNL     1      34.097 -24.265 -15.478  0.00  0.00    -0.201 F 
ATOM      2  F   UNL     1      38.546 -22.743 -15.794  0.00  0.00    -0.203 F 
ATOM      3  O   UNL     1      36.205 -20.508 -19.638  0.00  0.00    -0.286 OA
ATOM      4  N   UNL     1      33.329 -22.733 -17.792  0.00  0.00    -0.284 N 
ATOM      5  C   UNL     1      36.307 -23.509 -15.635  0.00  0.00    +0.105 C 
ATOM      6  C   UNL     1      34.998 -23.512 -16.128  0.00  0.00    +0.169 C 
ATOM      7  C   UNL     1      34.639 -22.759 -17.260  0.00  0.00    +0.084 C 
ATOM      8  C   UNL     1      37.290 -22.751 -16.262  0.00  0.00    +0.156 C 
ATOM      9  C   UNL     1      35.659 -21.998 -17.877  0.00  0.00    +0.057 C 
ATOM     10  C   UNL     1      36.970 -21.994 -17.384  0.00  0.00    +0.035 C 
ATOM     11  C   UNL     1      35.346 -21.179 -19.079  0.00  0.00    +0.204 C 
ATOM     12  C   UNL     1      33.066 -21.966 -18.912  0.00  0.00    +0.075 C 
ATOM     13  C   UNL     1      33.948 -21.210 -19.575  0.00  0.00    +0.129 C 
ENDROOT
BRANCH   5  14
ATOM     14  N   UNL     1      36.630 -24.271 -14.507  0.00  0.00    -0.308 N 
ATOM     15  N   UNL     1      37.063 -25.908 -12.212  0.00  0.00    +0.387 N 
ATOM     16  C   UNL     1      36.752 -24.484 -12.050  0.00  0.00    -0.042 C 
ATOM     17  C   UNL     1      35.940 -23.965 -13.246  0.00  0.00    +0.070 C 
ATOM     18  C   UNL     1      37.071 -25.661 -14.669  0.00  0.00    +0.068 C 
ATOM     19  C   UNL     1      37.837 -26.125 -13.432  0.00  0.00    -0.060 C 
ATOM     20  C   UNL     1      35.979 -24.284 -10.747  0.00  0.00    -0.022 C 
ATOM     21  H   UNL     1      36.193 -26.437 -12.268  0.00  0.00    -0.084 HD
ATOM     22  H   UNL     1      37.612 -26.220 -11.411  0.00  0.00    -0.084 HD
ENDBRANCH   5  14
BRANCH  13  24
ATOM     23  O   UNL     1      32.319 -20.215 -20.992  0.00  0.00    -0.245 OA
ATOM     24  C   UNL     1      33.487 -20.461 -20.745  0.00  0.00    +0.342 C 
BRANCH  24  25
ATOM     25  O   UNL     1      34.547 -20.093 -21.495  0.00  0.00    -0.477 OA
ATOM     26  H   UNL     1      35.312 -19.741 -21.084  0.00  0.00    +0.295 HD
ENDBRANCH  24  25
ENDBRANCH  13  24
BRANCH   4  27
ATOM     27  C   UNL     1      32.269 -23.517 -17.159  0.00  0.00    +0.096 C 
ATOM     28  C   UNL     1      31.169 -22.627 -16.618  0.00  0.00    +0.024 C 
ENDBRANCH   4  27
TORSDOF 4
ENDMDL
MODEL 7
REMARK VINA RESULT:      -8.9      8.054     11.094
REMARK  Name = 3948
REMARK  4 active torsions:
REMARK  status: ('A' for Active; 'I' for Inactive)
REMARK    1  A    between atoms: N_4  and  C_27
REMARK    2  A    between atoms: C_5  and  N_14
REMARK    3  A    between atoms: C_13  and  C_24
REMARK    4  A    between atoms: C_24  and  O_25
REMARK                            x       y       z     vdW  Elec       q    Type
REMARK                         _______ _______ _______ _____ _____    ______ ____
ROOT
ATOM      1  F   UNL     1      35.843 -23.438 -16.056  0.00  0.00    -0.201 F 
ATOM      2  F   UNL     1      34.637 -24.898 -11.740  0.00  0.00    -0.203 F 
ATOM      3  O   UNL     1      30.244 -23.976 -13.999  0.00  0.00    -0.286 OA
ATOM      4  N   UNL     1      33.081 -23.096 -16.794  0.00  0.00    -0.284 N 
ATOM      5  C   UNL     1      35.244 -24.163 -13.912  0.00  0.00    +0.105 C 
ATOM      6  C   UNL     1      34.864 -23.712 -15.180  0.00  0.00    +0.169 C 
ATOM      7  C   UNL     1      33.510 -23.549 -15.525  0.00  0.00    +0.084 C 
ATOM      8  C   UNL     1      34.279 -24.465 -12.957  0.00  0.00    +0.156 C 
ATOM      9  C   UNL     1      32.551 -23.863 -14.534  0.00  0.00    +0.057 C 
ATOM     10  C   UNL     1      32.931 -24.315 -13.264  0.00  0.00    +0.035 C 
ATOM     11  C   UNL     1      31.101 -23.712 -14.834  0.00  0.00    +0.204 C 
ATOM     12  C   UNL     1      31.728 -22.962 -17.045  0.00  0.00    +0.075 C 
ATOM     13  C   UNL     1      30.736 -23.228 -16.188  0.00  0.00    +0.129 C 
ENDROOT
BRANCH   5  14
ATOM     14  N   UNL     1      36.600 -24.313 -13.602  0.00  0.00    -0.308 N 
ATOM     15  N   UNL     1      39.412 -24.469 -13.153  0.00  0.00    +0.387 N 
ATOM     16  C   UNL     1      38.730 -25.523 -13.911  0.00  0.00    -0.042 C 
ATOM     17  C   UNL     1      37.466 -24.974 -14.588  0.00  0.00    +0.070 C 
ATOM     18  C   UNL     1      37.260 -23.332 -12.734  0.00  0.00    +0.068 C 
ATOM     19  C   UNL     1      38.527 -23.928 -12.123  0.00  0.00    -0.060 C 
ATOM     20  C   UNL     1      39.692 -26.096 -14.950  0.00  0.00    -0.022 C 
ATOM     21  H   UNL     1      39.684 -23.721 -13.790  0.00  0.00    -0.084 HD
ATOM     22  H   UNL     1      40.239 -24.866 -12.705  0.00  0.00    -0.084 HD
ENDBRANCH   5  14
BRANCH  13  24
ATOM     23  O   UNL     1      28.897 -21.961 -17.001  0.00  0.00    -0.245 OA
ATOM     24  C   UNL     1      29.356 -23.028 -16.631  0.00  0.00    +0.342 C 
BRANCH  24  25
ATOM     25  O   UNL     1      28.683 -24.196 -16.565  0.00  0.00    -0.477 OA
ATOM     26  H   UNL     1      28.225 -24.429 -15.781  0.00  0.00    +0.295 HD
ENDBRANCH  24  25
ENDBRANCH  13  24
BRANCH   4  27
ATOM     27  C   UNL     1      34.067 -22.770 -17.823  0.00  0.00    +0.096 C 
ATOM     28  C   UNL     1      33.433 -22.033 -18.985  0.00  0.00    +0.024 C 
ENDBRANCH   4  27
TORSDOF 4
ENDMDL
MODEL 8
REMARK VINA RESULT:      -8.7      5.653      9.413
REMARK  Name = 3948
REMARK  4 active torsions:
REMARK  status: ('A' for Active; 'I' for Inactive)
REMARK    1  A    between atoms: N_4  and  C_27
REMARK    2  A    between atoms: C_5  and  N_14
REMARK    3  A    between atoms: C_13  and  C_24
REMARK    4  A    between atoms: C_24  and  O_25
REMARK                            x       y       z     vdW  Elec       q    Type
REMARK                         _______ _______ _______ _____ _____    ______ ____
ROOT
ATOM      1  F   UNL     1      33.752  -8.961 -23.834  0.00  0.00    -0.201 F 
ATOM      2  F   UNL     1      30.887 -10.329 -20.351  0.00  0.00    -0.203 F 
ATOM      3  O   UNL     1      32.083 -14.601 -22.709  0.00  0.00    -0.286 OA
ATOM      4  N   UNL     1      34.063 -11.675 -24.745  0.00  0.00    -0.284 N 
ATOM      5  C   UNL     1      32.329  -9.640 -22.104  0.00  0.00    +0.105 C 
ATOM      6  C   UNL     1      33.127  -9.968 -23.205  0.00  0.00    +0.169 C 
ATOM      7  C   UNL     1      33.268 -11.299 -23.638  0.00  0.00    +0.084 C 
ATOM      8  C   UNL     1      31.653 -10.636 -21.407  0.00  0.00    +0.156 C 
ATOM      9  C   UNL     1      32.569 -12.290 -22.911  0.00  0.00    +0.057 C 
ATOM     10  C   UNL     1      31.770 -11.963 -21.808  0.00  0.00    +0.035 C 
ATOM     11  C   UNL     1      32.674 -13.717 -23.317  0.00  0.00    +0.204 C 
ATOM     12  C   UNL     1      34.142 -13.008 -25.103  0.00  0.00    +0.075 C 
ATOM     13  C   UNL     1      33.527 -14.026 -24.492  0.00  0.00    +0.129 C 
ENDROOT
BRANCH   5  14
ATOM     14  N   UNL     1      32.210  -8.306 -21.700  0.00  0.00    -0.308 N 
ATOM     15  N   UNL     1      31.732  -5.628 -20.843  0.00  0.00    +0.387 N 
ATOM     16  C   UNL     1      31.798  -5.940 -22.275  0.00  0.00    -0.042 C 
ATOM     17  C   UNL     1      31.403  -7.402 -22.531  0.00  0.00    +0.070 C 
ATOM     18  C   UNL     1      32.275  -7.969 -20.274  0.00  0.00    +0.068 C 
ATOM     19  C   UNL     1      32.635  -6.496 -20.090  0.00  0.00    -0.060 C 
ATOM     20  C   UNL     1      30.876  -4.991 -23.038  0.00  0.00    -0.022 C 
ATOM     21  H   UNL     1      30.777  -5.769 -20.513  0.00  0.00    -0.084 HD
ATOM     22  H   UNL     1      32.011  -4.657 -20.703  0.00  0.00    -0.084 HD
ENDBRANCH   5  14
BRANCH  13  24
ATOM     23  O   UNL     1      33.622 -15.691 -26.186  0.00  0.00    -0.245 OA
ATOM     24  C   UNL     1      33.729 -15.379 -25.012  0.00  0.00    +0.342 C 
BRANCH  24  25
ATOM     25  O   UNL     1      34.046 -16.213 -24.000  0.00  0.00    -0.477 OA
ATOM     26  H   UNL     1      33.587 -16.157 -23.185  0.00  0.00    +0.295 HD
ENDBRANCH  24  25
ENDBRANCH  13  24
BRANCH   4  27
ATOM     27  C   UNL     1      34.789 -10.655 -25.501  0.00  0.00    +0.096 C 
ATOM     28  C   UNL     1      35.264 -11.188 -26.837  0.00  0.00    +0.024 C 
ENDBRANCH   4  27
TORSDOF 4
ENDMDL
MODEL 9
REMARK VINA RESULT:      -8.5      3.564      7.710
REMARK  Name = 3948
REMARK  4 active torsions:
REMARK  status: ('A' for Active; 'I' for Inactive)
REMARK    1  A    between atoms: N_4  and  C_27
REMARK    2  A    between atoms: C_5  and  N_14
REMARK    3  A    between atoms: C_13  and  C_24
REMARK    4  A    between atoms: C_24  and  O_25
REMARK                            x       y       z     vdW  Elec       q    Type
REMARK                         _______ _______ _______ _____ _____    ______ ____
ROOT
ATOM      1  F   UNL     1      33.396 -12.737 -21.471  0.00  0.00    -0.201 F 
ATOM      2  F   UNL     1      33.416 -11.622 -26.050  0.00  0.00    -0.203 F 
ATOM      3  O   UNL     1      34.408 -16.547 -25.979  0.00  0.00    -0.286 OA
ATOM      4  N   UNL     1      33.984 -15.493 -22.062  0.00  0.00    -0.284 N 
ATOM      5  C   UNL     1      33.406 -12.183 -23.745  0.00  0.00    +0.105 C 
ATOM      6  C   UNL     1      33.546 -13.146 -22.740  0.00  0.00    +0.169 C 
ATOM      7  C   UNL     1      33.834 -14.488 -23.046  0.00  0.00    +0.084 C 
ATOM      8  C   UNL     1      33.549 -12.539 -25.082  0.00  0.00    +0.156 C 
ATOM      9  C   UNL     1      33.975 -14.822 -24.413  0.00  0.00    +0.057 C 
ATOM     10  C   UNL     1      33.834 -13.858 -25.420  0.00  0.00    +0.035 C 
ATOM     11  C   UNL     1      34.281 -16.224 -24.804  0.00  0.00    +0.204 C 
ATOM     12  C   UNL     1      34.271 -16.788 -22.454  0.00  0.00    +0.075 C 
ATOM     13  C   UNL     1      34.425 -17.217 -23.711  0.00  0.00    +0.129 C 
ENDROOT
BRANCH   5  14
ATOM     14  N   UNL     1      33.120 -10.856 -23.407  0.00  0.00    -0.308 N 
ATOM     15  N   UNL     1      32.477  -8.116 -22.947  0.00  0.00    +0.387 N 
ATOM     16  C   UNL     1      33.873  -8.519 -23.146  0.00  0.00    -0.042 C 
ATOM     17  C   UNL     1      33.954  -9.798 -23.993  0.00  0.00    +0.070 C 
ATOM     18  C   UNL     1      31.744 -10.470 -23.076  0.00  0.00    +0.068 C 
ATOM     19  C   UNL     1      31.733  -9.174 -22.268  0.00  0.00    -0.060 C 
ATOM     20  C   UNL     1      34.634  -7.378 -23.820  0.00  0.00    -0.022 C 
ATOM     21  H   UNL     1      32.049  -7.932 -23.854  0.00  0.00    -0.084 HD
ATOM     22  H   UNL     1      32.455  -7.273 -22.372  0.00  0.00    -0.084 HD
ENDBRANCH   5  14
BRANCH  13  24
ATOM     23  O   UNL     1      35.454 -19.304 -23.227  0.00  0.00    -0.245 OA
ATOM     24  C   UNL     1      34.727 -18.630 -23.936  0.00  0.00    +0.342 C 
BRANCH  24  25
ATOM     25  O   UNL     1      34.080 -19.063 -25.039  0.00  0.00    -0.477 OA
ATOM     26  H   UNL     1      33.970 -18.491 -25.773  0.00  0.00    +0.295 HD
ENDBRANCH  24  25
ENDBRANCH  13  24
BRANCH   4  27
ATOM     27  C   UNL     1      33.839 -15.155 -20.647  0.00  0.00    +0.096 C 
ATOM     28  C   UNL     1      32.442 -15.457 -20.145  0.00  0.00    +0.024 C 
ENDBRANCH   4  27
TORSDOF 4
ENDMDL
