MODEL 1
REMARK VINA RESULT:      -6.7      0.000      0.000
REMARK  Name = 5310967
REMARK  4 active torsions:
REMARK  status: ('A' for Active; 'I' for Inactive)
REMARK    1  A    between atoms: C_1  and  C_9
REMARK    2  A    between atoms: C_2  and  C_4
REMARK    3  A    between atoms: C_9  and  C_10
REMARK    4  A    between atoms: C_10  and  N_11
REMARK                            x       y       z     vdW  Elec       q    Type
REMARK                         _______ _______ _______ _____ _____    ______ ____
ROOT
ATOM      1  C   UNL     1      34.953 -18.955 -22.682  0.00  0.00    -0.028 C 
ATOM      2  C   UNL     1      34.553 -18.935 -21.401  0.00  0.00    -0.003 C 
ENDROOT
BRANCH   2   4
ATOM      3  N   UNL     1      32.794 -21.606 -19.473  0.00  0.00    -0.242 NA
ATOM      4  C   UNL     1      34.338 -20.125 -20.560  0.00  0.00    +0.019 C 
ATOM      5  C   UNL     1      35.414 -20.849 -20.089  0.00  0.00    +0.003 C 
ATOM      6  C   UNL     1      33.062 -20.525 -20.238  0.00  0.00    +0.099 C 
ATOM      7  C   UNL     1      35.178 -21.968 -19.298  0.00  0.00    +0.021 C 
ATOM      8  C   UNL     1      33.862 -22.301 -19.021  0.00  0.00    +0.099 C 
ENDBRANCH   2   4
BRANCH   1   9
ATOM      9  C   UNL     1      35.173 -17.714 -23.499  0.00  0.00    +0.003 C 
BRANCH   9  10
ATOM     10  C   UNL     1      34.506 -17.831 -24.868  0.00  0.00    -0.077 C 
BRANCH  10  11
ATOM     11  N   UNL     1      34.190 -16.508 -25.392  0.00  0.00    +0.383 N 
ATOM     12  C   UNL     1      33.896 -15.577 -24.312  0.00  0.00    -0.106 C 
ATOM     13  H   UNL     1      33.376 -16.577 -26.005  0.00  0.00    -0.085 HD
ATOM     14  H   UNL     1      34.997 -16.162 -25.911  0.00  0.00    -0.085 HD
ENDBRANCH  10  11
ENDBRANCH   9  10
ENDBRANCH   1   9
TORSDOF 4
ENDMDL
MODEL 2
REMARK VINA RESULT:      -6.5      1.010      6.289
REMARK  Name = 5310967
REMARK  4 active torsions:
REMARK  status: ('A' for Active; 'I' for Inactive)
REMARK    1  A    between atoms: C_1  and  C_9
REMARK    2  A    between atoms: C_2  and  C_4
REMARK    3  A    between atoms: C_9  and  C_10
REMARK    4  A    between atoms: C_10  and  N_11
REMARK                            x       y       z     vdW  Elec       q    Type
REMARK                         _______ _______ _______ _____ _____    ______ ____
ROOT
ATOM      1  C   UNL     1      34.256 -19.546 -21.208  0.00  0.00    -0.028 C 
ATOM      2  C   UNL     1      35.025 -19.373 -22.294  0.00  0.00    -0.003 C 
ENDROOT
BRANCH   2   4
ATOM      3  N   UNL     1      34.337 -17.705 -25.564  0.00  0.00    -0.242 NA
ATOM      4  C   UNL     1      34.847 -18.311 -23.298  0.00  0.00    +0.019 C 
ATOM      5  C   UNL     1      35.013 -16.986 -22.948  0.00  0.00    +0.003 C 
ATOM      6  C   UNL     1      34.515 -18.629 -24.594  0.00  0.00    +0.099 C 
ATOM      7  C   UNL     1      34.839 -16.006 -23.919  0.00  0.00    +0.021 C 
ATOM      8  C   UNL     1      34.504 -16.414 -25.200  0.00  0.00    +0.099 C 
ENDBRANCH   2   4
BRANCH   1   9
ATOM      9  C   UNL     1      34.482 -20.638 -20.200  0.00  0.00    +0.003 C 
BRANCH   9  10
ATOM     10  C   UNL     1      33.163 -21.088 -19.573  0.00  0.00    -0.077 C 
BRANCH  10  11
ATOM     11  N   UNL     1      33.181 -22.526 -19.336  0.00  0.00    +0.383 N 
ATOM     12  C   UNL     1      33.741 -22.832 -18.028  0.00  0.00    -0.106 C 
ATOM     13  H   UNL     1      33.748 -22.977 -20.055  0.00  0.00    -0.085 HD
ATOM     14  H   UNL     1      32.222 -22.874 -19.370  0.00  0.00    -0.085 HD
ENDBRANCH  10  11
ENDBRANCH   9  10
ENDBRANCH   1   9
TORSDOF 4
ENDMDL
MODEL 3
REMARK VINA RESULT:      -6.4      1.162      1.676
REMARK  Name = 5310967
REMARK  4 active torsions:
REMARK  status: ('A' for Active; 'I' for Inactive)
REMARK    1  A    between atoms: C_1  and  C_9
REMARK    2  A    between atoms: C_2  and  C_4
REMARK    3  A    between atoms: C_9  and  C_10
REMARK    4  A    between atoms: C_10  and  N_11
REMARK                            x       y       z     vdW  Elec       q    Type
REMARK                         _______ _______ _______ _____ _____    ______ ____
ROOT
ATOM      1  C   UNL     1      34.979 -19.040 -22.946  0.00  0.00    -0.028 C 
ATOM      2  C   UNL     1      34.534 -18.962 -21.682  0.00  0.00    -0.003 C 
ENDROOT
BRANCH   2   4
ATOM      3  N   UNL     1      35.701 -21.710 -19.439  0.00  0.00    -0.242 NA
ATOM      4  C   UNL     1      34.497 -20.079 -20.724  0.00  0.00    +0.019 C 
ATOM      5  C   UNL     1      33.292 -20.531 -20.227  0.00  0.00    +0.003 C 
ATOM      6  C   UNL     1      35.664 -20.681 -20.315  0.00  0.00    +0.099 C 
ATOM      7  C   UNL     1      33.289 -21.588 -19.323  0.00  0.00    +0.021 C 
ATOM      8  C   UNL     1      34.510 -22.137 -18.964  0.00  0.00    +0.099 C 
ENDBRANCH   2   4
BRANCH   1   9
ATOM      9  C   UNL     1      35.010 -17.869 -23.886  0.00  0.00    +0.003 C 
BRANCH   9  10
ATOM     10  C   UNL     1      35.067 -16.550 -23.119  0.00  0.00    -0.077 C 
BRANCH  10  11
ATOM     11  N   UNL     1      34.425 -15.489 -23.886  0.00  0.00    +0.383 N 
ATOM     12  C   UNL     1      33.915 -15.998 -25.151  0.00  0.00    -0.106 C 
ATOM     13  H   UNL     1      35.106 -14.753 -24.073  0.00  0.00    -0.085 HD
ATOM     14  H   UNL     1      33.644 -15.121 -23.343  0.00  0.00    -0.085 HD
ENDBRANCH  10  11
ENDBRANCH   9  10
ENDBRANCH   1   9
TORSDOF 4
ENDMDL
MODEL 4
REMARK VINA RESULT:      -6.4      1.315      6.164
REMARK  Name = 5310967
REMARK  4 active torsions:
REMARK  status: ('A' for Active; 'I' for Inactive)
REMARK    1  A    between atoms: C_1  and  C_9
REMARK    2  A    between atoms: C_2  and  C_4
REMARK    3  A    between atoms: C_9  and  C_10
REMARK    4  A    between atoms: C_10  and  N_11
REMARK                            x       y       z     vdW  Elec       q    Type
REMARK                         _______ _______ _______ _____ _____    ______ ____
ROOT
ATOM      1  C   UNL     1      33.148 -19.903 -20.765  0.00  0.00    -0.028 C 
ATOM      2  C   UNL     1      34.350 -19.533 -21.232  0.00  0.00    -0.003 C 
ENDROOT
BRANCH   2   4
ATOM      3  N   UNL     1      34.999 -16.320 -23.022  0.00  0.00    -0.242 NA
ATOM      4  C   UNL     1      34.578 -18.580 -22.331  0.00  0.00    +0.019 C 
ATOM      5  C   UNL     1      34.588 -19.015 -23.641  0.00  0.00    +0.003 C 
ATOM      6  C   UNL     1      34.784 -17.246 -22.062  0.00  0.00    +0.099 C 
ATOM      7  C   UNL     1      34.807 -18.092 -24.656  0.00  0.00    +0.021 C 
ATOM      8  C   UNL     1      35.005 -16.768 -24.298  0.00  0.00    +0.099 C 
ENDBRANCH   2   4
BRANCH   1   9
ATOM      9  C   UNL     1      32.962 -20.870 -19.632  0.00  0.00    +0.003 C 
BRANCH   9  10
ATOM     10  C   UNL     1      34.146 -21.831 -19.530  0.00  0.00    -0.077 C 
BRANCH  10  11
ATOM     11  N   UNL     1      33.697 -23.143 -19.081  0.00  0.00    +0.383 N 
ATOM     12  C   UNL     1      33.275 -23.100 -17.688  0.00  0.00    -0.106 C 
ATOM     13  H   UNL     1      34.464 -23.809 -19.177  0.00  0.00    -0.085 HD
ATOM     14  H   UNL     1      32.903 -23.429 -19.654  0.00  0.00    -0.085 HD
ENDBRANCH  10  11
ENDBRANCH   9  10
ENDBRANCH   1   9
TORSDOF 4
ENDMDL
MODEL 5
REMARK VINA RESULT:      -6.2      1.633      6.053
REMARK  Name = 5310967
REMARK  4 active torsions:
REMARK  status: ('A' for Active; 'I' for Inactive)
REMARK    1  A    between atoms: C_1  and  C_9
REMARK    2  A    between atoms: C_2  and  C_4
REMARK    3  A    between atoms: C_9  and  C_10
REMARK    4  A    between atoms: C_10  and  N_11
REMARK                            x       y       z     vdW  Elec       q    Type
REMARK                         _______ _______ _______ _____ _____    ______ ____
ROOT
ATOM      1  C   UNL     1      34.125 -19.979 -20.884  0.00  0.00    -0.028 C 
ATOM      2  C   UNL     1      35.104 -19.573 -21.708  0.00  0.00    -0.003 C 
ENDROOT
BRANCH   2   4
ATOM      3  N   UNL     1      34.500 -17.946 -25.015  0.00  0.00    -0.242 NA
ATOM      4  C   UNL     1      34.970 -18.525 -22.734  0.00  0.00    +0.019 C 
ATOM      5  C   UNL     1      35.176 -17.200 -22.407  0.00  0.00    +0.003 C 
ATOM      6  C   UNL     1      34.639 -18.857 -24.027  0.00  0.00    +0.099 C 
ATOM      7  C   UNL     1      35.042 -16.233 -23.397  0.00  0.00    +0.021 C 
ATOM      8  C   UNL     1      34.706 -16.654 -24.673  0.00  0.00    +0.099 C 
ENDBRANCH   2   4
BRANCH   1   9
ATOM      9  C   UNL     1      34.311 -21.044 -19.842  0.00  0.00    +0.003 C 
BRANCH   9  10
ATOM     10  C   UNL     1      35.739 -21.585 -19.857  0.00  0.00    -0.077 C 
BRANCH  10  11
ATOM     11  N   UNL     1      36.522 -20.979 -18.788  0.00  0.00    +0.383 N 
ATOM     12  C   UNL     1      36.636 -21.881 -17.650  0.00  0.00    -0.106 C 
ATOM     13  H   UNL     1      36.065 -20.118 -18.486  0.00  0.00    -0.085 HD
ATOM     14  H   UNL     1      37.458 -20.779 -19.142  0.00  0.00    -0.085 HD
ENDBRANCH  10  11
ENDBRANCH   9  10
ENDBRANCH   1   9
TORSDOF 4
ENDMDL
MODEL 6
REMARK VINA RESULT:      -6.2      1.672      6.464
REMARK  Name = 5310967
REMARK  4 active torsions:
REMARK  status: ('A' for Active; 'I' for Inactive)
REMARK    1  A    between atoms: C_1  and  C_9
REMARK    2  A    between atoms: C_2  and  C_4
REMARK    3  A    between atoms: C_9  and  C_10
REMARK    4  A    between atoms: C_10  and  N_11
REMARK                            x       y       z     vdW  Elec       q    Type
REMARK                         _______ _______ _______ _____ _____    ______ ____
ROOT
ATOM      1  C   UNL     1      35.263 -17.959 -22.729  0.00  0.00    -0.028 C 
ATOM      2  C   UNL     1      35.195 -16.631 -22.910  0.00  0.00    -0.003 C 
ENDROOT
BRANCH   2   4
ATOM      3  N   UNL     1      33.620 -15.964 -26.229  0.00  0.00    -0.242 NA
ATOM      4  C   UNL     1      34.427 -15.956 -23.969  0.00  0.00    +0.019 C 
ATOM      5  C   UNL     1      33.816 -14.743 -23.722  0.00  0.00    +0.003 C 
ATOM      6  C   UNL     1      34.310 -16.529 -25.214  0.00  0.00    +0.099 C 
ATOM      7  C   UNL     1      33.097 -14.131 -24.742  0.00  0.00    +0.021 C 
ATOM      8  C   UNL     1      33.030 -14.777 -25.966  0.00  0.00    +0.099 C 
ENDBRANCH   2   4
BRANCH   1   9
ATOM      9  C   UNL     1      36.051 -18.604 -21.625  0.00  0.00    +0.003 C 
BRANCH   9  10
ATOM     10  C   UNL     1      35.201 -19.620 -20.864  0.00  0.00    -0.077 C 
BRANCH  10  11
ATOM     11  N   UNL     1      33.823 -19.583 -21.338  0.00  0.00    +0.383 N 
ATOM     12  C   UNL     1      32.934 -20.263 -20.407  0.00  0.00    -0.106 C 
ATOM     13  H   UNL     1      33.769 -20.044 -22.247  0.00  0.00    -0.085 HD
ATOM     14  H   UNL     1      33.531 -18.609 -21.416  0.00  0.00    -0.085 HD
ENDBRANCH  10  11
ENDBRANCH   9  10
ENDBRANCH   1   9
TORSDOF 4
ENDMDL
MODEL 7
REMARK VINA RESULT:      -6.2      3.204      7.288
REMARK  Name = 5310967
REMARK  4 active torsions:
REMARK  status: ('A' for Active; 'I' for Inactive)
REMARK    1  A    between atoms: C_1  and  C_9
REMARK    2  A    between atoms: C_2  and  C_4
REMARK    3  A    between atoms: C_9  and  C_10
REMARK    4  A    between atoms: C_10  and  N_11
REMARK                            x       y       z     vdW  Elec       q    Type
REMARK                         _______ _______ _______ _____ _____    ______ ____
ROOT
ATOM      1  C   UNL     1      36.486 -21.533 -17.490  0.00  0.00    -0.028 C 
ATOM      2  C   UNL     1      36.113 -21.876 -18.732  0.00  0.00    -0.003 C 
ENDROOT
BRANCH   2   4
ATOM      3  N   UNL     1      32.721 -20.969 -20.005  0.00  0.00    -0.242 NA
ATOM      4  C   UNL     1      35.058 -21.211 -19.516  0.00  0.00    +0.019 C 
ATOM      5  C   UNL     1      35.386 -20.251 -20.451  0.00  0.00    +0.003 C 
ATOM      6  C   UNL     1      33.737 -21.540 -19.321  0.00  0.00    +0.099 C 
ATOM      7  C   UNL     1      34.368 -19.640 -21.175  0.00  0.00    +0.021 C 
ATOM      8  C   UNL     1      33.064 -20.031 -20.917  0.00  0.00    +0.099 C 
ENDBRANCH   2   4
BRANCH   1   9
ATOM      9  C   UNL     1      37.579 -22.233 -16.732  0.00  0.00    +0.003 C 
BRANCH   9  10
ATOM     10  C   UNL     1      37.008 -23.052 -15.576  0.00  0.00    -0.077 C 
BRANCH  10  11
ATOM     11  N   UNL     1      37.787 -24.269 -15.384  0.00  0.00    +0.383 N 
ATOM     12  C   UNL     1      36.936 -25.369 -14.952  0.00  0.00    -0.106 C 
ATOM     13  H   UNL     1      38.501 -24.101 -14.674  0.00  0.00    -0.085 HD
ATOM     14  H   UNL     1      38.221 -24.521 -16.272  0.00  0.00    -0.085 HD
ENDBRANCH  10  11
ENDBRANCH   9  10
ENDBRANCH   1   9
TORSDOF 4
ENDMDL
MODEL 8
REMARK VINA RESULT:      -6.1      1.797      2.551
REMARK  Name = 5310967
REMARK  4 active torsions:
REMARK  status: ('A' for Active; 'I' for Inactive)
REMARK    1  A    between atoms: C_1  and  C_9
REMARK    2  A    between atoms: C_2  and  C_4
REMARK    3  A    between atoms: C_9  and  C_10
REMARK    4  A    between atoms: C_10  and  N_11
REMARK                            x       y       z     vdW  Elec       q    Type
REMARK                         _______ _______ _______ _____ _____    ______ ____
ROOT
ATOM      1  C   UNL     1      34.489 -16.322 -21.883  0.00  0.00    -0.028 C 
ATOM      2  C   UNL     1      34.850 -17.555 -22.273  0.00  0.00    -0.003 C 
ENDROOT
BRANCH   2   4
ATOM      3  N   UNL     1      36.173 -20.265 -20.071  0.00  0.00    -0.242 NA
ATOM      4  C   UNL     1      34.883 -18.744 -21.406  0.00  0.00    +0.019 C 
ATOM      5  C   UNL     1      33.719 -19.430 -21.119  0.00  0.00    +0.003 C 
ATOM      6  C   UNL     1      36.073 -19.183 -20.874  0.00  0.00    +0.099 C 
ATOM      7  C   UNL     1      33.782 -20.549 -20.297  0.00  0.00    +0.021 C 
ATOM      8  C   UNL     1      35.022 -20.922 -19.803  0.00  0.00    +0.099 C 
ENDBRANCH   2   4
BRANCH   1   9
ATOM      9  C   UNL     1      34.458 -15.138 -22.806  0.00  0.00    +0.003 C 
BRANCH   9  10
ATOM     10  C   UNL     1      33.864 -15.515 -24.162  0.00  0.00    -0.077 C 
BRANCH  10  11
ATOM     11  N   UNL     1      33.323 -14.334 -24.824  0.00  0.00    +0.383 N 
ATOM     12  C   UNL     1      32.906 -14.645 -26.184  0.00  0.00    -0.106 C 
ATOM     13  H   UNL     1      34.040 -13.608 -24.852  0.00  0.00    -0.085 HD
ATOM     14  H   UNL     1      32.510 -14.010 -24.299  0.00  0.00    -0.085 HD
ENDBRANCH  10  11
ENDBRANCH   9  10
ENDBRANCH   1   9
TORSDOF 4
ENDMDL
MODEL 9
REMARK VINA RESULT:      -6.1      5.350      7.501
REMARK  Name = 5310967
REMARK  4 active torsions:
REMARK  status: ('A' for Active; 'I' for Inactive)
REMARK    1  A    between atoms: C_1  and  C_9
REMARK    2  A    between atoms: C_2  and  C_4
REMARK    3  A    between atoms: C_9  and  C_10
REMARK    4  A    between atoms: C_10  and  N_11
REMARK                            x       y       z     vdW  Elec       q    Type
REMARK                         _______ _______ _______ _____ _____    ______ ____
ROOT
ATOM      1  C   UNL     1      32.120 -12.410 -20.524  0.00  0.00    -0.028 C 
ATOM      2  C   UNL     1      32.164 -13.181 -21.622  0.00  0.00    -0.003 C 
ENDROOT
BRANCH   2   4
ATOM      3  N   UNL     1      34.925 -15.263 -23.032  0.00  0.00    -0.242 NA
ATOM      4  C   UNL     1      33.079 -14.317 -21.826  0.00  0.00    +0.019 C 
ATOM      5  C   UNL     1      32.966 -15.450 -21.047  0.00  0.00    +0.003 C 
ATOM      6  C   UNL     1      34.054 -14.258 -22.794  0.00  0.00    +0.099 C 
ATOM      7  C   UNL     1      33.844 -16.506 -21.262  0.00  0.00    +0.021 C 
ATOM      8  C   UNL     1      34.797 -16.364 -22.258  0.00  0.00    +0.099 C 
ENDBRANCH   2   4
BRANCH   1   9
ATOM      9  C   UNL     1      31.160 -11.267 -20.353  0.00  0.00    +0.003 C 
BRANCH   9  10
ATOM     10  C   UNL     1      31.364 -10.575 -19.007  0.00  0.00    -0.077 C 
BRANCH  10  11
ATOM     11  N   UNL     1      32.465  -9.623 -19.089  0.00  0.00    +0.383 N 
ATOM     12  C   UNL     1      32.270  -8.695 -20.194  0.00  0.00    -0.106 C 
ATOM     13  H   UNL     1      33.338 -10.133 -19.231  0.00  0.00    -0.085 HD
ATOM     14  H   UNL     1      32.502  -9.091 -18.219  0.00  0.00    -0.085 HD
ENDBRANCH  10  11
ENDBRANCH   9  10
ENDBRANCH   1   9
TORSDOF 4
ENDMDL
