MODEL 1
REMARK VINA RESULT:      -5.7      0.000      0.000
REMARK  Name = 448819
REMARK  3 active torsions:
REMARK  status: ('A' for Active; 'I' for Inactive)
REMARK    1  A    between atoms: C_2  and  O_8
REMARK    2  A    between atoms: C_5  and  O_10
REMARK    3  A    between atoms: C_6  and  O_12
REMARK                            x       y       z     vdW  Elec       q    Type
REMARK                         _______ _______ _______ _____ _____    ______ ____
ROOT
ATOM      1  O   UNL     1      38.238 -26.821 -14.508  0.00  0.00    -0.329 OA
ATOM      2  C   UNL     1      38.235 -24.416 -14.888  0.00  0.00    +0.140 C 
ATOM      3  C   UNL     1      36.769 -24.485 -15.316  0.00  0.00    +0.066 C 
ATOM      4  C   UNL     1      38.931 -25.753 -15.159  0.00  0.00    +0.145 C 
ATOM      5  C   UNL     1      36.077 -25.699 -14.704  0.00  0.00    +0.169 C 
ATOM      6  C   UNL     1      36.881 -26.979 -14.936  0.00  0.00    +0.260 C 
ATOM      7  C   UNL     1      40.366 -25.755 -14.638  0.00  0.00    +0.035 C 
ENDROOT
BRANCH   2   8
ATOM      8  O   UNL     1      38.890 -23.379 -15.610  0.00  0.00    -0.382 OA
ATOM      9  H   UNL     1      39.502 -22.911 -15.019  0.00  0.00    +0.210 HD
ENDBRANCH   2   8
BRANCH   5  10
ATOM     10  O   UNL     1      35.937 -25.508 -13.297  0.00  0.00    -0.379 OA
ATOM     11  H   UNL     1      35.041 -25.191 -13.102  0.00  0.00    +0.211 HD
ENDBRANCH   5  10
BRANCH   6  12
ATOM     12  O   UNL     1      36.789 -27.357 -16.305  0.00  0.00    -0.358 OA
ATOM     13  H   UNL     1      36.016 -26.930 -16.708  0.00  0.00    +0.213 HD
ENDBRANCH   6  12
TORSDOF 3
ENDMDL
MODEL 2
REMARK VINA RESULT:      -5.7      2.145      3.637
REMARK  Name = 448819
REMARK  3 active torsions:
REMARK  status: ('A' for Active; 'I' for Inactive)
REMARK    1  A    between atoms: C_2  and  O_8
REMARK    2  A    between atoms: C_5  and  O_10
REMARK    3  A    between atoms: C_6  and  O_12
REMARK                            x       y       z     vdW  Elec       q    Type
REMARK                         _______ _______ _______ _____ _____    ______ ____
ROOT
ATOM      1  O   UNL     1      38.192 -23.677 -13.754  0.00  0.00    -0.329 OA
ATOM      2  C   UNL     1      37.287 -25.350 -12.236  0.00  0.00    +0.140 C 
ATOM      3  C   UNL     1      37.301 -26.383 -13.364  0.00  0.00    +0.066 C 
ATOM      4  C   UNL     1      37.151 -23.937 -12.810  0.00  0.00    +0.145 C 
ATOM      5  C   UNL     1      38.339 -26.022 -14.422  0.00  0.00    +0.169 C 
ATOM      6  C   UNL     1      38.196 -24.568 -14.875  0.00  0.00    +0.260 C 
ATOM      7  C   UNL     1      37.249 -22.876 -11.718  0.00  0.00    +0.035 C 
ENDROOT
BRANCH   2   8
ATOM      8  O   UNL     1      36.198 -25.621 -11.361  0.00  0.00    -0.382 OA
ATOM      9  H   UNL     1      36.325 -25.139 -10.529  0.00  0.00    +0.210 HD
ENDBRANCH   2   8
BRANCH   5  10
ATOM     10  O   UNL     1      39.648 -26.196 -13.884  0.00  0.00    -0.379 OA
ATOM     11  H   UNL     1      40.085 -25.334 -13.813  0.00  0.00    +0.211 HD
ENDBRANCH   5  10
BRANCH   6  12
ATOM     12  O   UNL     1      37.027 -24.432 -15.676  0.00  0.00    -0.358 OA
ATOM     13  H   UNL     1      36.688 -23.525 -15.602  0.00  0.00    +0.213 HD
ENDBRANCH   6  12
TORSDOF 3
ENDMDL
MODEL 3
REMARK VINA RESULT:      -5.7      2.379      3.843
REMARK  Name = 448819
REMARK  3 active torsions:
REMARK  status: ('A' for Active; 'I' for Inactive)
REMARK    1  A    between atoms: C_2  and  O_8
REMARK    2  A    between atoms: C_5  and  O_10
REMARK    3  A    between atoms: C_6  and  O_12
REMARK                            x       y       z     vdW  Elec       q    Type
REMARK                         _______ _______ _______ _____ _____    ______ ____
ROOT
ATOM      1  O   UNL     1      36.110 -23.227 -13.286  0.00  0.00    -0.329 OA
ATOM      2  C   UNL     1      37.922 -24.507 -14.288  0.00  0.00    +0.140 C 
ATOM      3  C   UNL     1      38.488 -24.796 -12.898  0.00  0.00    +0.066 C 
ATOM      4  C   UNL     1      37.137 -23.192 -14.280  0.00  0.00    +0.145 C 
ATOM      5  C   UNL     1      37.398 -24.713 -11.835  0.00  0.00    +0.169 C 
ATOM      6  C   UNL     1      36.598 -23.414 -11.953  0.00  0.00    +0.260 C 
ATOM      7  C   UNL     1      36.462 -22.933 -15.624  0.00  0.00    +0.035 C 
ENDROOT
BRANCH   2   8
ATOM      8  O   UNL     1      38.990 -24.423 -15.226  0.00  0.00    -0.382 OA
ATOM      9  H   UNL     1      39.223 -23.492 -15.367  0.00  0.00    +0.210 HD
ENDBRANCH   2   8
BRANCH   5  10
ATOM     10  O   UNL     1      36.497 -25.807 -11.990  0.00  0.00    -0.379 OA
ATOM     11  H   UNL     1      35.761 -25.542 -12.562  0.00  0.00    +0.211 HD
ENDBRANCH   5  10
BRANCH   6  12
ATOM     12  O   UNL     1      37.399 -22.321 -11.515  0.00  0.00    -0.358 OA
ATOM     13  H   UNL     1      38.072 -22.123 -12.186  0.00  0.00    +0.213 HD
ENDBRANCH   6  12
TORSDOF 3
ENDMDL
MODEL 4
REMARK VINA RESULT:      -5.5      2.429      3.031
REMARK  Name = 448819
REMARK  3 active torsions:
REMARK  status: ('A' for Active; 'I' for Inactive)
REMARK    1  A    between atoms: C_2  and  O_8
REMARK    2  A    between atoms: C_5  and  O_10
REMARK    3  A    between atoms: C_6  and  O_12
REMARK                            x       y       z     vdW  Elec       q    Type
REMARK                         _______ _______ _______ _____ _____    ______ ____
ROOT
ATOM      1  O   UNL     1      38.543 -24.923 -12.628  0.00  0.00    -0.329 OA
ATOM      2  C   UNL     1      37.538 -23.736 -14.501  0.00  0.00    +0.140 C 
ATOM      3  C   UNL     1      36.406 -23.258 -13.591  0.00  0.00    +0.066 C 
ATOM      4  C   UNL     1      38.112 -25.059 -13.985  0.00  0.00    +0.145 C 
ATOM      5  C   UNL     1      36.849 -23.233 -12.132  0.00  0.00    +0.169 C 
ATOM      6  C   UNL     1      37.497 -24.556 -11.721  0.00  0.00    +0.260 C 
ATOM      7  C   UNL     1      39.321 -25.504 -14.804  0.00  0.00    +0.035 C 
ENDROOT
BRANCH   2   8
ATOM      8  O   UNL     1      37.041 -23.911 -15.823  0.00  0.00    -0.382 OA
ATOM      9  H   UNL     1      37.719 -24.340 -16.368  0.00  0.00    +0.210 HD
ENDBRANCH   2   8
BRANCH   5  10
ATOM     10  O   UNL     1      37.803 -22.190 -11.941  0.00  0.00    -0.379 OA
ATOM     11  H   UNL     1      38.684 -22.576 -11.822  0.00  0.00    +0.211 HD
ENDBRANCH   5  10
BRANCH   6  12
ATOM     12  O   UNL     1      36.497 -25.564 -11.616  0.00  0.00    -0.358 OA
ATOM     13  H   UNL     1      36.041 -25.657 -12.468  0.00  0.00    +0.213 HD
ENDBRANCH   6  12
TORSDOF 3
ENDMDL
MODEL 5
REMARK VINA RESULT:      -5.5      1.996      3.141
REMARK  Name = 448819
REMARK  3 active torsions:
REMARK  status: ('A' for Active; 'I' for Inactive)
REMARK    1  A    between atoms: C_2  and  O_8
REMARK    2  A    between atoms: C_5  and  O_10
REMARK    3  A    between atoms: C_6  and  O_12
REMARK                            x       y       z     vdW  Elec       q    Type
REMARK                         _______ _______ _______ _____ _____    ______ ____
ROOT
ATOM      1  O   UNL     1      38.659 -23.781 -15.309  0.00  0.00    -0.329 OA
ATOM      2  C   UNL     1      36.611 -23.218 -14.119  0.00  0.00    +0.140 C 
ATOM      3  C   UNL     1      36.716 -24.517 -13.321  0.00  0.00    +0.066 C 
ATOM      4  C   UNL     1      37.300 -23.371 -15.478  0.00  0.00    +0.145 C 
ATOM      5  C   UNL     1      38.160 -25.002 -13.252  0.00  0.00    +0.169 C 
ATOM      6  C   UNL     1      38.807 -25.037 -14.638  0.00  0.00    +0.260 C 
ATOM      7  C   UNL     1      37.313 -22.055 -16.252  0.00  0.00    +0.035 C 
ENDROOT
BRANCH   2   8
ATOM      8  O   UNL     1      35.240 -22.888 -14.309  0.00  0.00    -0.382 OA
ATOM      9  H   UNL     1      35.050 -22.834 -15.259  0.00  0.00    +0.210 HD
ENDBRANCH   2   8
BRANCH   5  10
ATOM     10  O   UNL     1      38.920 -24.121 -12.427  0.00  0.00    -0.379 OA
ATOM     11  H   UNL     1      38.559 -24.128 -11.528  0.00  0.00    +0.211 HD
ENDBRANCH   5  10
BRANCH   6  12
ATOM     12  O   UNL     1      38.262 -26.117 -15.389  0.00  0.00    -0.358 OA
ATOM     13  H   UNL     1      37.394 -26.359 -15.027  0.00  0.00    +0.213 HD
ENDBRANCH   6  12
TORSDOF 3
ENDMDL
MODEL 6
REMARK VINA RESULT:      -5.5      2.007      3.143
REMARK  Name = 448819
REMARK  3 active torsions:
REMARK  status: ('A' for Active; 'I' for Inactive)
REMARK    1  A    between atoms: C_2  and  O_8
REMARK    2  A    between atoms: C_5  and  O_10
REMARK    3  A    between atoms: C_6  and  O_12
REMARK                            x       y       z     vdW  Elec       q    Type
REMARK                         _______ _______ _______ _____ _____    ______ ____
ROOT
ATOM      1  O   UNL     1      39.051 -24.205 -13.051  0.00  0.00    -0.329 OA
ATOM      2  C   UNL     1      37.949 -25.845 -14.472  0.00  0.00    +0.140 C 
ATOM      3  C   UNL     1      36.612 -25.532 -13.799  0.00  0.00    +0.066 C 
ATOM      4  C   UNL     1      39.108 -25.556 -13.513  0.00  0.00    +0.145 C 
ATOM      5  C   UNL     1      36.614 -24.126 -13.208  0.00  0.00    +0.169 C 
ATOM      6  C   UNL     1      37.850 -23.884 -12.340  0.00  0.00    +0.260 C 
ATOM      7  C   UNL     1      40.460 -25.749 -14.193  0.00  0.00    +0.035 C 
ENDROOT
BRANCH   2   8
ATOM      8  O   UNL     1      37.975 -27.215 -14.857  0.00  0.00    -0.382 OA
ATOM      9  H   UNL     1      37.621 -27.760 -14.137  0.00  0.00    +0.210 HD
ENDBRANCH   2   8
BRANCH   5  10
ATOM     10  O   UNL     1      36.614 -23.165 -14.263  0.00  0.00    -0.379 OA
ATOM     11  H   UNL     1      37.125 -22.388 -13.991  0.00  0.00    +0.211 HD
ENDBRANCH   5  10
BRANCH   6  12
ATOM     12  O   UNL     1      37.730 -24.618 -11.126  0.00  0.00    -0.358 OA
ATOM     13  H   UNL     1      38.033 -25.530 -11.268  0.00  0.00    +0.213 HD
ENDBRANCH   6  12
TORSDOF 3
ENDMDL
MODEL 7
REMARK VINA RESULT:      -5.4      7.321      8.879
REMARK  Name = 448819
REMARK  3 active torsions:
REMARK  status: ('A' for Active; 'I' for Inactive)
REMARK    1  A    between atoms: C_2  and  O_8
REMARK    2  A    between atoms: C_5  and  O_10
REMARK    3  A    between atoms: C_6  and  O_12
REMARK                            x       y       z     vdW  Elec       q    Type
REMARK                         _______ _______ _______ _____ _____    ______ ____
ROOT
ATOM      1  O   UNL     1      29.879 -22.529 -16.936  0.00  0.00    -0.329 OA
ATOM      2  C   UNL     1      30.324 -24.602 -15.741  0.00  0.00    +0.140 C 
ATOM      3  C   UNL     1      28.870 -24.644 -15.270  0.00  0.00    +0.066 C 
ATOM      4  C   UNL     1      30.758 -23.156 -15.999  0.00  0.00    +0.145 C 
ATOM      5  C   UNL     1      27.965 -23.867 -16.221  0.00  0.00    +0.169 C 
ATOM      6  C   UNL     1      28.516 -22.469 -16.503  0.00  0.00    +0.260 C 
ATOM      7  C   UNL     1      32.168 -23.089 -16.580  0.00  0.00    +0.035 C 
ENDROOT
BRANCH   2   8
ATOM      8  O   UNL     1      31.160 -25.185 -14.747  0.00  0.00    -0.382 OA
ATOM      9  H   UNL     1      31.207 -24.594 -13.979  0.00  0.00    +0.210 HD
ENDBRANCH   2   8
BRANCH   5  10
ATOM     10  O   UNL     1      27.864 -24.566 -17.460  0.00  0.00    -0.379 OA
ATOM     11  H   UNL     1      27.597 -25.483 -17.294  0.00  0.00    +0.211 HD
ENDBRANCH   5  10
BRANCH   6  12
ATOM     12  O   UNL     1      28.353 -21.652 -15.348  0.00  0.00    -0.358 OA
ATOM     13  H   UNL     1      29.034 -20.960 -15.343  0.00  0.00    +0.213 HD
ENDBRANCH   6  12
TORSDOF 3
ENDMDL
MODEL 8
REMARK VINA RESULT:      -5.4      1.615      2.766
REMARK  Name = 448819
REMARK  3 active torsions:
REMARK  status: ('A' for Active; 'I' for Inactive)
REMARK    1  A    between atoms: C_2  and  O_8
REMARK    2  A    between atoms: C_5  and  O_10
REMARK    3  A    between atoms: C_6  and  O_12
REMARK                            x       y       z     vdW  Elec       q    Type
REMARK                         _______ _______ _______ _____ _____    ______ ____
ROOT
ATOM      1  O   UNL     1      38.268 -24.368 -14.169  0.00  0.00    -0.329 OA
ATOM      2  C   UNL     1      36.046 -24.791 -15.067  0.00  0.00    +0.140 C 
ATOM      3  C   UNL     1      36.340 -26.291 -15.092  0.00  0.00    +0.066 C 
ATOM      4  C   UNL     1      37.345 -23.991 -15.195  0.00  0.00    +0.145 C 
ATOM      5  C   UNL     1      37.414 -26.655 -14.072  0.00  0.00    +0.169 C 
ATOM      6  C   UNL     1      38.640 -25.750 -14.201  0.00  0.00    +0.260 C 
ATOM      7  C   UNL     1      37.097 -22.492 -15.057  0.00  0.00    +0.035 C 
ENDROOT
BRANCH   2   8
ATOM      8  O   UNL     1      35.172 -24.463 -16.142  0.00  0.00    -0.382 OA
ATOM      9  H   UNL     1      34.252 -24.522 -15.840  0.00  0.00    +0.210 HD
ENDBRANCH   2   8
BRANCH   5  10
ATOM     10  O   UNL     1      36.888 -26.508 -12.754  0.00  0.00    -0.379 OA
ATOM     11  H   UNL     1      37.055 -27.318 -12.248  0.00  0.00    +0.211 HD
ENDBRANCH   5  10
BRANCH   6  12
ATOM     12  O   UNL     1      39.357 -26.087 -15.385  0.00  0.00    -0.358 OA
ATOM     13  H   UNL     1      38.960 -26.874 -15.790  0.00  0.00    +0.213 HD
ENDBRANCH   6  12
TORSDOF 3
ENDMDL
MODEL 9
REMARK VINA RESULT:      -5.4      2.132      3.742
REMARK  Name = 448819
REMARK  3 active torsions:
REMARK  status: ('A' for Active; 'I' for Inactive)
REMARK    1  A    between atoms: C_2  and  O_8
REMARK    2  A    between atoms: C_5  and  O_10
REMARK    3  A    between atoms: C_6  and  O_12
REMARK                            x       y       z     vdW  Elec       q    Type
REMARK                         _______ _______ _______ _____ _____    ______ ____
ROOT
ATOM      1  O   UNL     1      35.965 -24.690 -15.561  0.00  0.00    -0.329 OA
ATOM      2  C   UNL     1      35.349 -23.878 -13.351  0.00  0.00    +0.140 C 
ATOM      3  C   UNL     1      36.257 -24.929 -12.711  0.00  0.00    +0.066 C 
ATOM      4  C   UNL     1      34.858 -24.361 -14.718  0.00  0.00    +0.145 C 
ATOM      5  C   UNL     1      37.363 -25.353 -13.671  0.00  0.00    +0.169 C 
ATOM      6  C   UNL     1      36.801 -25.730 -15.043  0.00  0.00    +0.260 C 
ATOM      7  C   UNL     1      34.042 -23.287 -15.433  0.00  0.00    +0.035 C 
ENDROOT
BRANCH   2   8
ATOM      8  O   UNL     1      34.235 -23.633 -12.499  0.00  0.00    -0.382 OA
ATOM      9  H   UNL     1      33.418 -23.660 -13.021  0.00  0.00    +0.210 HD
ENDBRANCH   2   8
BRANCH   5  10
ATOM     10  O   UNL     1      38.283 -24.277 -13.846  0.00  0.00    -0.379 OA
ATOM     11  H   UNL     1      38.212 -23.935 -14.750  0.00  0.00    +0.211 HD
ENDBRANCH   5  10
BRANCH   6  12
ATOM     12  O   UNL     1      36.117 -26.975 -14.951  0.00  0.00    -0.358 OA
ATOM     13  H   UNL     1      36.681 -27.622 -14.497  0.00  0.00    +0.213 HD
ENDBRANCH   6  12
TORSDOF 3
ENDMDL
