MODEL 1
REMARK VINA RESULT:      -5.8      0.000      0.000
REMARK  Name = 7111748
REMARK  4 active torsions:
REMARK  status: ('A' for Active; 'I' for Inactive)
REMARK    1  A    between atoms: CA_1  and  N_2
REMARK    2  A    between atoms: CA_1  and  C_8
REMARK    3  A    between atoms: CA_1  and  C_9
REMARK    4  A    between atoms: C_9  and  C_11
REMARK                            x       y       z     vdW  Elec       q    Type
REMARK                         _______ _______ _______ _____ _____    ______ ____
ROOT
ATOM      1  CA  UNL     1      35.040 -17.835 -22.299  0.00  0.00    +0.045 C 
ENDROOT
BRANCH   1   2
ATOM      2  N   UNL     1      35.667 -17.916 -23.656  0.00  0.00    +0.389 N 
ATOM      3  H1  UNL     1      35.382 -18.785 -24.110  0.00  0.00    -0.088 HD
ATOM      4  H2  UNL     1      36.683 -17.899 -23.563  0.00  0.00    -0.088 HD
ATOM      5  H3  UNL     1      35.363 -17.123 -24.220  0.00  0.00    -0.088 HD
ENDBRANCH   1   2
BRANCH   1   8
ATOM      6  O   UNL     1      34.797 -15.519 -22.697  0.00  0.00    -0.248 OA
ATOM      7  OXT UNL     1      35.030 -16.240 -20.540  0.00  0.00    -0.248 OA
ATOM      8  C   UNL     1      34.950 -16.387 -21.792  0.00  0.00    +0.345 C 
ENDBRANCH   1   8
BRANCH   1   9
ATOM      9  C   UNL     1      35.873 -18.721 -21.364  0.00  0.00    +0.022 C 
BRANCH   9  11
ATOM     10  S   UNL     1      35.835 -21.060 -19.900  0.00  0.00    -0.091 S 
ATOM     11  C   UNL     1      35.039 -19.791 -20.697  0.00  0.00    +0.006 C 
ATOM     12  C   UNL     1      33.684 -19.871 -20.650  0.00  0.00    +0.003 C 
ATOM     13  C   UNL     1      33.267 -21.026 -19.927  0.00  0.00    +0.007 C 
ATOM     14  C   UNL     1      34.335 -21.761 -19.464  0.00  0.00    +0.035 C 
ENDBRANCH   9  11
ENDBRANCH   1   9
TORSDOF 4
ENDMDL
MODEL 2
REMARK VINA RESULT:      -5.7      9.046      9.676
REMARK  Name = 7111748
REMARK  4 active torsions:
REMARK  status: ('A' for Active; 'I' for Inactive)
REMARK    1  A    between atoms: CA_1  and  N_2
REMARK    2  A    between atoms: CA_1  and  C_8
REMARK    3  A    between atoms: CA_1  and  C_9
REMARK    4  A    between atoms: C_9  and  C_11
REMARK                            x       y       z     vdW  Elec       q    Type
REMARK                         _______ _______ _______ _____ _____    ______ ____
ROOT
ATOM      1  CA  UNL     1      27.758 -22.831 -16.259  0.00  0.00    +0.045 C 
ENDROOT
BRANCH   1   2
ATOM      2  N   UNL     1      28.466 -23.157 -17.537  0.00  0.00    +0.389 N 
ATOM      3  H1  UNL     1      29.290 -22.561 -17.630  0.00  0.00    -0.088 HD
ATOM      4  H2  UNL     1      27.838 -22.992 -18.325  0.00  0.00    -0.088 HD
ATOM      5  H3  UNL     1      28.753 -24.135 -17.528  0.00  0.00    -0.088 HD
ENDBRANCH   1   2
BRANCH   1   8
ATOM      6  O   UNL     1      26.649 -21.125 -17.459  0.00  0.00    -0.248 OA
ATOM      7  OXT UNL     1      25.569 -22.102 -15.697  0.00  0.00    -0.248 OA
ATOM      8  C   UNL     1      26.537 -21.929 -16.490  0.00  0.00    +0.345 C 
ENDBRANCH   1   8
BRANCH   1   9
ATOM      9  C   UNL     1      28.787 -22.179 -15.327  0.00  0.00    +0.022 C 
BRANCH   9  11
ATOM     10  S   UNL     1      29.444 -24.777 -14.667  0.00  0.00    -0.091 S 
ATOM     11  C   UNL     1      29.864 -23.149 -14.895  0.00  0.00    +0.006 C 
ATOM     12  C   UNL     1      31.172 -22.875 -14.657  0.00  0.00    +0.003 C 
ATOM     13  C   UNL     1      31.876 -24.051 -14.268  0.00  0.00    +0.007 C 
ATOM     14  C   UNL     1      31.056 -25.157 -14.233  0.00  0.00    +0.035 C 
ENDBRANCH   9  11
ENDBRANCH   1   9
TORSDOF 4
ENDMDL
MODEL 3
REMARK VINA RESULT:      -5.7      8.503     10.015
REMARK  Name = 7111748
REMARK  4 active torsions:
REMARK  status: ('A' for Active; 'I' for Inactive)
REMARK    1  A    between atoms: CA_1  and  N_2
REMARK    2  A    between atoms: CA_1  and  C_8
REMARK    3  A    between atoms: CA_1  and  C_9
REMARK    4  A    between atoms: C_9  and  C_11
REMARK                            x       y       z     vdW  Elec       q    Type
REMARK                         _______ _______ _______ _____ _____    ______ ____
ROOT
ATOM      1  CA  UNL     1      38.835 -25.677 -14.790  0.00  0.00    +0.045 C 
ENDROOT
BRANCH   1   2
ATOM      2  N   UNL     1      38.184 -26.915 -14.257  0.00  0.00    +0.389 N 
ATOM      3  H1  UNL     1      37.282 -27.049 -14.715  0.00  0.00    -0.088 HD
ATOM      4  H2  UNL     1      38.043 -26.818 -13.251  0.00  0.00    -0.088 HD
ATOM      5  H3  UNL     1      38.782 -27.720 -14.441  0.00  0.00    -0.088 HD
ENDBRANCH   1   2
BRANCH   1   8
ATOM      6  O   UNL     1      40.904 -26.810 -14.664  0.00  0.00    -0.248 OA
ATOM      7  OXT UNL     1      40.868 -24.554 -14.295  0.00  0.00    -0.248 OA
ATOM      8  C   UNL     1      40.354 -25.678 -14.556  0.00  0.00    +0.345 C 
ENDBRANCH   1   8
BRANCH   1   9
ATOM      9  C   UNL     1      38.150 -24.481 -14.116  0.00  0.00    +0.022 C 
BRANCH   9  11
ATOM     10  S   UNL     1      35.608 -24.017 -15.082  0.00  0.00    -0.091 S 
ATOM     11  C   UNL     1      37.276 -23.707 -15.075  0.00  0.00    +0.006 C 
ATOM     12  C   UNL     1      37.667 -22.758 -15.965  0.00  0.00    +0.003 C 
ATOM     13  C   UNL     1      36.551 -22.254 -16.694  0.00  0.00    +0.007 C 
ATOM     14  C   UNL     1      35.371 -22.852 -16.314  0.00  0.00    +0.035 C 
ENDBRANCH   9  11
ENDBRANCH   1   9
TORSDOF 4
ENDMDL
MODEL 4
REMARK VINA RESULT:      -5.7      1.527      1.838
REMARK  Name = 7111748
REMARK  4 active torsions:
REMARK  status: ('A' for Active; 'I' for Inactive)
REMARK    1  A    between atoms: CA_1  and  N_2
REMARK    2  A    between atoms: CA_1  and  C_8
REMARK    3  A    between atoms: CA_1  and  C_9
REMARK    4  A    between atoms: C_9  and  C_11
REMARK                            x       y       z     vdW  Elec       q    Type
REMARK                         _______ _______ _______ _____ _____    ______ ____
ROOT
ATOM      1  CA  UNL     1      34.572 -18.145 -23.590  0.00  0.00    +0.045 C 
ENDROOT
BRANCH   1   2
ATOM      2  N   UNL     1      34.947 -19.391 -24.331  0.00  0.00    +0.389 N 
ATOM      3  H1  UNL     1      35.736 -19.195 -24.948  0.00  0.00    -0.088 HD
ATOM      4  H2  UNL     1      34.152 -19.708 -24.887  0.00  0.00    -0.088 HD
ATOM      5  H3  UNL     1      35.208 -20.117 -23.665  0.00  0.00    -0.088 HD
ENDBRANCH   1   2
BRANCH   1   8
ATOM      6  O   UNL     1      34.816 -16.972 -25.627  0.00  0.00    -0.248 OA
ATOM      7  OXT UNL     1      35.316 -15.892 -23.675  0.00  0.00    -0.248 OA
ATOM      8  C   UNL     1      34.942 -16.876 -24.373  0.00  0.00    +0.345 C 
ENDBRANCH   1   8
BRANCH   1   9
ATOM      9  C   UNL     1      35.270 -18.204 -22.226  0.00  0.00    +0.022 C 
BRANCH   9  11
ATOM     10  S   UNL     1      35.709 -20.341 -20.537  0.00  0.00    -0.091 S 
ATOM     11  C   UNL     1      34.669 -19.253 -21.320  0.00  0.00    +0.006 C 
ATOM     12  C   UNL     1      33.354 -19.445 -21.039  0.00  0.00    +0.003 C 
ATOM     13  C   UNL     1      33.178 -20.535 -20.139  0.00  0.00    +0.007 C 
ATOM     14  C   UNL     1      34.378 -21.112 -19.785  0.00  0.00    +0.035 C 
ENDBRANCH   9  11
ENDBRANCH   1   9
TORSDOF 4
ENDMDL
MODEL 5
REMARK VINA RESULT:      -5.7      3.714      4.995
REMARK  Name = 7111748
REMARK  4 active torsions:
REMARK  status: ('A' for Active; 'I' for Inactive)
REMARK    1  A    between atoms: CA_1  and  N_2
REMARK    2  A    between atoms: CA_1  and  C_8
REMARK    3  A    between atoms: CA_1  and  C_9
REMARK    4  A    between atoms: C_9  and  C_11
REMARK                            x       y       z     vdW  Elec       q    Type
REMARK                         _______ _______ _______ _____ _____    ______ ____
ROOT
ATOM      1  CA  UNL     1      33.700 -20.975 -20.395  0.00  0.00    +0.045 C 
ENDROOT
BRANCH   1   2
ATOM      2  N   UNL     1      32.545 -20.045 -20.189  0.00  0.00    +0.389 N 
ATOM      3  H1  UNL     1      31.988 -20.364 -19.396  0.00  0.00    -0.088 HD
ATOM      4  H2  UNL     1      31.964 -20.033 -21.029  0.00  0.00    -0.088 HD
ATOM      5  H3  UNL     1      32.894 -19.105 -20.004  0.00  0.00    -0.088 HD
ENDBRANCH   1   2
BRANCH   1   8
ATOM      6  O   UNL     1      34.919 -22.562 -19.139  0.00  0.00    -0.248 OA
ATOM      7  OXT UNL     1      32.693 -22.289 -18.693  0.00  0.00    -0.248 OA
ATOM      8  C   UNL     1      33.774 -22.052 -19.301  0.00  0.00    +0.345 C 
ENDBRANCH   1   8
BRANCH   1   9
ATOM      9  C   UNL     1      34.968 -20.114 -20.442  0.00  0.00    +0.022 C 
BRANCH   9  11
ATOM     10  S   UNL     1      35.079 -17.476 -21.240  0.00  0.00    -0.091 S 
ATOM     11  C   UNL     1      34.951 -19.131 -21.590  0.00  0.00    +0.006 C 
ATOM     12  C   UNL     1      34.841 -19.411 -22.914  0.00  0.00    +0.003 C 
ATOM     13  C   UNL     1      34.863 -18.216 -23.691  0.00  0.00    +0.007 C 
ATOM     14  C   UNL     1      34.988 -17.091 -22.906  0.00  0.00    +0.035 C 
ENDBRANCH   9  11
ENDBRANCH   1   9
TORSDOF 4
ENDMDL
MODEL 6
REMARK VINA RESULT:      -5.7      1.567      1.916
REMARK  Name = 7111748
REMARK  4 active torsions:
REMARK  status: ('A' for Active; 'I' for Inactive)
REMARK    1  A    between atoms: CA_1  and  N_2
REMARK    2  A    between atoms: CA_1  and  C_8
REMARK    3  A    between atoms: CA_1  and  C_9
REMARK    4  A    between atoms: C_9  and  C_11
REMARK                            x       y       z     vdW  Elec       q    Type
REMARK                         _______ _______ _______ _____ _____    ______ ____
ROOT
ATOM      1  CA  UNL     1      35.199 -17.980 -21.544  0.00  0.00    +0.045 C 
ENDROOT
BRANCH   1   2
ATOM      2  N   UNL     1      35.056 -16.855 -20.566  0.00  0.00    +0.389 N 
ATOM      3  H1  UNL     1      34.096 -16.509 -20.584  0.00  0.00    -0.088 HD
ATOM      4  H2  UNL     1      35.694 -16.100 -20.822  0.00  0.00    -0.088 HD
ATOM      5  H3  UNL     1      35.280 -17.188 -19.629  0.00  0.00    -0.088 HD
ENDBRANCH   1   2
BRANCH   1   8
ATOM      6  O   UNL     1      35.469 -16.215 -23.092  0.00  0.00    -0.248 OA
ATOM      7  OXT UNL     1      35.512 -18.367 -23.866  0.00  0.00    -0.248 OA
ATOM      8  C   UNL     1      35.411 -17.473 -22.979  0.00  0.00    +0.345 C 
ENDBRANCH   1   8
BRANCH   1   9
ATOM      9  C   UNL     1      33.939 -18.846 -21.421  0.00  0.00    +0.022 C 
BRANCH   9  11
ATOM     10  S   UNL     1      35.759 -20.608 -20.327  0.00  0.00    -0.091 S 
ATOM     11  C   UNL     1      34.167 -20.071 -20.564  0.00  0.00    +0.006 C 
ATOM     12  C   UNL     1      33.228 -20.824 -19.936  0.00  0.00    +0.003 C 
ATOM     13  C   UNL     1      33.833 -21.899 -19.221  0.00  0.00    +0.007 C 
ATOM     14  C   UNL     1      35.204 -21.899 -19.349  0.00  0.00    +0.035 C 
ENDBRANCH   9  11
ENDBRANCH   1   9
TORSDOF 4
ENDMDL
MODEL 7
REMARK VINA RESULT:      -5.6      4.445      5.226
REMARK  Name = 7111748
REMARK  4 active torsions:
REMARK  status: ('A' for Active; 'I' for Inactive)
REMARK    1  A    between atoms: CA_1  and  N_2
REMARK    2  A    between atoms: CA_1  and  C_8
REMARK    3  A    between atoms: CA_1  and  C_9
REMARK    4  A    between atoms: C_9  and  C_11
REMARK                            x       y       z     vdW  Elec       q    Type
REMARK                         _______ _______ _______ _____ _____    ______ ____
ROOT
ATOM      1  CA  UNL     1      34.855 -17.305 -23.515  0.00  0.00    +0.045 C 
ENDROOT
BRANCH   1   2
ATOM      2  N   UNL     1      36.119 -17.891 -22.967  0.00  0.00    +0.389 N 
ATOM      3  H1  UNL     1      36.822 -17.157 -22.877  0.00  0.00    -0.088 HD
ATOM      4  H2  UNL     1      36.461 -18.614 -23.601  0.00  0.00    -0.088 HD
ATOM      5  H3  UNL     1      35.935 -18.301 -22.052  0.00  0.00    -0.088 HD
ENDBRANCH   1   2
BRANCH   1   8
ATOM      6  O   UNL     1      34.181 -18.993 -25.025  0.00  0.00    -0.248 OA
ATOM      7  OXT UNL     1      34.737 -16.937 -25.858  0.00  0.00    -0.248 OA
ATOM      8  C   UNL     1      34.566 -17.791 -24.944  0.00  0.00    +0.345 C 
ENDBRANCH   1   8
BRANCH   1   9
ATOM      9  C   UNL     1      34.998 -15.780 -23.445  0.00  0.00    +0.022 C 
BRANCH   9  11
ATOM     10  S   UNL     1      33.021 -13.916 -22.965  0.00  0.00    -0.091 S 
ATOM     11  C   UNL     1      34.049 -15.161 -22.444  0.00  0.00    +0.006 C 
ATOM     12  C   UNL     1      33.908 -15.484 -21.133  0.00  0.00    +0.003 C 
ATOM     13  C   UNL     1      32.909 -14.678 -20.514  0.00  0.00    +0.007 C 
ATOM     14  C   UNL     1      32.346 -13.784 -21.397  0.00  0.00    +0.035 C 
ENDBRANCH   9  11
ENDBRANCH   1   9
TORSDOF 4
ENDMDL
MODEL 8
REMARK VINA RESULT:      -5.6      3.341      4.796
REMARK  Name = 7111748
REMARK  4 active torsions:
REMARK  status: ('A' for Active; 'I' for Inactive)
REMARK    1  A    between atoms: CA_1  and  N_2
REMARK    2  A    between atoms: CA_1  and  C_8
REMARK    3  A    between atoms: CA_1  and  C_9
REMARK    4  A    between atoms: C_9  and  C_11
REMARK                            x       y       z     vdW  Elec       q    Type
REMARK                         _______ _______ _______ _____ _____    ______ ____
ROOT
ATOM      1  CA  UNL     1      34.751 -19.946 -21.100  0.00  0.00    +0.045 C 
ENDROOT
BRANCH   1   2
ATOM      2  N   UNL     1      33.356 -19.993 -20.558  0.00  0.00    +0.389 N 
ATOM      3  H1  UNL     1      33.337 -20.568 -19.715  0.00  0.00    -0.088 HD
ATOM      4  H2  UNL     1      32.733 -20.396 -21.259  0.00  0.00    -0.088 HD
ATOM      5  H3  UNL     1      33.046 -19.048 -20.332  0.00  0.00    -0.088 HD
ENDBRANCH   1   2
BRANCH   1   8
ATOM      6  O   UNL     1      36.702 -19.878 -19.770  0.00  0.00    -0.248 OA
ATOM      7  OXT UNL     1      35.518 -21.831 -19.876  0.00  0.00    -0.248 OA
ATOM      8  C   UNL     1      35.758 -20.623 -20.157  0.00  0.00    +0.345 C 
ENDBRANCH   1   8
BRANCH   1   9
ATOM      9  C   UNL     1      35.091 -18.470 -21.341  0.00  0.00    +0.022 C 
BRANCH   9  11
ATOM     10  S   UNL     1      34.947 -16.417 -23.178  0.00  0.00    -0.091 S 
ATOM     11  C   UNL     1      34.900 -18.066 -22.785  0.00  0.00    +0.006 C 
ATOM     12  C   UNL     1      34.687 -18.884 -23.848  0.00  0.00    +0.003 C 
ATOM     13  C   UNL     1      34.555 -18.131 -25.051  0.00  0.00    +0.007 C 
ATOM     14  C   UNL     1      34.675 -16.778 -24.830  0.00  0.00    +0.035 C 
ENDBRANCH   9  11
ENDBRANCH   1   9
TORSDOF 4
ENDMDL
MODEL 9
REMARK VINA RESULT:      -5.5      3.164      4.767
REMARK  Name = 7111748
REMARK  4 active torsions:
REMARK  status: ('A' for Active; 'I' for Inactive)
REMARK    1  A    between atoms: CA_1  and  N_2
REMARK    2  A    between atoms: CA_1  and  C_8
REMARK    3  A    between atoms: CA_1  and  C_9
REMARK    4  A    between atoms: C_9  and  C_11
REMARK                            x       y       z     vdW  Elec       q    Type
REMARK                         _______ _______ _______ _____ _____    ______ ____
ROOT
ATOM      1  CA  UNL     1      34.842 -19.189 -21.086  0.00  0.00    +0.045 C 
ENDROOT
BRANCH   1   2
ATOM      2  N   UNL     1      36.189 -19.323 -20.446  0.00  0.00    +0.389 N 
ATOM      3  H1  UNL     1      36.833 -19.768 -21.100  0.00  0.00    -0.088 HD
ATOM      4  H2  UNL     1      36.109 -19.896 -19.605  0.00  0.00    -0.088 HD
ATOM      5  H3  UNL     1      36.541 -18.399 -20.196  0.00  0.00    -0.088 HD
ENDBRANCH   1   2
BRANCH   1   8
ATOM      6  O   UNL     1      32.626 -19.978 -20.863  0.00  0.00    -0.248 OA
ATOM      7  OXT UNL     1      34.287 -21.034 -19.699  0.00  0.00    -0.248 OA
ATOM      8  C   UNL     1      33.818 -20.164 -20.485  0.00  0.00    +0.345 C 
ENDBRANCH   1   8
BRANCH   1   9
ATOM      9  C   UNL     1      35.034 -19.413 -22.591  0.00  0.00    +0.022 C 
BRANCH   9  11
ATOM     10  S   UNL     1      34.752 -16.668 -22.566  0.00  0.00    -0.091 S 
ATOM     11  C   UNL     1      34.814 -18.149 -23.391  0.00  0.00    +0.006 C 
ATOM     12  C   UNL     1      34.654 -18.041 -24.735  0.00  0.00    +0.003 C 
ATOM     13  C   UNL     1      34.470 -16.681 -25.119  0.00  0.00    +0.007 C 
ATOM     14  C   UNL     1      34.502 -15.830 -24.038  0.00  0.00    +0.035 C 
ENDBRANCH   9  11
ENDBRANCH   1   9
TORSDOF 4
ENDMDL
