MODEL 1
REMARK VINA RESULT:      -8.7      0.000      0.000
REMARK  Name = 657237
REMARK  5 active torsions:
REMARK  status: ('A' for Active; 'I' for Inactive)
REMARK    1  A    between atoms: N_2  and  C1*_13
REMARK    2  A    between atoms: C2*_12  and  O2*_16
REMARK    3  A    between atoms: C3*_14  and  O3*_18
REMARK    4  A    between atoms: C4*_15  and  C5*_20
REMARK    5  A    between atoms: C5*_20  and  O5*_21
REMARK                            x       y       z     vdW  Elec       q    Type
REMARK                         _______ _______ _______ _____ _____    ______ ____
ROOT
ATOM      1  F   UNL     1      31.488 -23.720 -16.687  0.00  0.00    -0.098 F 
ATOM      2  N   UNL     1      36.074 -23.190 -15.853  0.00  0.00    -0.236 N 
ATOM      3  N   UNL     1      36.460 -22.045 -17.733  0.00  0.00    -0.240 NA
ATOM      4  N   UNL     1      33.686 -23.576 -16.092  0.00  0.00    -0.300 NA
ATOM      5  N   UNL     1      32.828 -22.598 -18.158  0.00  0.00    -0.301 NA
ATOM      6  C   UNL     1      34.869 -23.090 -16.497  0.00  0.00    +0.222 C 
ATOM      7  C   UNL     1      36.997 -22.545 -16.639  0.00  0.00    +0.224 C 
ATOM      8  C   UNL     1      35.132 -22.378 -17.657  0.00  0.00    +0.167 C 
ATOM      9  C   UNL     1      34.054 -22.136 -18.503  0.00  0.00    +0.213 C 
ATOM     10  C   UNL     1      32.722 -23.279 -16.991  0.00  0.00    +0.300 C 
ATOM     11  N   UNL     1      34.228 -21.421 -19.700  0.00  0.00    -0.331 N 
ATOM     12  H   UNL     1      33.458 -21.255 -20.291  0.00  0.00    +0.145 HD
ATOM     13  H   UNL     1      35.119 -21.084 -19.948  0.00  0.00    +0.145 HD
ENDROOT
BRANCH   2  16
ATOM     14  O4* UNL     1      37.692 -23.615 -14.158  0.00  0.00    -0.333 OA
ATOM     15  C2* UNL     1      36.134 -25.365 -14.569  0.00  0.00    +0.187 C 
ATOM     16  C1* UNL     1      36.337 -23.853 -14.580  0.00  0.00    +0.226 C 
ATOM     17  C3* UNL     1      37.006 -25.777 -13.401  0.00  0.00    +0.171 C 
ATOM     18  C4* UNL     1      38.161 -24.774 -13.440  0.00  0.00    +0.175 C 
BRANCH  15  19
ATOM     19  O2* UNL     1      36.630 -25.960 -15.761  0.00  0.00    -0.378 OA
ATOM     20  H2* UNL     1      36.809 -25.268 -16.418  0.00  0.00    +0.211 HD
ENDBRANCH  15  19
BRANCH  17  21
ATOM     21  O3* UNL     1      36.261 -25.590 -12.199  0.00  0.00    -0.379 OA
ATOM     22  H3* UNL     1      35.404 -25.186 -12.409  0.00  0.00    +0.211 HD
ENDBRANCH  17  21
BRANCH  18  23
ATOM     23  C5* UNL     1      39.393 -25.303 -14.161  0.00  0.00    +0.169 C 
BRANCH  23  24
ATOM     24  O5* UNL     1      39.178 -26.665 -14.488  0.00  0.00    -0.379 OA
ATOM     25  H5* UNL     1      39.107 -26.759 -15.450  0.00  0.00    +0.211 HD
ENDBRANCH  23  24
ENDBRANCH  18  23
ENDBRANCH   2  16
TORSDOF 5
ENDMDL
MODEL 2
REMARK VINA RESULT:      -8.5      1.578      1.843
REMARK  Name = 657237
REMARK  5 active torsions:
REMARK  status: ('A' for Active; 'I' for Inactive)
REMARK    1  A    between atoms: N_2  and  C1*_13
REMARK    2  A    between atoms: C2*_12  and  O2*_16
REMARK    3  A    between atoms: C3*_14  and  O3*_18
REMARK    4  A    between atoms: C4*_15  and  C5*_20
REMARK    5  A    between atoms: C5*_20  and  O5*_21
REMARK                            x       y       z     vdW  Elec       q    Type
REMARK                         _______ _______ _______ _____ _____    ______ ____
ROOT
ATOM      1  F   UNL     1      31.541 -24.636 -13.783  0.00  0.00    -0.098 F 
ATOM      2  N   UNL     1      35.946 -23.496 -14.926  0.00  0.00    -0.236 N 
ATOM      3  N   UNL     1      35.409 -22.761 -16.968  0.00  0.00    -0.240 NA
ATOM      4  N   UNL     1      33.742 -24.153 -14.136  0.00  0.00    -0.300 NA
ATOM      5  N   UNL     1      32.031 -23.742 -15.827  0.00  0.00    -0.301 NA
ATOM      6  C   UNL     1      34.591 -23.656 -15.049  0.00  0.00    +0.222 C 
ATOM      7  C   UNL     1      36.388 -22.954 -16.108  0.00  0.00    +0.224 C 
ATOM      8  C   UNL     1      34.281 -23.196 -16.319  0.00  0.00    +0.167 C 
ATOM      9  C   UNL     1      32.943 -23.252 -16.700  0.00  0.00    +0.213 C 
ATOM     10  C   UNL     1      32.480 -24.156 -14.618  0.00  0.00    +0.300 C 
ATOM     11  N   UNL     1      32.538 -22.804 -17.969  0.00  0.00    -0.331 N 
ATOM     12  H   UNL     1      31.589 -22.848 -18.226  0.00  0.00    +0.145 HD
ATOM     13  H   UNL     1      33.203 -22.447 -18.601  0.00  0.00    +0.145 HD
ENDROOT
BRANCH   2  16
ATOM     14  O4* UNL     1      38.166 -23.719 -14.094  0.00  0.00    -0.333 OA
ATOM     15  C2* UNL     1      36.563 -25.233 -13.200  0.00  0.00    +0.187 C 
ATOM     16  C1* UNL     1      36.768 -23.833 -13.770  0.00  0.00    +0.226 C 
ATOM     17  C3* UNL     1      37.877 -25.460 -12.480  0.00  0.00    +0.171 C 
ATOM     18  C4* UNL     1      38.895 -24.709 -13.341  0.00  0.00    +0.175 C 
BRANCH  15  19
ATOM     19  O2* UNL     1      36.420 -26.195 -14.237  0.00  0.00    -0.378 OA
ATOM     20  H2* UNL     1      36.380 -25.743 -15.094  0.00  0.00    +0.211 HD
ENDBRANCH  15  19
BRANCH  17  21
ATOM     21  O3* UNL     1      37.797 -24.842 -11.197  0.00  0.00    -0.379 OA
ATOM     22  H3* UNL     1      36.884 -24.564 -11.028  0.00  0.00    +0.211 HD
ENDBRANCH  17  21
BRANCH  18  23
ATOM     23  C5* UNL     1      39.624 -25.606 -14.331  0.00  0.00    +0.169 C 
BRANCH  23  24
ATOM     24  O5* UNL     1      40.914 -25.067 -14.567  0.00  0.00    -0.379 OA
ATOM     25  H5* UNL     1      41.483 -25.750 -14.952  0.00  0.00    +0.211 HD
ENDBRANCH  23  24
ENDBRANCH  18  23
ENDBRANCH   2  16
TORSDOF 5
ENDMDL
MODEL 3
REMARK VINA RESULT:      -8.4      1.759      3.131
REMARK  Name = 657237
REMARK  5 active torsions:
REMARK  status: ('A' for Active; 'I' for Inactive)
REMARK    1  A    between atoms: N_2  and  C1*_13
REMARK    2  A    between atoms: C2*_12  and  O2*_16
REMARK    3  A    between atoms: C3*_14  and  O3*_18
REMARK    4  A    between atoms: C4*_15  and  C5*_20
REMARK    5  A    between atoms: C5*_20  and  O5*_21
REMARK                            x       y       z     vdW  Elec       q    Type
REMARK                         _______ _______ _______ _____ _____    ______ ____
ROOT
ATOM      1  F   UNL     1      33.963 -22.070 -19.554  0.00  0.00    -0.098 F 
ATOM      2  N   UNL     1      34.638 -24.118 -15.387  0.00  0.00    -0.236 N 
ATOM      3  N   UNL     1      32.491 -23.979 -14.778  0.00  0.00    -0.240 NA
ATOM      4  N   UNL     1      34.506 -23.082 -17.583  0.00  0.00    -0.300 NA
ATOM      5  N   UNL     1      32.224 -22.395 -18.109  0.00  0.00    -0.301 NA
ATOM      6  C   UNL     1      33.981 -23.512 -16.426  0.00  0.00    +0.222 C 
ATOM      7  C   UNL     1      33.696 -24.378 -14.422  0.00  0.00    +0.224 C 
ATOM      8  C   UNL     1      32.656 -23.436 -16.027  0.00  0.00    +0.167 C 
ATOM      9  C   UNL     1      31.762 -22.851 -16.920  0.00  0.00    +0.213 C 
ATOM     10  C   UNL     1      33.548 -22.537 -18.362  0.00  0.00    +0.300 C 
ATOM     11  N   UNL     1      30.399 -22.735 -16.599  0.00  0.00    -0.331 N 
ATOM     12  H   UNL     1      29.777 -22.320 -17.239  0.00  0.00    +0.145 HD
ATOM     13  H   UNL     1      30.066 -23.069 -15.735  0.00  0.00    +0.145 HD
ENDROOT
BRANCH   2  16
ATOM     14  O4* UNL     1      36.266 -25.699 -14.666  0.00  0.00    -0.333 OA
ATOM     15  C2* UNL     1      36.918 -23.414 -14.561  0.00  0.00    +0.187 C 
ATOM     16  C1* UNL     1      36.061 -24.429 -15.310  0.00  0.00    +0.226 C 
ATOM     17  C3* UNL     1      38.110 -24.261 -14.163  0.00  0.00    +0.171 C 
ATOM     18  C4* UNL     1      37.505 -25.647 -13.931  0.00  0.00    +0.175 C 
BRANCH  15  19
ATOM     19  O2* UNL     1      36.259 -22.947 -13.390  0.00  0.00    -0.378 OA
ATOM     20  H2* UNL     1      36.244 -23.653 -12.725  0.00  0.00    +0.211 HD
ENDBRANCH  15  19
BRANCH  17  21
ATOM     21  O3* UNL     1      39.007 -24.318 -15.271  0.00  0.00    -0.379 OA
ATOM     22  H3* UNL     1      39.185 -23.420 -15.590  0.00  0.00    +0.211 HD
ENDBRANCH  17  21
BRANCH  18  23
ATOM     23  C5* UNL     1      37.194 -25.931 -12.469  0.00  0.00    +0.169 C 
BRANCH  23  24
ATOM     24  O5* UNL     1      35.869 -25.508 -12.196  0.00  0.00    -0.379 OA
ATOM     25  H5* UNL     1      35.645 -24.758 -12.768  0.00  0.00    +0.211 HD
ENDBRANCH  23  24
ENDBRANCH  18  23
ENDBRANCH   2  16
TORSDOF 5
ENDMDL
MODEL 4
REMARK VINA RESULT:      -8.0      1.705      2.286
REMARK  Name = 657237
REMARK  5 active torsions:
REMARK  status: ('A' for Active; 'I' for Inactive)
REMARK    1  A    between atoms: N_2  and  C1*_13
REMARK    2  A    between atoms: C2*_12  and  O2*_16
REMARK    3  A    between atoms: C3*_14  and  O3*_18
REMARK    4  A    between atoms: C4*_15  and  C5*_20
REMARK    5  A    between atoms: C5*_20  and  O5*_21
REMARK                            x       y       z     vdW  Elec       q    Type
REMARK                         _______ _______ _______ _____ _____    ______ ____
ROOT
ATOM      1  F   UNL     1      30.506 -24.135 -14.826  0.00  0.00    -0.098 F 
ATOM      2  N   UNL     1      35.193 -24.014 -14.998  0.00  0.00    -0.236 N 
ATOM      3  N   UNL     1      35.266 -22.992 -16.985  0.00  0.00    -0.240 NA
ATOM      4  N   UNL     1      32.784 -24.178 -14.711  0.00  0.00    -0.300 NA
ATOM      5  N   UNL     1      31.594 -23.211 -16.610  0.00  0.00    -0.301 NA
ATOM      6  C   UNL     1      33.892 -23.826 -15.382  0.00  0.00    +0.222 C 
ATOM      7  C   UNL     1      35.979 -23.495 -15.997  0.00  0.00    +0.224 C 
ATOM      8  C   UNL     1      33.961 -23.193 -16.613  0.00  0.00    +0.167 C 
ATOM      9  C   UNL     1      32.753 -22.884 -17.231  0.00  0.00    +0.213 C 
ATOM     10  C   UNL     1      31.680 -23.828 -15.407  0.00  0.00    +0.300 C 
ATOM     11  N   UNL     1      32.728 -22.241 -18.480  0.00  0.00    -0.331 N 
ATOM     12  H   UNL     1      31.867 -22.027 -18.907  0.00  0.00    +0.145 HD
ATOM     13  H   UNL     1      33.572 -22.003 -18.928  0.00  0.00    +0.145 HD
ENDROOT
BRANCH   2  16
ATOM     14  O4* UNL     1      35.499 -23.754 -12.650  0.00  0.00    -0.333 OA
ATOM     15  C2* UNL     1      37.125 -25.081 -13.769  0.00  0.00    +0.187 C 
ATOM     16  C1* UNL     1      35.663 -24.644 -13.769  0.00  0.00    +0.226 C 
ATOM     17  C3* UNL     1      37.428 -25.118 -12.285  0.00  0.00    +0.171 C 
ATOM     18  C4* UNL     1      36.567 -23.991 -11.712  0.00  0.00    +0.175 C 
BRANCH  15  19
ATOM     19  O2* UNL     1      37.952 -24.110 -14.396  0.00  0.00    -0.378 OA
ATOM     20  H2* UNL     1      38.870 -24.228 -14.102  0.00  0.00    +0.211 HD
ENDBRANCH  15  19
BRANCH  17  21
ATOM     21  O3* UNL     1      36.974 -26.367 -11.767  0.00  0.00    -0.379 OA
ATOM     22  H3* UNL     1      36.995 -27.036 -12.469  0.00  0.00    +0.211 HD
ENDBRANCH  17  21
BRANCH  18  23
ATOM     23  C5* UNL     1      37.329 -22.685 -11.532  0.00  0.00    +0.169 C 
BRANCH  23  24
ATOM     24  O5* UNL     1      38.717 -22.952 -11.626  0.00  0.00    -0.379 OA
ATOM     25  H5* UNL     1      39.131 -22.816 -10.760  0.00  0.00    +0.211 HD
ENDBRANCH  23  24
ENDBRANCH  18  23
ENDBRANCH   2  16
TORSDOF 5
ENDMDL
MODEL 5
REMARK VINA RESULT:      -8.0      1.865      2.688
REMARK  Name = 657237
REMARK  5 active torsions:
REMARK  status: ('A' for Active; 'I' for Inactive)
REMARK    1  A    between atoms: N_2  and  C1*_13
REMARK    2  A    between atoms: C2*_12  and  O2*_16
REMARK    3  A    between atoms: C3*_14  and  O3*_18
REMARK    4  A    between atoms: C4*_15  and  C5*_20
REMARK    5  A    between atoms: C5*_20  and  O5*_21
REMARK                            x       y       z     vdW  Elec       q    Type
REMARK                         _______ _______ _______ _____ _____    ______ ____
ROOT
ATOM      1  F   UNL     1      37.041 -21.627 -18.851  0.00  0.00    -0.098 F 
ATOM      2  N   UNL     1      35.638 -23.416 -14.747  0.00  0.00    -0.236 N 
ATOM      3  N   UNL     1      33.515 -23.686 -15.394  0.00  0.00    -0.240 NA
ATOM      4  N   UNL     1      36.569 -22.472 -16.785  0.00  0.00    -0.300 NA
ATOM      5  N   UNL     1      34.869 -22.254 -18.523  0.00  0.00    -0.301 NA
ATOM      6  C   UNL     1      35.570 -22.972 -16.041  0.00  0.00    +0.222 C 
ATOM      7  C   UNL     1      34.375 -23.834 -14.407  0.00  0.00    +0.224 C 
ATOM      8  C   UNL     1      34.249 -23.147 -16.421  0.00  0.00    +0.167 C 
ATOM      9  C   UNL     1      33.910 -22.766 -17.715  0.00  0.00    +0.213 C 
ATOM     10  C   UNL     1      36.120 -22.141 -18.015  0.00  0.00    +0.300 C 
ATOM     11  N   UNL     1      32.594 -22.911 -18.186  0.00  0.00    -0.331 N 
ATOM     12  H   UNL     1      32.366 -22.639 -19.104  0.00  0.00    +0.145 HD
ATOM     13  H   UNL     1      31.899 -23.286 -17.597  0.00  0.00    +0.145 HD
ENDROOT
BRANCH   2  16
ATOM     14  O4* UNL     1      37.967 -23.893 -14.624  0.00  0.00    -0.333 OA
ATOM     15  C2* UNL     1      36.712 -24.329 -12.651  0.00  0.00    +0.187 C 
ATOM     16  C1* UNL     1      36.816 -23.442 -13.888  0.00  0.00    +0.226 C 
ATOM     17  C3* UNL     1      38.172 -24.594 -12.346  0.00  0.00    +0.171 C 
ATOM     18  C4* UNL     1      38.829 -24.623 -13.728  0.00  0.00    +0.175 C 
BRANCH  15  19
ATOM     19  O2* UNL     1      36.062 -25.557 -12.952  0.00  0.00    -0.378 OA
ATOM     20  H2* UNL     1      35.145 -25.381 -13.220  0.00  0.00    +0.211 HD
ENDBRANCH  15  19
BRANCH  17  21
ATOM     21  O3* UNL     1      38.682 -23.487 -11.605  0.00  0.00    -0.379 OA
ATOM     22  H3* UNL     1      38.956 -23.787 -10.724  0.00  0.00    +0.211 HD
ENDBRANCH  17  21
BRANCH  18  23
ATOM     23  C5* UNL     1      38.998 -26.029 -14.285  0.00  0.00    +0.169 C 
BRANCH  23  24
ATOM     24  O5* UNL     1      38.081 -26.210 -15.349  0.00  0.00    -0.379 OA
ATOM     25  H5* UNL     1      37.319 -26.721 -15.036  0.00  0.00    +0.211 HD
ENDBRANCH  23  24
ENDBRANCH  18  23
ENDBRANCH   2  16
TORSDOF 5
ENDMDL
MODEL 6
REMARK VINA RESULT:      -7.9      1.901      3.081
REMARK  Name = 657237
REMARK  5 active torsions:
REMARK  status: ('A' for Active; 'I' for Inactive)
REMARK    1  A    between atoms: N_2  and  C1*_13
REMARK    2  A    between atoms: C2*_12  and  O2*_16
REMARK    3  A    between atoms: C3*_14  and  O3*_18
REMARK    4  A    between atoms: C4*_15  and  C5*_20
REMARK    5  A    between atoms: C5*_20  and  O5*_21
REMARK                            x       y       z     vdW  Elec       q    Type
REMARK                         _______ _______ _______ _____ _____    ______ ____
ROOT
ATOM      1  F   UNL     1      34.489 -22.571 -18.864  0.00  0.00    -0.098 F 
ATOM      2  N   UNL     1      33.987 -23.892 -14.391  0.00  0.00    -0.236 N 
ATOM      3  N   UNL     1      31.760 -23.705 -14.404  0.00  0.00    -0.240 NA
ATOM      4  N   UNL     1      34.467 -23.234 -16.681  0.00  0.00    -0.300 NA
ATOM      5  N   UNL     1      32.422 -22.694 -17.900  0.00  0.00    -0.301 NA
ATOM      6  C   UNL     1      33.643 -23.480 -15.651  0.00  0.00    +0.222 C 
ATOM      7  C   UNL     1      32.817 -24.012 -13.682  0.00  0.00    +0.224 C 
ATOM      8  C   UNL     1      32.262 -23.370 -15.637  0.00  0.00    +0.167 C 
ATOM      9  C   UNL     1      31.651 -22.960 -16.818  0.00  0.00    +0.213 C 
ATOM     10  C   UNL     1      33.762 -22.846 -17.766  0.00  0.00    +0.300 C 
ATOM     11  N   UNL     1      30.255 -22.824 -16.895  0.00  0.00    -0.331 N 
ATOM     12  H   UNL     1      29.834 -22.534 -17.736  0.00  0.00    +0.145 HD
ATOM     13  H   UNL     1      29.696 -23.020 -16.108  0.00  0.00    +0.145 HD
ENDROOT
BRANCH   2  16
ATOM     14  O4* UNL     1      36.207 -23.053 -14.193  0.00  0.00    -0.333 OA
ATOM     15  C2* UNL     1      36.004 -25.412 -14.429  0.00  0.00    +0.187 C 
ATOM     16  C1* UNL     1      35.332 -24.153 -13.889  0.00  0.00    +0.226 C 
ATOM     17  C3* UNL     1      37.469 -25.085 -14.216  0.00  0.00    +0.171 C 
ATOM     18  C4* UNL     1      37.534 -23.570 -14.420  0.00  0.00    +0.175 C 
BRANCH  15  19
ATOM     19  O2* UNL     1      35.754 -25.573 -15.819  0.00  0.00    -0.378 OA
ATOM     20  H2* UNL     1      36.533 -25.963 -16.245  0.00  0.00    +0.211 HD
ENDBRANCH  15  19
BRANCH  17  21
ATOM     21  O3* UNL     1      37.803 -25.393 -12.864  0.00  0.00    -0.379 OA
ATOM     22  H3* UNL     1      38.750 -25.596 -12.803  0.00  0.00    +0.211 HD
ENDBRANCH  17  21
BRANCH  18  23
ATOM     23  C5* UNL     1      37.957 -23.170 -15.827  0.00  0.00    +0.169 C 
BRANCH  23  24
ATOM     24  O5* UNL     1      37.151 -22.084 -16.252  0.00  0.00    -0.379 OA
ATOM     25  H5* UNL     1      37.670 -21.504 -16.829  0.00  0.00    +0.211 HD
ENDBRANCH  23  24
ENDBRANCH  18  23
ENDBRANCH   2  16
TORSDOF 5
ENDMDL
MODEL 7
REMARK VINA RESULT:      -7.9      2.409      3.841
REMARK  Name = 657237
REMARK  5 active torsions:
REMARK  status: ('A' for Active; 'I' for Inactive)
REMARK    1  A    between atoms: N_2  and  C1*_13
REMARK    2  A    between atoms: C2*_12  and  O2*_16
REMARK    3  A    between atoms: C3*_14  and  O3*_18
REMARK    4  A    between atoms: C4*_15  and  C5*_20
REMARK    5  A    between atoms: C5*_20  and  O5*_21
REMARK                            x       y       z     vdW  Elec       q    Type
REMARK                         _______ _______ _______ _____ _____    ______ ____
ROOT
ATOM      1  F   UNL     1      30.455 -24.579 -12.871  0.00  0.00    -0.098 F 
ATOM      2  N   UNL     1      33.598 -23.708 -16.243  0.00  0.00    -0.236 N 
ATOM      3  N   UNL     1      32.116 -22.755 -17.619  0.00  0.00    -0.240 NA
ATOM      4  N   UNL     1      32.136 -24.249 -14.378  0.00  0.00    -0.300 NA
ATOM      5  N   UNL     1      29.838 -23.552 -14.816  0.00  0.00    -0.301 NA
ATOM      6  C   UNL     1      32.392 -23.745 -15.595  0.00  0.00    +0.222 C 
ATOM      7  C   UNL     1      33.376 -23.102 -17.455  0.00  0.00    +0.224 C 
ATOM      8  C   UNL     1      31.490 -23.151 -16.464  0.00  0.00    +0.167 C 
ATOM      9  C   UNL     1      30.169 -23.063 -16.035  0.00  0.00    +0.213 C 
ATOM     10  C   UNL     1      30.828 -24.106 -14.074  0.00  0.00    +0.300 C 
ATOM     11  N   UNL     1      29.187 -22.474 -16.851  0.00  0.00    -0.331 N 
ATOM     12  H   UNL     1      28.256 -22.417 -16.537  0.00  0.00    +0.145 HD
ATOM     13  H   UNL     1      29.431 -22.118 -17.736  0.00  0.00    +0.145 HD
ENDROOT
BRANCH   2  16
ATOM     14  O4* UNL     1      34.698 -24.908 -14.505  0.00  0.00    -0.333 OA
ATOM     15  C2* UNL     1      35.953 -23.158 -15.514  0.00  0.00    +0.187 C 
ATOM     16  C1* UNL     1      34.875 -24.212 -15.751  0.00  0.00    +0.226 C 
ATOM     17  C3* UNL     1      36.848 -23.862 -14.515  0.00  0.00    +0.171 C 
ATOM     18  C4* UNL     1      35.875 -24.714 -13.697  0.00  0.00    +0.175 C 
BRANCH  15  19
ATOM     19  O2* UNL     1      35.407 -21.989 -14.917  0.00  0.00    -0.378 OA
ATOM     20  H2* UNL     1      34.893 -21.498 -15.578  0.00  0.00    +0.211 HD
ENDBRANCH  15  19
BRANCH  17  21
ATOM     21  O3* UNL     1      37.734 -24.719 -15.234  0.00  0.00    -0.379 OA
ATOM     22  H3* UNL     1      38.649 -24.533 -14.971  0.00  0.00    +0.211 HD
ENDBRANCH  17  21
BRANCH  18  23
ATOM     23  C5* UNL     1      35.445 -24.053 -12.395  0.00  0.00    +0.169 C 
BRANCH  23  24
ATOM     24  O5* UNL     1      34.143 -23.522 -12.564  0.00  0.00    -0.379 OA
ATOM     25  H5* UNL     1      33.889 -23.580 -13.498  0.00  0.00    +0.211 HD
ENDBRANCH  23  24
ENDBRANCH  18  23
ENDBRANCH   2  16
TORSDOF 5
ENDMDL
MODEL 8
REMARK VINA RESULT:      -7.8      1.497      1.843
REMARK  Name = 657237
REMARK  5 active torsions:
REMARK  status: ('A' for Active; 'I' for Inactive)
REMARK    1  A    between atoms: N_2  and  C1*_13
REMARK    2  A    between atoms: C2*_12  and  O2*_16
REMARK    3  A    between atoms: C3*_14  and  O3*_18
REMARK    4  A    between atoms: C4*_15  and  C5*_20
REMARK    5  A    between atoms: C5*_20  and  O5*_21
REMARK                            x       y       z     vdW  Elec       q    Type
REMARK                         _______ _______ _______ _____ _____    ______ ____
ROOT
ATOM      1  F   UNL     1      32.599 -23.152 -18.339  0.00  0.00    -0.098 F 
ATOM      2  N   UNL     1      36.274 -22.747 -15.451  0.00  0.00    -0.236 N 
ATOM      3  N   UNL     1      37.576 -21.749 -16.969  0.00  0.00    -0.240 NA
ATOM      4  N   UNL     1      34.261 -23.054 -16.779  0.00  0.00    -0.300 NA
ATOM      5  N   UNL     1      34.546 -22.186 -19.043  0.00  0.00    -0.301 NA
ATOM      6  C   UNL     1      35.524 -22.643 -16.593  0.00  0.00    +0.222 C 
ATOM      7  C   UNL     1      37.499 -22.194 -15.731  0.00  0.00    +0.224 C 
ATOM      8  C   UNL     1      36.349 -22.024 -17.518  0.00  0.00    +0.167 C 
ATOM      9  C   UNL     1      35.817 -21.798 -18.784  0.00  0.00    +0.213 C 
ATOM     10  C   UNL     1      33.857 -22.781 -18.039  0.00  0.00    +0.300 C 
ATOM     11  N   UNL     1      36.582 -21.173 -19.783  0.00  0.00    -0.331 N 
ATOM     12  H   UNL     1      36.195 -21.018 -20.675  0.00  0.00    +0.145 HD
ATOM     13  H   UNL     1      37.506 -20.889 -19.593  0.00  0.00    +0.145 HD
ENDROOT
BRANCH   2  16
ATOM     14  O4* UNL     1      36.722 -22.887 -13.116  0.00  0.00    -0.333 OA
ATOM     15  C2* UNL     1      35.850 -24.856 -14.126  0.00  0.00    +0.187 C 
ATOM     16  C1* UNL     1      35.861 -23.331 -14.180  0.00  0.00    +0.226 C 
ATOM     17  C3* UNL     1      35.971 -25.106 -12.637  0.00  0.00    +0.171 C 
ATOM     18  C4* UNL     1      36.839 -23.946 -12.145  0.00  0.00    +0.175 C 
BRANCH  15  19
ATOM     19  O2* UNL     1      36.982 -25.402 -14.790  0.00  0.00    -0.378 OA
ATOM     20  H2* UNL     1      36.860 -26.357 -14.907  0.00  0.00    +0.211 HD
ENDBRANCH  15  19
BRANCH  17  21
ATOM     21  O3* UNL     1      34.671 -24.999 -12.058  0.00  0.00    -0.379 OA
ATOM     22  H3* UNL     1      34.282 -25.883 -11.972  0.00  0.00    +0.211 HD
ENDBRANCH  17  21
BRANCH  18  23
ATOM     23  C5* UNL     1      38.313 -24.307 -12.024  0.00  0.00    +0.169 C 
BRANCH  23  24
ATOM     24  O5* UNL     1      39.038 -23.143 -11.665  0.00  0.00    -0.379 OA
ATOM     25  H5* UNL     1      38.424 -22.470 -11.333  0.00  0.00    +0.211 HD
ENDBRANCH  23  24
ENDBRANCH  18  23
ENDBRANCH   2  16
TORSDOF 5
ENDMDL
MODEL 9
REMARK VINA RESULT:      -7.6      2.246      3.704
REMARK  Name = 657237
REMARK  5 active torsions:
REMARK  status: ('A' for Active; 'I' for Inactive)
REMARK    1  A    between atoms: N_2  and  C1*_13
REMARK    2  A    between atoms: C2*_12  and  O2*_16
REMARK    3  A    between atoms: C3*_14  and  O3*_18
REMARK    4  A    between atoms: C4*_15  and  C5*_20
REMARK    5  A    between atoms: C5*_20  and  O5*_21
REMARK                            x       y       z     vdW  Elec       q    Type
REMARK                         _______ _______ _______ _____ _____    ______ ____
ROOT
ATOM      1  F   UNL     1      37.167 -20.808 -20.232  0.00  0.00    -0.098 F 
ATOM      2  N   UNL     1      34.476 -23.173 -17.203  0.00  0.00    -0.236 N 
ATOM      3  N   UNL     1      32.552 -22.490 -18.113  0.00  0.00    -0.240 NA
ATOM      4  N   UNL     1      36.047 -22.030 -18.664  0.00  0.00    -0.300 NA
ATOM      5  N   UNL     1      34.889 -20.724 -20.370  0.00  0.00    -0.301 NA
ATOM      6  C   UNL     1      34.813 -22.360 -18.252  0.00  0.00    +0.222 C 
ATOM      7  C   UNL     1      33.104 -23.217 -17.163  0.00  0.00    +0.224 C 
ATOM      8  C   UNL     1      33.609 -21.949 -18.800  0.00  0.00    +0.167 C 
ATOM      9  C   UNL     1      33.675 -21.099 -19.900  0.00  0.00    +0.213 C 
ATOM     10  C   UNL     1      35.983 -21.206 -19.732  0.00  0.00    +0.300 C 
ATOM     11  N   UNL     1      32.503 -20.634 -20.520  0.00  0.00    -0.331 N 
ATOM     12  H   UNL     1      32.562 -20.034 -21.298  0.00  0.00    +0.145 HD
ATOM     13  H   UNL     1      31.621 -20.909 -20.178  0.00  0.00    +0.145 HD
ENDROOT
BRANCH   2  16
ATOM     14  O4* UNL     1      34.657 -24.699 -15.384  0.00  0.00    -0.333 OA
ATOM     15  C2* UNL     1      36.279 -22.960 -15.446  0.00  0.00    +0.187 C 
ATOM     16  C1* UNL     1      35.388 -23.861 -16.297  0.00  0.00    +0.226 C 
ATOM     17  C3* UNL     1      36.618 -23.877 -14.289  0.00  0.00    +0.171 C 
ATOM     18  C4* UNL     1      35.359 -24.732 -14.125  0.00  0.00    +0.175 C 
BRANCH  15  19
ATOM     19  O2* UNL     1      35.558 -21.835 -14.962  0.00  0.00    -0.378 OA
ATOM     20  H2* UNL     1      34.685 -22.119 -14.649  0.00  0.00    +0.211 HD
ENDBRANCH  15  19
BRANCH  17  21
ATOM     21  O3* UNL     1      37.706 -24.711 -14.683  0.00  0.00    -0.379 OA
ATOM     22  H3* UNL     1      38.512 -24.178 -14.757  0.00  0.00    +0.211 HD
ENDBRANCH  17  21
BRANCH  18  23
ATOM     23  C5* UNL     1      34.416 -24.214 -13.049  0.00  0.00    +0.169 C 
BRANCH  23  24
ATOM     24  O5* UNL     1      34.659 -24.928 -11.850  0.00  0.00    -0.379 OA
ATOM     25  H5* UNL     1      34.510 -25.874 -12.001  0.00  0.00    +0.211 HD
ENDBRANCH  23  24
ENDBRANCH  18  23
ENDBRANCH   2  16
TORSDOF 5
ENDMDL
