MODEL 1
REMARK VINA RESULT:      -7.5      0.000      0.000
REMARK  Name = 16231
REMARK  3 active torsions:
REMARK  status: ('A' for Active; 'I' for Inactive)
REMARK    1  A    between atoms: C_5  and  C_15
REMARK    2  A    between atoms: C_15  and  N_16
REMARK    3  A    between atoms: N_16  and  C_19
REMARK                            x       y       z     vdW  Elec       q    Type
REMARK                         _______ _______ _______ _____ _____    ______ ____
ROOT
ATOM      1 CL   UNL     1      35.990 -21.449 -19.710  0.00  0.00    -0.044 Cl
ATOM      2  N   UNL     1      32.448 -22.451 -18.180  0.00  0.00    -0.367 NA
ATOM      3  N   UNL     1      35.181 -22.684 -17.593  0.00  0.00    -0.378 NA
ATOM      4  N   UNL     1      32.991 -21.294 -20.177  0.00  0.00    -0.330 N 
ATOM      5  C   UNL     1      34.219 -23.168 -16.807  0.00  0.00    +0.231 C 
ATOM      6  C   UNL     1      32.889 -23.070 -17.067  0.00  0.00    +0.213 C 
ATOM      7  C   UNL     1      33.398 -21.951 -18.995  0.00  0.00    +0.220 C 
ATOM      8  C   UNL     1      34.741 -22.066 -18.707  0.00  0.00    +0.232 C 
ATOM      9  H   UNL     1      32.032 -21.209 -20.388  0.00  0.00    +0.145 HD
ATOM     10  H   UNL     1      33.664 -20.921 -20.790  0.00  0.00    +0.145 HD
ATOM     11  N   UNL     1      31.941 -23.615 -16.171  0.00  0.00    -0.331 N 
ATOM     12  H   UNL     1      30.979 -23.540 -16.367  0.00  0.00    +0.145 HD
ATOM     13  H   UNL     1      32.243 -24.072 -15.353  0.00  0.00    +0.145 HD
ENDROOT
BRANCH   5  15
ATOM     14  O   UNL     1      34.185 -23.626 -14.505  0.00  0.00    -0.265 OA
ATOM     15  C   UNL     1      34.728 -23.848 -15.583  0.00  0.00    +0.305 C 
BRANCH  15  16
ATOM     16  N   UNL     1      35.772 -24.724 -15.781  0.00  0.00    -0.141 NA
BRANCH  16  19
ATOM     17  N   UNL     1      36.164 -25.485 -13.530  0.00  0.00    -0.372 N 
ATOM     18  N   UNL     1      36.142 -26.964 -15.266  0.00  0.00    -0.372 N 
ATOM     19  C   UNL     1      36.007 -25.650 -14.888  0.00  0.00    +0.185 C 
ATOM     20  H   UNL     1      36.092 -24.588 -13.131  0.00  0.00    +0.159 HD
ATOM     21  H   UNL     1      36.349 -26.264 -12.958  0.00  0.00    +0.159 HD
ATOM     22  H   UNL     1      36.051 -27.216 -16.214  0.00  0.00    +0.159 HD
ATOM     23  H   UNL     1      36.328 -27.655 -14.590  0.00  0.00    +0.159 HD
ENDBRANCH  16  19
ENDBRANCH  15  16
ENDBRANCH   5  15
TORSDOF 3
ENDMDL
MODEL 2
REMARK VINA RESULT:      -7.4      2.442      5.105
REMARK  Name = 16231
REMARK  3 active torsions:
REMARK  status: ('A' for Active; 'I' for Inactive)
REMARK    1  A    between atoms: C_5  and  C_15
REMARK    2  A    between atoms: C_15  and  N_16
REMARK    3  A    between atoms: N_16  and  C_19
REMARK                            x       y       z     vdW  Elec       q    Type
REMARK                         _______ _______ _______ _____ _____    ______ ____
ROOT
ATOM      1 CL   UNL     1      37.609 -22.523 -15.837  0.00  0.00    -0.044 Cl
ATOM      2  N   UNL     1      33.790 -23.325 -15.025  0.00  0.00    -0.367 NA
ATOM      3  N   UNL     1      35.446 -22.777 -17.221  0.00  0.00    -0.378 NA
ATOM      4  N   UNL     1      35.662 -23.132 -13.584  0.00  0.00    -0.330 N 
ATOM      5  C   UNL     1      34.137 -23.009 -17.330  0.00  0.00    +0.231 C 
ATOM      6  C   UNL     1      33.312 -23.276 -16.285  0.00  0.00    +0.213 C 
ATOM      7  C   UNL     1      35.110 -23.094 -14.883  0.00  0.00    +0.220 C 
ATOM      8  C   UNL     1      35.924 -22.825 -15.962  0.00  0.00    +0.232 C 
ATOM      9  H   UNL     1      35.085 -23.324 -12.809  0.00  0.00    +0.145 HD
ATOM     10  H   UNL     1      36.623 -22.966 -13.452  0.00  0.00    +0.145 HD
ATOM     11  N   UNL     1      31.935 -23.510 -16.499  0.00  0.00    -0.331 N 
ATOM     12  H   UNL     1      31.344 -23.703 -15.735  0.00  0.00    +0.145 HD
ATOM     13  H   UNL     1      31.566 -23.478 -17.411  0.00  0.00    +0.145 HD
ENDROOT
BRANCH   5  15
ATOM     14  O   UNL     1      33.907 -23.860 -19.506  0.00  0.00    -0.265 OA
ATOM     15  C   UNL     1      33.630 -22.950 -18.731  0.00  0.00    +0.305 C 
BRANCH  15  16
ATOM     16  N   UNL     1      32.839 -21.864 -19.030  0.00  0.00    -0.141 NA
BRANCH  16  19
ATOM     17  N   UNL     1      32.574 -20.043 -20.583  0.00  0.00    -0.372 N 
ATOM     18  N   UNL     1      34.653 -20.785 -20.014  0.00  0.00    -0.372 N 
ATOM     19  C   UNL     1      33.300 -20.939 -19.832  0.00  0.00    +0.185 C 
ATOM     20  H   UNL     1      31.590 -20.049 -20.543  0.00  0.00    +0.159 HD
ATOM     21  H   UNL     1      33.038 -19.395 -21.161  0.00  0.00    +0.159 HD
ATOM     22  H   UNL     1      35.284 -21.367 -19.530  0.00  0.00    +0.159 HD
ATOM     23  H   UNL     1      34.993 -20.093 -20.625  0.00  0.00    +0.159 HD
ENDBRANCH  16  19
ENDBRANCH  15  16
ENDBRANCH   5  15
TORSDOF 3
ENDMDL
MODEL 3
REMARK VINA RESULT:      -7.3      5.740      7.986
REMARK  Name = 16231
REMARK  3 active torsions:
REMARK  status: ('A' for Active; 'I' for Inactive)
REMARK    1  A    between atoms: C_5  and  C_15
REMARK    2  A    between atoms: C_15  and  N_16
REMARK    3  A    between atoms: N_16  and  C_19
REMARK                            x       y       z     vdW  Elec       q    Type
REMARK                         _______ _______ _______ _____ _____    ______ ____
ROOT
ATOM      1 CL   UNL     1      32.787 -14.376 -20.601  0.00  0.00    -0.044 Cl
ATOM      2  N   UNL     1      35.229 -15.925 -23.345  0.00  0.00    -0.367 NA
ATOM      3  N   UNL     1      33.976 -16.642 -20.940  0.00  0.00    -0.378 NA
ATOM      4  N   UNL     1      34.226 -13.780 -23.211  0.00  0.00    -0.330 N 
ATOM      5  C   UNL     1      34.771 -17.463 -21.625  0.00  0.00    +0.231 C 
ATOM      6  C   UNL     1      35.392 -17.143 -22.791  0.00  0.00    +0.213 C 
ATOM      7  C   UNL     1      34.430 -15.071 -22.675  0.00  0.00    +0.220 C 
ATOM      8  C   UNL     1      33.814 -15.423 -21.494  0.00  0.00    +0.232 C 
ATOM      9  H   UNL     1      34.664 -13.523 -24.055  0.00  0.00    +0.145 HD
ATOM     10  H   UNL     1      33.648 -13.137 -22.741  0.00  0.00    +0.145 HD
ATOM     11  N   UNL     1      36.218 -18.083 -23.446  0.00  0.00    -0.331 N 
ATOM     12  H   UNL     1      36.664 -17.842 -24.290  0.00  0.00    +0.145 HD
ATOM     13  H   UNL     1      36.350 -18.978 -23.057  0.00  0.00    +0.145 HD
ENDROOT
BRANCH   5  15
ATOM     14  O   UNL     1      35.970 -19.054 -20.382  0.00  0.00    -0.265 OA
ATOM     15  C   UNL     1      34.937 -18.804 -20.995  0.00  0.00    +0.305 C 
BRANCH  15  16
ATOM     16  N   UNL     1      33.865 -19.658 -21.127  0.00  0.00    -0.141 NA
BRANCH  16  19
ATOM     17  N   UNL     1      32.521 -20.770 -19.468  0.00  0.00    -0.372 N 
ATOM     18  N   UNL     1      34.650 -21.469 -19.891  0.00  0.00    -0.372 N 
ATOM     19  C   UNL     1      33.661 -20.572 -20.214  0.00  0.00    +0.185 C 
ATOM     20  H   UNL     1      31.736 -20.192 -19.603  0.00  0.00    +0.159 HD
ATOM     21  H   UNL     1      32.491 -21.491 -18.798  0.00  0.00    +0.159 HD
ATOM     22  H   UNL     1      35.518 -21.433 -20.355  0.00  0.00    +0.159 HD
ATOM     23  H   UNL     1      34.493 -22.148 -19.196  0.00  0.00    +0.159 HD
ENDBRANCH  16  19
ENDBRANCH  15  16
ENDBRANCH   5  15
TORSDOF 3
ENDMDL
MODEL 4
REMARK VINA RESULT:      -7.2      1.918      2.474
REMARK  Name = 16231
REMARK  3 active torsions:
REMARK  status: ('A' for Active; 'I' for Inactive)
REMARK    1  A    between atoms: C_5  and  C_15
REMARK    2  A    between atoms: C_15  and  N_16
REMARK    3  A    between atoms: N_16  and  C_19
REMARK                            x       y       z     vdW  Elec       q    Type
REMARK                         _______ _______ _______ _____ _____    ______ ____
ROOT
ATOM      1 CL   UNL     1      33.359 -22.295 -18.830  0.00  0.00    -0.044 Cl
ATOM      2  N   UNL     1      32.249 -23.674 -15.258  0.00  0.00    -0.367 NA
ATOM      3  N   UNL     1      34.563 -23.366 -16.813  0.00  0.00    -0.378 NA
ATOM      4  N   UNL     1      30.966 -22.710 -17.003  0.00  0.00    -0.330 N 
ATOM      5  C   UNL     1      34.567 -23.899 -15.591  0.00  0.00    +0.231 C 
ATOM      6  C   UNL     1      33.462 -24.061 -14.816  0.00  0.00    +0.213 C 
ATOM      7  C   UNL     1      32.212 -23.131 -16.491  0.00  0.00    +0.220 C 
ATOM      8  C   UNL     1      33.349 -22.979 -17.255  0.00  0.00    +0.232 C 
ATOM      9  H   UNL     1      30.150 -22.816 -16.460  0.00  0.00    +0.145 HD
ATOM     10  H   UNL     1      30.911 -22.311 -17.901  0.00  0.00    +0.145 HD
ATOM     11  N   UNL     1      33.566 -24.638 -13.531  0.00  0.00    -0.331 N 
ATOM     12  H   UNL     1      32.760 -24.752 -12.976  0.00  0.00    +0.145 HD
ATOM     13  H   UNL     1      34.443 -24.928 -13.190  0.00  0.00    +0.145 HD
ENDROOT
BRANCH   5  15
ATOM     14  O   UNL     1      36.616 -23.517 -14.511  0.00  0.00    -0.265 OA
ATOM     15  C   UNL     1      35.918 -24.320 -15.123  0.00  0.00    +0.305 C 
BRANCH  15  16
ATOM     16  N   UNL     1      36.260 -25.626 -15.394  0.00  0.00    -0.141 NA
BRANCH  16  19
ATOM     17  N   UNL     1      38.625 -25.908 -15.038  0.00  0.00    -0.372 N 
ATOM     18  N   UNL     1      37.118 -27.081 -13.791  0.00  0.00    -0.372 N 
ATOM     19  C   UNL     1      37.293 -26.154 -14.790  0.00  0.00    +0.185 C 
ATOM     20  H   UNL     1      38.885 -25.262 -15.734  0.00  0.00    +0.159 HD
ATOM     21  H   UNL     1      39.316 -26.379 -14.520  0.00  0.00    +0.159 HD
ATOM     22  H   UNL     1      36.209 -27.344 -13.517  0.00  0.00    +0.159 HD
ATOM     23  H   UNL     1      37.900 -27.481 -13.347  0.00  0.00    +0.159 HD
ENDBRANCH  16  19
ENDBRANCH  15  16
ENDBRANCH   5  15
TORSDOF 3
ENDMDL
MODEL 5
REMARK VINA RESULT:      -7.1      6.725      9.064
REMARK  Name = 16231
REMARK  3 active torsions:
REMARK  status: ('A' for Active; 'I' for Inactive)
REMARK    1  A    between atoms: C_5  and  C_15
REMARK    2  A    between atoms: C_15  and  N_16
REMARK    3  A    between atoms: N_16  and  C_19
REMARK                            x       y       z     vdW  Elec       q    Type
REMARK                         _______ _______ _______ _____ _____    ______ ____
ROOT
ATOM      1 CL   UNL     1      33.914 -13.548 -23.774  0.00  0.00    -0.044 Cl
ATOM      2  N   UNL     1      33.959 -17.101 -25.580  0.00  0.00    -0.367 NA
ATOM      3  N   UNL     1      34.661 -15.933 -23.129  0.00  0.00    -0.378 NA
ATOM      4  N   UNL     1      33.219 -14.988 -26.358  0.00  0.00    -0.330 N 
ATOM      5  C   UNL     1      34.827 -17.228 -23.398  0.00  0.00    +0.231 C 
ATOM      6  C   UNL     1      34.498 -17.820 -24.575  0.00  0.00    +0.213 C 
ATOM      7  C   UNL     1      33.778 -15.788 -25.339  0.00  0.00    +0.220 C 
ATOM      8  C   UNL     1      34.123 -15.214 -24.134  0.00  0.00    +0.232 C 
ATOM      9  H   UNL     1      32.971 -15.393 -27.222  0.00  0.00    +0.145 HD
ATOM     10  H   UNL     1      33.077 -14.026 -26.209  0.00  0.00    +0.145 HD
ATOM     11  N   UNL     1      34.712 -19.203 -24.768  0.00  0.00    -0.331 N 
ATOM     12  H   UNL     1      34.470 -19.624 -25.625  0.00  0.00    +0.145 HD
ATOM     13  H   UNL     1      35.105 -19.746 -24.046  0.00  0.00    +0.145 HD
ENDROOT
BRANCH   5  15
ATOM     14  O   UNL     1      36.594 -18.366 -22.351  0.00  0.00    -0.265 OA
ATOM     15  C   UNL     1      35.424 -18.004 -22.273  0.00  0.00    +0.305 C 
BRANCH  15  16
ATOM     16  N   UNL     1      34.595 -18.218 -21.194  0.00  0.00    -0.141 NA
BRANCH  16  19
ATOM     17  N   UNL     1      33.149 -20.122 -20.909  0.00  0.00    -0.372 N 
ATOM     18  N   UNL     1      35.327 -20.211 -20.236  0.00  0.00    -0.372 N 
ATOM     19  C   UNL     1      34.344 -19.445 -20.816  0.00  0.00    +0.185 C 
ATOM     20  H   UNL     1      32.364 -19.683 -21.307  0.00  0.00    +0.159 HD
ATOM     21  H   UNL     1      33.081 -21.047 -20.578  0.00  0.00    +0.159 HD
ATOM     22  H   UNL     1      36.231 -19.840 -20.112  0.00  0.00    +0.159 HD
ATOM     23  H   UNL     1      35.128 -21.130 -19.945  0.00  0.00    +0.159 HD
ENDBRANCH  16  19
ENDBRANCH  15  16
ENDBRANCH   5  15
TORSDOF 3
ENDMDL
MODEL 6
REMARK VINA RESULT:      -7.1      3.900      7.102
REMARK  Name = 16231
REMARK  3 active torsions:
REMARK  status: ('A' for Active; 'I' for Inactive)
REMARK    1  A    between atoms: C_5  and  C_15
REMARK    2  A    between atoms: C_15  and  N_16
REMARK    3  A    between atoms: N_16  and  C_19
REMARK                            x       y       z     vdW  Elec       q    Type
REMARK                         _______ _______ _______ _____ _____    ______ ____
ROOT
ATOM      1 CL   UNL     1      36.783 -22.136 -17.878  0.00  0.00    -0.044 Cl
ATOM      2  N   UNL     1      33.112 -21.745 -19.381  0.00  0.00    -0.367 NA
ATOM      3  N   UNL     1      35.668 -20.619 -19.643  0.00  0.00    -0.378 NA
ATOM      4  N   UNL     1      33.951 -23.228 -17.733  0.00  0.00    -0.330 N 
ATOM      5  C   UNL     1      34.612 -20.213 -20.349  0.00  0.00    +0.231 C 
ATOM      6  C   UNL     1      33.364 -20.739 -20.242  0.00  0.00    +0.213 C 
ATOM      7  C   UNL     1      34.160 -22.177 -18.652  0.00  0.00    +0.220 C 
ATOM      8  C   UNL     1      35.416 -21.624 -18.781  0.00  0.00    +0.232 C 
ATOM      9  H   UNL     1      33.055 -23.628 -17.637  0.00  0.00    +0.145 HD
ATOM     10  H   UNL     1      34.699 -23.562 -17.187  0.00  0.00    +0.145 HD
ATOM     11  N   UNL     1      32.306 -20.242 -21.035  0.00  0.00    -0.331 N 
ATOM     12  H   UNL     1      31.404 -20.629 -20.951  0.00  0.00    +0.145 HD
ATOM     13  H   UNL     1      32.469 -19.507 -21.670  0.00  0.00    +0.145 HD
ENDROOT
BRANCH   5  15
ATOM     14  O   UNL     1      35.080 -17.968 -20.852  0.00  0.00    -0.265 OA
ATOM     15  C   UNL     1      34.913 -19.101 -21.294  0.00  0.00    +0.305 C 
BRANCH  15  16
ATOM     16  N   UNL     1      35.020 -19.460 -22.619  0.00  0.00    -0.141 NA
BRANCH  16  19
ATOM     17  N   UNL     1      35.753 -17.338 -23.491  0.00  0.00    -0.372 N 
ATOM     18  N   UNL     1      34.337 -18.659 -24.696  0.00  0.00    -0.372 N 
ATOM     19  C   UNL     1      35.057 -18.526 -23.533  0.00  0.00    +0.185 C 
ATOM     20  H   UNL     1      36.309 -17.122 -22.708  0.00  0.00    +0.159 HD
ATOM     21  H   UNL     1      35.693 -16.706 -24.243  0.00  0.00    +0.159 HD
ATOM     22  H   UNL     1      33.795 -19.467 -24.850  0.00  0.00    +0.159 HD
ATOM     23  H   UNL     1      34.362 -17.947 -25.376  0.00  0.00    +0.159 HD
ENDBRANCH  16  19
ENDBRANCH  15  16
ENDBRANCH   5  15
TORSDOF 3
ENDMDL
MODEL 7
REMARK VINA RESULT:      -7.0      3.017      3.889
REMARK  Name = 16231
REMARK  3 active torsions:
REMARK  status: ('A' for Active; 'I' for Inactive)
REMARK    1  A    between atoms: C_5  and  C_15
REMARK    2  A    between atoms: C_15  and  N_16
REMARK    3  A    between atoms: N_16  and  C_19
REMARK                            x       y       z     vdW  Elec       q    Type
REMARK                         _______ _______ _______ _____ _____    ______ ____
ROOT
ATOM      1 CL   UNL     1      30.469 -23.547 -14.013  0.00  0.00    -0.044 Cl
ATOM      2  N   UNL     1      31.931 -22.736 -17.632  0.00  0.00    -0.367 NA
ATOM      3  N   UNL     1      32.816 -23.511 -15.086  0.00  0.00    -0.378 NA
ATOM      4  N   UNL     1      29.699 -22.711 -16.832  0.00  0.00    -0.330 N 
ATOM      5  C   UNL     1      33.635 -23.322 -16.120  0.00  0.00    +0.231 C 
ATOM      6  C   UNL     1      33.235 -22.946 -17.363  0.00  0.00    +0.213 C 
ATOM      7  C   UNL     1      31.077 -22.919 -16.605  0.00  0.00    +0.220 C 
ATOM      8  C   UNL     1      31.512 -23.300 -15.354  0.00  0.00    +0.232 C 
ATOM      9  H   UNL     1      29.382 -22.439 -17.724  0.00  0.00    +0.145 HD
ATOM     10  H   UNL     1      29.054 -22.837 -16.099  0.00  0.00    +0.145 HD
ATOM     11  N   UNL     1      34.179 -22.770 -18.399  0.00  0.00    -0.331 N 
ATOM     12  H   UNL     1      33.880 -22.497 -19.297  0.00  0.00    +0.145 HD
ATOM     13  H   UNL     1      35.137 -22.918 -18.223  0.00  0.00    +0.145 HD
ENDROOT
BRANCH   5  15
ATOM     14  O   UNL     1      35.528 -24.694 -15.904  0.00  0.00    -0.265 OA
ATOM     15  C   UNL     1      35.072 -23.559 -15.801  0.00  0.00    +0.305 C 
BRANCH  15  16
ATOM     16  N   UNL     1      35.793 -22.442 -15.444  0.00  0.00    -0.141 NA
BRANCH  16  19
ATOM     17  N   UNL     1      37.212 -21.030 -16.783  0.00  0.00    -0.372 N 
ATOM     18  N   UNL     1      37.934 -23.082 -16.098  0.00  0.00    -0.372 N 
ATOM     19  C   UNL     1      36.906 -22.171 -16.076  0.00  0.00    +0.185 C 
ATOM     20  H   UNL     1      36.557 -20.299 -16.845  0.00  0.00    +0.159 HD
ATOM     21  H   UNL     1      38.086 -20.947 -17.227  0.00  0.00    +0.159 HD
ATOM     22  H   UNL     1      37.840 -23.943 -15.627  0.00  0.00    +0.159 HD
ATOM     23  H   UNL     1      38.765 -22.876 -16.583  0.00  0.00    +0.159 HD
ENDBRANCH  16  19
ENDBRANCH  15  16
ENDBRANCH   5  15
TORSDOF 3
ENDMDL
MODEL 8
REMARK VINA RESULT:      -7.0      2.753      3.885
REMARK  Name = 16231
REMARK  3 active torsions:
REMARK  status: ('A' for Active; 'I' for Inactive)
REMARK    1  A    between atoms: C_5  and  C_15
REMARK    2  A    between atoms: C_15  and  N_16
REMARK    3  A    between atoms: N_16  and  C_19
REMARK                            x       y       z     vdW  Elec       q    Type
REMARK                         _______ _______ _______ _____ _____    ______ ____
ROOT
ATOM      1 CL   UNL     1      37.213 -21.967 -17.008  0.00  0.00    -0.044 Cl
ATOM      2  N   UNL     1      34.553 -23.748 -14.633  0.00  0.00    -0.367 NA
ATOM      3  N   UNL     1      37.226 -22.902 -14.603  0.00  0.00    -0.378 NA
ATOM      4  N   UNL     1      34.341 -22.949 -16.855  0.00  0.00    -0.330 N 
ATOM      5  C   UNL     1      36.634 -23.496 -13.567  0.00  0.00    +0.231 C 
ATOM      6  C   UNL     1      35.342 -23.917 -13.554  0.00  0.00    +0.213 C 
ATOM      7  C   UNL     1      35.123 -23.149 -15.697  0.00  0.00    +0.220 C 
ATOM      8  C   UNL     1      36.437 -22.734 -15.682  0.00  0.00    +0.232 C 
ATOM      9  H   UNL     1      33.401 -23.245 -16.871  0.00  0.00    +0.145 HD
ATOM     10  H   UNL     1      34.733 -22.515 -17.647  0.00  0.00    +0.145 HD
ATOM     11  N   UNL     1      34.802 -24.538 -12.406  0.00  0.00    -0.331 N 
ATOM     12  H   UNL     1      33.864 -24.840 -12.406  0.00  0.00    +0.145 HD
ATOM     13  H   UNL     1      35.362 -24.672 -11.608  0.00  0.00    +0.145 HD
ENDROOT
BRANCH   5  15
ATOM     14  O   UNL     1      38.005 -22.681 -11.844  0.00  0.00    -0.265 OA
ATOM     15  C   UNL     1      37.525 -23.673 -12.385  0.00  0.00    +0.305 C 
BRANCH  15  16
ATOM     16  N   UNL     1      37.707 -24.972 -11.967  0.00  0.00    -0.141 NA
BRANCH  16  19
ATOM     17  N   UNL     1      39.335 -25.955 -13.444  0.00  0.00    -0.372 N 
ATOM     18  N   UNL     1      37.258 -26.874 -13.233  0.00  0.00    -0.372 N 
ATOM     19  C   UNL     1      38.106 -25.871 -12.829  0.00  0.00    +0.185 C 
ATOM     20  H   UNL     1      40.034 -25.292 -13.240  0.00  0.00    +0.159 HD
ATOM     21  H   UNL     1      39.514 -26.677 -14.087  0.00  0.00    +0.159 HD
ATOM     22  H   UNL     1      36.346 -26.926 -12.865  0.00  0.00    +0.159 HD
ATOM     23  H   UNL     1      37.562 -27.542 -13.889  0.00  0.00    +0.159 HD
ENDBRANCH  16  19
ENDBRANCH  15  16
ENDBRANCH   5  15
TORSDOF 3
ENDMDL
MODEL 9
REMARK VINA RESULT:      -7.0      2.751      5.528
REMARK  Name = 16231
REMARK  3 active torsions:
REMARK  status: ('A' for Active; 'I' for Inactive)
REMARK    1  A    between atoms: C_5  and  C_15
REMARK    2  A    between atoms: C_15  and  N_16
REMARK    3  A    between atoms: N_16  and  C_19
REMARK                            x       y       z     vdW  Elec       q    Type
REMARK                         _______ _______ _______ _____ _____    ______ ____
ROOT
ATOM      1 CL   UNL     1      37.082 -27.057 -14.430  0.00  0.00    -0.044 Cl
ATOM      2  N   UNL     1      38.357 -23.384 -15.309  0.00  0.00    -0.367 NA
ATOM      3  N   UNL     1      36.007 -24.913 -15.384  0.00  0.00    -0.378 NA
ATOM      4  N   UNL     1      39.524 -25.248 -14.424  0.00  0.00    -0.330 N 
ATOM      5  C   UNL     1      36.067 -23.642 -15.781  0.00  0.00    +0.231 C 
ATOM      6  C   UNL     1      37.190 -22.878 -15.756  0.00  0.00    +0.213 C 
ATOM      7  C   UNL     1      38.328 -24.668 -14.900  0.00  0.00    +0.220 C 
ATOM      8  C   UNL     1      37.174 -25.420 -14.937  0.00  0.00    +0.232 C 
ATOM      9  H   UNL     1      40.353 -24.715 -14.395  0.00  0.00    +0.145 HD
ATOM     10  H   UNL     1      39.531 -26.184 -14.121  0.00  0.00    +0.145 HD
ATOM     11  N   UNL     1      37.155 -21.537 -16.198  0.00  0.00    -0.331 N 
ATOM     12  H   UNL     1      37.975 -20.990 -16.177  0.00  0.00    +0.145 HD
ATOM     13  H   UNL     1      36.313 -21.149 -16.529  0.00  0.00    +0.145 HD
ENDROOT
BRANCH   5  15
ATOM     14  O   UNL     1      33.813 -23.045 -15.500  0.00  0.00    -0.265 OA
ATOM     15  C   UNL     1      34.766 -23.104 -16.271  0.00  0.00    +0.305 C 
BRANCH  15  16
ATOM     16  N   UNL     1      34.758 -22.669 -17.578  0.00  0.00    -0.141 NA
BRANCH  16  19
ATOM     17  N   UNL     1      32.381 -22.536 -17.938  0.00  0.00    -0.372 N 
ATOM     18  N   UNL     1      33.755 -23.353 -19.565  0.00  0.00    -0.372 N 
ATOM     19  C   UNL     1      33.678 -22.827 -18.297  0.00  0.00    +0.185 C 
ATOM     20  H   UNL     1      32.190 -22.153 -17.051  0.00  0.00    +0.159 HD
ATOM     21  H   UNL     1      31.645 -22.710 -18.567  0.00  0.00    +0.159 HD
ATOM     22  H   UNL     1      34.630 -23.604 -19.941  0.00  0.00    +0.159 HD
ATOM     23  H   UNL     1      32.937 -23.478 -20.097  0.00  0.00    +0.159 HD
ENDBRANCH  16  19
ENDBRANCH  15  16
ENDBRANCH   5  15
TORSDOF 3
ENDMDL
