MODEL 1
REMARK VINA RESULT:      -7.6      0.000      0.000
REMARK  Name = 34359
REMARK  8 active torsions:
REMARK  status: ('A' for Active; 'I' for Inactive)
REMARK    1  A    between atoms: C_1  and  C_4
REMARK    2  A    between atoms: C_1  and  N_7
REMARK    3  A    between atoms: C_1  and  C_12
REMARK    4  A    between atoms: C_4  and  O_5
REMARK    5  A    between atoms: N_7  and  N_9
REMARK    6  A    between atoms: C_12  and  C_13
REMARK    7  A    between atoms: C_16  and  O_19
REMARK    8  A    between atoms: C_18  and  O_21
REMARK                            x       y       z     vdW  Elec       q    Type
REMARK                         _______ _______ _______ _____ _____    ______ ____
ROOT
ATOM      1  C   UNL     1      35.193 -17.839 -21.933  0.00  0.00    +0.148 C 
ATOM      2  C   UNL     1      36.605 -18.278 -22.351  0.00  0.00    +0.029 C 
ENDROOT
BRANCH   1   4
ATOM      3  O   UNL     1      33.551 -16.337 -22.934  0.00  0.00    -0.249 OA
ATOM      4  C   UNL     1      34.722 -16.679 -22.813  0.00  0.00    +0.328 C 
BRANCH   4   5
ATOM      5  O   UNL     1      35.725 -16.051 -23.480  0.00  0.00    -0.479 OA
ATOM      6  H   UNL     1      35.685 -15.125 -23.621  0.00  0.00    +0.295 HD
ENDBRANCH   4   5
ENDBRANCH   1   4
BRANCH   1   7
ATOM      7  N   UNL     1      35.308 -17.328 -20.558  0.00  0.00    -0.241 NA
ATOM      8  H   UNL     1      34.684 -17.849 -19.942  0.00  0.00    +0.142 HD
BRANCH   7   9
ATOM      9  N   UNL     1      34.938 -15.953 -20.573  0.00  0.00    -0.269 NA
ATOM     10  H   UNL     1      34.096 -15.823 -20.013  0.00  0.00    +0.137 HD
ATOM     11  H   UNL     1      34.756 -15.661 -21.533  0.00  0.00    +0.137 HD
ENDBRANCH   7   9
ENDBRANCH   1   7
BRANCH   1  12
ATOM     12  C   UNL     1      34.195 -19.021 -21.939  0.00  0.00    +0.053 C 
BRANCH  12  13
ATOM     13  C   UNL     1      34.413 -20.063 -20.863  0.00  0.00    -0.017 C 
ATOM     14  C   UNL     1      33.317 -20.601 -20.212  0.00  0.00    +0.036 C 
ATOM     15  C   UNL     1      35.704 -20.454 -20.553  0.00  0.00    -0.001 C 
ATOM     16  C   UNL     1      33.519 -21.562 -19.220  0.00  0.00    +0.167 C 
ATOM     17  C   UNL     1      35.905 -21.414 -19.561  0.00  0.00    +0.039 C 
ATOM     18  C   UNL     1      34.813 -21.968 -18.895  0.00  0.00    +0.167 C 
BRANCH  16  19
ATOM     19  O   UNL     1      32.443 -22.096 -18.577  0.00  0.00    -0.503 OA
ATOM     20  H   UNL     1      31.624 -21.641 -18.575  0.00  0.00    +0.292 HD
ENDBRANCH  16  19
BRANCH  18  21
ATOM     21  O   UNL     1      35.022 -22.905 -17.929  0.00  0.00    -0.503 OA
ATOM     22  H   UNL     1      35.648 -22.745 -17.249  0.00  0.00    +0.292 HD
ENDBRANCH  18  21
ENDBRANCH  12  13
ENDBRANCH   1  12
TORSDOF 8
ENDMDL
MODEL 2
REMARK VINA RESULT:      -7.3      7.968      9.662
REMARK  Name = 34359
REMARK  8 active torsions:
REMARK  status: ('A' for Active; 'I' for Inactive)
REMARK    1  A    between atoms: C_1  and  C_4
REMARK    2  A    between atoms: C_1  and  N_7
REMARK    3  A    between atoms: C_1  and  C_12
REMARK    4  A    between atoms: C_4  and  O_5
REMARK    5  A    between atoms: N_7  and  N_9
REMARK    6  A    between atoms: C_12  and  C_13
REMARK    7  A    between atoms: C_16  and  O_19
REMARK    8  A    between atoms: C_18  and  O_21
REMARK                            x       y       z     vdW  Elec       q    Type
REMARK                         _______ _______ _______ _____ _____    ______ ____
ROOT
ATOM      1  C   UNL     1      36.712 -25.064 -14.413  0.00  0.00    +0.148 C 
ATOM      2  C   UNL     1      37.654 -24.244 -15.308  0.00  0.00    +0.029 C 
ENDROOT
BRANCH   1   4
ATOM      3  O   UNL     1      38.731 -26.182 -13.622  0.00  0.00    -0.249 OA
ATOM      4  C   UNL     1      37.522 -26.006 -13.520  0.00  0.00    +0.328 C 
BRANCH   4   5
ATOM      5  O   UNL     1      36.778 -26.662 -12.593  0.00  0.00    -0.479 OA
ATOM      6  H   UNL     1      36.286 -27.422 -12.839  0.00  0.00    +0.295 HD
ENDBRANCH   4   5
ENDBRANCH   1   4
BRANCH   1   7
ATOM      7  N   UNL     1      35.906 -25.900 -15.316  0.00  0.00    -0.241 NA
ATOM      8  H   UNL     1      35.135 -26.324 -14.800  0.00  0.00    +0.142 HD
BRANCH   7   9
ATOM      9  N   UNL     1      36.755 -26.916 -15.840  0.00  0.00    -0.269 NA
ATOM     10  H   UNL     1      36.526 -27.077 -16.820  0.00  0.00    +0.137 HD
ATOM     11  H   UNL     1      36.619 -27.778 -15.312  0.00  0.00    +0.137 HD
ENDBRANCH   7   9
ENDBRANCH   1   7
BRANCH   1  12
ATOM     12  C   UNL     1      35.758 -24.159 -13.596  0.00  0.00    +0.053 C 
BRANCH  12  13
ATOM     13  C   UNL     1      34.340 -24.070 -14.116  0.00  0.00    -0.017 C 
ATOM     14  C   UNL     1      33.314 -24.640 -13.382  0.00  0.00    +0.036 C 
ATOM     15  C   UNL     1      34.099 -23.422 -15.316  0.00  0.00    -0.001 C 
ATOM     16  C   UNL     1      32.007 -24.557 -13.863  0.00  0.00    +0.167 C 
ATOM     17  C   UNL     1      32.793 -23.340 -15.795  0.00  0.00    +0.039 C 
ATOM     18  C   UNL     1      31.746 -23.908 -15.069  0.00  0.00    +0.167 C 
BRANCH  16  19
ATOM     19  O   UNL     1      30.993 -25.115 -13.144  0.00  0.00    -0.503 OA
ATOM     20  H   UNL     1      30.909 -24.930 -12.229  0.00  0.00    +0.292 HD
ENDBRANCH  16  19
BRANCH  18  21
ATOM     21  O   UNL     1      30.474 -23.821 -15.548  0.00  0.00    -0.503 OA
ATOM     22  H   UNL     1      30.030 -22.995 -15.549  0.00  0.00    +0.292 HD
ENDBRANCH  18  21
ENDBRANCH  12  13
ENDBRANCH   1  12
TORSDOF 8
ENDMDL
MODEL 3
REMARK VINA RESULT:      -7.3      5.675      8.871
REMARK  Name = 34359
REMARK  8 active torsions:
REMARK  status: ('A' for Active; 'I' for Inactive)
REMARK    1  A    between atoms: C_1  and  C_4
REMARK    2  A    between atoms: C_1  and  N_7
REMARK    3  A    between atoms: C_1  and  C_12
REMARK    4  A    between atoms: C_4  and  O_5
REMARK    5  A    between atoms: N_7  and  N_9
REMARK    6  A    between atoms: C_12  and  C_13
REMARK    7  A    between atoms: C_16  and  O_19
REMARK    8  A    between atoms: C_18  and  O_21
REMARK                            x       y       z     vdW  Elec       q    Type
REMARK                         _______ _______ _______ _____ _____    ______ ____
ROOT
ATOM      1  C   UNL     1      36.917 -24.764 -14.583  0.00  0.00    +0.148 C 
ATOM      2  C   UNL     1      38.352 -24.360 -14.954  0.00  0.00    +0.029 C 
ENDROOT
BRANCH   1   4
ATOM      3  O   UNL     1      37.824 -26.321 -12.937  0.00  0.00    -0.249 OA
ATOM      4  C   UNL     1      36.918 -25.572 -13.283  0.00  0.00    +0.328 C 
BRANCH   4   5
ATOM      5  O   UNL     1      35.800 -25.403 -12.529  0.00  0.00    -0.479 OA
ATOM      6  H   UNL     1      35.667 -25.929 -11.764  0.00  0.00    +0.295 HD
ENDBRANCH   4   5
ENDBRANCH   1   4
BRANCH   1   7
ATOM      7  N   UNL     1      36.448 -25.658 -15.653  0.00  0.00    -0.241 NA
ATOM      8  H   UNL     1      35.663 -25.229 -16.143  0.00  0.00    +0.142 HD
BRANCH   7   9
ATOM      9  N   UNL     1      36.035 -26.879 -15.050  0.00  0.00    -0.269 NA
ATOM     10  H   UNL     1      35.459 -27.405 -15.708  0.00  0.00    +0.137 HD
ATOM     11  H   UNL     1      35.493 -26.676 -14.210  0.00  0.00    +0.137 HD
ENDBRANCH   7   9
ENDBRANCH   1   7
BRANCH   1  12
ATOM     12  C   UNL     1      35.972 -23.541 -14.512  0.00  0.00    +0.053 C 
BRANCH  12  13
ATOM     13  C   UNL     1      35.208 -23.233 -15.781  0.00  0.00    -0.017 C 
ATOM     14  C   UNL     1      35.855 -22.582 -16.817  0.00  0.00    +0.036 C 
ATOM     15  C   UNL     1      33.880 -23.608 -15.879  0.00  0.00    -0.001 C 
ATOM     16  C   UNL     1      35.150 -22.298 -17.988  0.00  0.00    +0.167 C 
ATOM     17  C   UNL     1      33.176 -23.324 -17.048  0.00  0.00    +0.039 C 
ATOM     18  C   UNL     1      33.810 -22.669 -18.103  0.00  0.00    +0.167 C 
BRANCH  16  19
ATOM     19  O   UNL     1      35.781 -21.658 -19.011  0.00  0.00    -0.503 OA
ATOM     20  H   UNL     1      35.289 -21.352 -19.748  0.00  0.00    +0.292 HD
ENDBRANCH  16  19
BRANCH  18  21
ATOM     21  O   UNL     1      33.112 -22.398 -19.241  0.00  0.00    -0.503 OA
ATOM     22  H   UNL     1      32.573 -21.633 -19.288  0.00  0.00    +0.292 HD
ENDBRANCH  18  21
ENDBRANCH  12  13
ENDBRANCH   1  12
TORSDOF 8
ENDMDL
MODEL 4
REMARK VINA RESULT:      -7.3      0.653      1.654
REMARK  Name = 34359
REMARK  8 active torsions:
REMARK  status: ('A' for Active; 'I' for Inactive)
REMARK    1  A    between atoms: C_1  and  C_4
REMARK    2  A    between atoms: C_1  and  N_7
REMARK    3  A    between atoms: C_1  and  C_12
REMARK    4  A    between atoms: C_4  and  O_5
REMARK    5  A    between atoms: N_7  and  N_9
REMARK    6  A    between atoms: C_12  and  C_13
REMARK    7  A    between atoms: C_16  and  O_19
REMARK    8  A    between atoms: C_18  and  O_21
REMARK                            x       y       z     vdW  Elec       q    Type
REMARK                         _______ _______ _______ _____ _____    ______ ____
ROOT
ATOM      1  C   UNL     1      35.142 -17.770 -21.943  0.00  0.00    +0.148 C 
ATOM      2  C   UNL     1      36.606 -18.161 -22.200  0.00  0.00    +0.029 C 
ENDROOT
BRANCH   1   4
ATOM      3  O   UNL     1      33.585 -16.219 -23.003  0.00  0.00    -0.249 OA
ATOM      4  C   UNL     1      34.736 -16.616 -22.862  0.00  0.00    +0.328 C 
BRANCH   4   5
ATOM      5  O   UNL     1      35.774 -16.063 -23.541  0.00  0.00    -0.479 OA
ATOM      6  H   UNL     1      35.862 -15.130 -23.584  0.00  0.00    +0.295 HD
ENDBRANCH   4   5
ENDBRANCH   1   4
BRANCH   1   7
ATOM      7  N   UNL     1      35.083 -17.271 -20.560  0.00  0.00    -0.241 NA
ATOM      8  H   UNL     1      34.268 -17.661 -20.086  0.00  0.00    +0.142 HD
BRANCH   7   9
ATOM      9  N   UNL     1      34.979 -15.852 -20.615  0.00  0.00    -0.269 NA
ATOM     10  H   UNL     1      35.887 -15.437 -20.405  0.00  0.00    +0.137 HD
ATOM     11  H   UNL     1      34.293 -15.536 -19.930  0.00  0.00    +0.137 HD
ENDBRANCH   7   9
ENDBRANCH   1   7
BRANCH   1  12
ATOM     12  C   UNL     1      34.190 -18.983 -22.071  0.00  0.00    +0.053 C 
BRANCH  12  13
ATOM     13  C   UNL     1      34.278 -20.002 -20.954  0.00  0.00    -0.017 C 
ATOM     14  C   UNL     1      35.523 -20.412 -20.512  0.00  0.00    +0.036 C 
ATOM     15  C   UNL     1      33.112 -20.501 -20.401  0.00  0.00    -0.001 C 
ATOM     16  C   UNL     1      35.604 -21.350 -19.483  0.00  0.00    +0.167 C 
ATOM     17  C   UNL     1      33.193 -21.440 -19.373  0.00  0.00    +0.039 C 
ATOM     18  C   UNL     1      34.439 -21.864 -18.914  0.00  0.00    +0.167 C 
BRANCH  16  19
ATOM     19  O   UNL     1      36.828 -21.757 -19.042  0.00  0.00    -0.503 OA
ATOM     20  H   UNL     1      37.281 -22.446 -19.486  0.00  0.00    +0.292 HD
ENDBRANCH  16  19
BRANCH  18  21
ATOM     21  O   UNL     1      34.506 -22.781 -17.908  0.00  0.00    -0.503 OA
ATOM     22  H   UNL     1      34.113 -23.625 -18.017  0.00  0.00    +0.292 HD
ENDBRANCH  18  21
ENDBRANCH  12  13
ENDBRANCH   1  12
TORSDOF 8
ENDMDL
MODEL 5
REMARK VINA RESULT:      -7.3      1.543      1.786
REMARK  Name = 34359
REMARK  8 active torsions:
REMARK  status: ('A' for Active; 'I' for Inactive)
REMARK    1  A    between atoms: C_1  and  C_4
REMARK    2  A    between atoms: C_1  and  N_7
REMARK    3  A    between atoms: C_1  and  C_12
REMARK    4  A    between atoms: C_4  and  O_5
REMARK    5  A    between atoms: N_7  and  N_9
REMARK    6  A    between atoms: C_12  and  C_13
REMARK    7  A    between atoms: C_16  and  O_19
REMARK    8  A    between atoms: C_18  and  O_21
REMARK                            x       y       z     vdW  Elec       q    Type
REMARK                         _______ _______ _______ _____ _____    ______ ____
ROOT
ATOM      1  C   UNL     1      35.325 -17.895 -22.195  0.00  0.00    +0.148 C 
ATOM      2  C   UNL     1      34.396 -18.801 -23.018  0.00  0.00    +0.029 C 
ENDROOT
BRANCH   1   4
ATOM      3  O   UNL     1      33.298 -16.796 -21.397  0.00  0.00    -0.249 OA
ATOM      4  C   UNL     1      34.500 -16.999 -21.269  0.00  0.00    +0.328 C 
BRANCH   4   5
ATOM      5  O   UNL     1      35.224 -16.417 -20.278  0.00  0.00    -0.479 OA
ATOM      6  H   UNL     1      35.700 -15.627 -20.448  0.00  0.00    +0.295 HD
ENDBRANCH   4   5
ENDBRANCH   1   4
BRANCH   1   7
ATOM      7  N   UNL     1      36.009 -17.019 -23.158  0.00  0.00    -0.241 NA
ATOM      8  H   UNL     1      36.940 -16.784 -22.813  0.00  0.00    +0.142 HD
BRANCH   7   9
ATOM      9  N   UNL     1      35.231 -15.835 -23.297  0.00  0.00    -0.269 NA
ATOM     10  H   UNL     1      35.842 -15.053 -23.534  0.00  0.00    +0.137 HD
ATOM     11  H   UNL     1      34.752 -15.639 -22.418  0.00  0.00    +0.137 HD
ENDBRANCH   7   9
ENDBRANCH   1   7
BRANCH   1  12
ATOM     12  C   UNL     1      36.392 -18.710 -21.424  0.00  0.00    +0.053 C 
BRANCH  12  13
ATOM     13  C   UNL     1      35.860 -19.855 -20.591  0.00  0.00    -0.017 C 
ATOM     14  C   UNL     1      34.505 -20.136 -20.616  0.00  0.00    +0.036 C 
ATOM     15  C   UNL     1      36.739 -20.597 -19.822  0.00  0.00    -0.001 C 
ATOM     16  C   UNL     1      34.015 -21.193 -19.848  0.00  0.00    +0.167 C 
ATOM     17  C   UNL     1      36.250 -21.652 -19.054  0.00  0.00    +0.039 C 
ATOM     18  C   UNL     1      34.887 -21.951 -19.066  0.00  0.00    +0.167 C 
BRANCH  16  19
ATOM     19  O   UNL     1      32.682 -21.475 -19.869  0.00  0.00    -0.503 OA
ATOM     20  H   UNL     1      32.076 -20.906 -19.436  0.00  0.00    +0.292 HD
ENDBRANCH  16  19
BRANCH  18  21
ATOM     21  O   UNL     1      34.421 -22.985 -18.313  0.00  0.00    -0.503 OA
ATOM     22  H   UNL     1      34.358 -23.844 -18.684  0.00  0.00    +0.292 HD
ENDBRANCH  18  21
ENDBRANCH  12  13
ENDBRANCH   1  12
TORSDOF 8
ENDMDL
MODEL 6
REMARK VINA RESULT:      -7.2      5.671      8.446
REMARK  Name = 34359
REMARK  8 active torsions:
REMARK  status: ('A' for Active; 'I' for Inactive)
REMARK    1  A    between atoms: C_1  and  C_4
REMARK    2  A    between atoms: C_1  and  N_7
REMARK    3  A    between atoms: C_1  and  C_12
REMARK    4  A    between atoms: C_4  and  O_5
REMARK    5  A    between atoms: N_7  and  N_9
REMARK    6  A    between atoms: C_12  and  C_13
REMARK    7  A    between atoms: C_16  and  O_19
REMARK    8  A    between atoms: C_18  and  O_21
REMARK                            x       y       z     vdW  Elec       q    Type
REMARK                         _______ _______ _______ _____ _____    ______ ____
ROOT
ATOM      1  C   UNL     1      36.169 -24.804 -14.324  0.00  0.00    +0.148 C 
ATOM      2  C   UNL     1      35.855 -25.883 -15.372  0.00  0.00    +0.029 C 
ENDROOT
BRANCH   1   4
ATOM      3  O   UNL     1      38.212 -23.740 -13.518  0.00  0.00    -0.249 OA
ATOM      4  C   UNL     1      37.674 -24.529 -14.287  0.00  0.00    +0.328 C 
BRANCH   4   5
ATOM      5  O   UNL     1      38.385 -25.233 -15.206  0.00  0.00    -0.479 OA
ATOM      6  H   UNL     1      39.307 -25.358 -15.089  0.00  0.00    +0.295 HD
ENDBRANCH   4   5
ENDBRANCH   1   4
BRANCH   1   7
ATOM      7  N   UNL     1      35.795 -25.372 -13.020  0.00  0.00    -0.241 NA
ATOM      8  H   UNL     1      35.744 -24.631 -12.320  0.00  0.00    +0.142 HD
BRANCH   7   9
ATOM      9  N   UNL     1      36.795 -26.317 -12.654  0.00  0.00    -0.269 NA
ATOM     10  H   UNL     1      37.498 -25.859 -12.073  0.00  0.00    +0.137 HD
ATOM     11  H   UNL     1      37.237 -26.685 -13.496  0.00  0.00    +0.137 HD
ENDBRANCH   7   9
ENDBRANCH   1   7
BRANCH   1  12
ATOM     12  C   UNL     1      35.344 -23.516 -14.556  0.00  0.00    +0.053 C 
BRANCH  12  13
ATOM     13  C   UNL     1      35.352 -22.983 -15.973  0.00  0.00    -0.017 C 
ATOM     14  C   UNL     1      34.217 -23.120 -16.752  0.00  0.00    +0.036 C 
ATOM     15  C   UNL     1      36.495 -22.373 -16.459  0.00  0.00    -0.001 C 
ATOM     16  C   UNL     1      34.225 -22.629 -18.058  0.00  0.00    +0.167 C 
ATOM     17  C   UNL     1      36.503 -21.882 -17.764  0.00  0.00    +0.039 C 
ATOM     18  C   UNL     1      35.368 -22.011 -18.564  0.00  0.00    +0.167 C 
BRANCH  16  19
ATOM     19  O   UNL     1      33.110 -22.759 -18.830  0.00  0.00    -0.503 OA
ATOM     20  H   UNL     1      32.318 -22.321 -18.588  0.00  0.00    +0.292 HD
ENDBRANCH  16  19
BRANCH  18  21
ATOM     21  O   UNL     1      35.388 -21.527 -19.837  0.00  0.00    -0.503 OA
ATOM     22  H   UNL     1      34.659 -21.677 -20.406  0.00  0.00    +0.292 HD
ENDBRANCH  18  21
ENDBRANCH  12  13
ENDBRANCH   1  12
TORSDOF 8
ENDMDL
MODEL 7
REMARK VINA RESULT:      -7.2      6.696      9.387
REMARK  Name = 34359
REMARK  8 active torsions:
REMARK  status: ('A' for Active; 'I' for Inactive)
REMARK    1  A    between atoms: C_1  and  C_4
REMARK    2  A    between atoms: C_1  and  N_7
REMARK    3  A    between atoms: C_1  and  C_12
REMARK    4  A    between atoms: C_4  and  O_5
REMARK    5  A    between atoms: N_7  and  N_9
REMARK    6  A    between atoms: C_12  and  C_13
REMARK    7  A    between atoms: C_16  and  O_19
REMARK    8  A    between atoms: C_18  and  O_21
REMARK                            x       y       z     vdW  Elec       q    Type
REMARK                         _______ _______ _______ _____ _____    ______ ____
ROOT
ATOM      1  C   UNL     1      36.790 -24.759 -12.764  0.00  0.00    +0.148 C 
ATOM      2  C   UNL     1      36.952 -25.734 -13.941  0.00  0.00    +0.029 C 
ENDROOT
BRANCH   1   4
ATOM      3  O   UNL     1      38.308 -23.285 -11.548  0.00  0.00    -0.249 OA
ATOM      4  C   UNL     1      38.151 -24.182 -12.369  0.00  0.00    +0.328 C 
BRANCH   4   5
ATOM      5  O   UNL     1      39.199 -24.743 -13.026  0.00  0.00    -0.479 OA
ATOM      6  H   UNL     1      39.764 -24.208 -13.551  0.00  0.00    +0.295 HD
ENDBRANCH   4   5
ENDBRANCH   1   4
BRANCH   1   7
ATOM      7  N   UNL     1      36.306 -25.557 -11.628  0.00  0.00    -0.241 NA
ATOM      8  H   UNL     1      35.775 -26.359 -11.969  0.00  0.00    +0.142 HD
BRANCH   7   9
ATOM      9  N   UNL     1      35.467 -24.722 -10.837  0.00  0.00    -0.269 NA
ATOM     10  H   UNL     1      35.915 -23.814 -10.709  0.00  0.00    +0.137 HD
ATOM     11  H   UNL     1      35.315 -25.158  -9.927  0.00  0.00    +0.137 HD
ENDBRANCH   7   9
ENDBRANCH   1   7
BRANCH   1  12
ATOM     12  C   UNL     1      35.752 -23.652 -13.070  0.00  0.00    +0.053 C 
BRANCH  12  13
ATOM     13  C   UNL     1      35.594 -23.293 -14.531  0.00  0.00    -0.017 C 
ATOM     14  C   UNL     1      34.391 -23.553 -15.164  0.00  0.00    +0.036 C 
ATOM     15  C   UNL     1      36.656 -22.714 -15.204  0.00  0.00    -0.001 C 
ATOM     16  C   UNL     1      34.245 -23.221 -16.511  0.00  0.00    +0.167 C 
ATOM     17  C   UNL     1      36.510 -22.383 -16.550  0.00  0.00    +0.039 C 
ATOM     18  C   UNL     1      35.305 -22.637 -17.204  0.00  0.00    +0.167 C 
BRANCH  16  19
ATOM     19  O   UNL     1      33.063 -23.474 -17.139  0.00  0.00    -0.503 OA
ATOM     20  H   UNL     1      33.012 -23.442 -18.074  0.00  0.00    +0.292 HD
ENDBRANCH  16  19
BRANCH  18  21
ATOM     21  O   UNL     1      35.175 -22.308 -18.520  0.00  0.00    -0.503 OA
ATOM     22  H   UNL     1      35.718 -21.641 -18.892  0.00  0.00    +0.292 HD
ENDBRANCH  18  21
ENDBRANCH  12  13
ENDBRANCH   1  12
TORSDOF 8
ENDMDL
MODEL 8
REMARK VINA RESULT:      -7.2      6.682      8.859
REMARK  Name = 34359
REMARK  8 active torsions:
REMARK  status: ('A' for Active; 'I' for Inactive)
REMARK    1  A    between atoms: C_1  and  C_4
REMARK    2  A    between atoms: C_1  and  N_7
REMARK    3  A    between atoms: C_1  and  C_12
REMARK    4  A    between atoms: C_4  and  O_5
REMARK    5  A    between atoms: N_7  and  N_9
REMARK    6  A    between atoms: C_12  and  C_13
REMARK    7  A    between atoms: C_16  and  O_19
REMARK    8  A    between atoms: C_18  and  O_21
REMARK                            x       y       z     vdW  Elec       q    Type
REMARK                         _______ _______ _______ _____ _____    ______ ____
ROOT
ATOM      1  C   UNL     1      36.384 -24.872 -14.496  0.00  0.00    +0.148 C 
ATOM      2  C   UNL     1      35.709 -25.901 -15.416  0.00  0.00    +0.029 C 
ENDROOT
BRANCH   1   4
ATOM      3  O   UNL     1      38.698 -24.253 -14.029  0.00  0.00    -0.249 OA
ATOM      4  C   UNL     1      37.906 -25.001 -14.591  0.00  0.00    +0.328 C 
BRANCH   4   5
ATOM      5  O   UNL     1      38.324 -26.026 -15.379  0.00  0.00    -0.479 OA
ATOM      6  H   UNL     1      38.171 -26.912 -15.115  0.00  0.00    +0.295 HD
ENDBRANCH   4   5
ENDBRANCH   1   4
BRANCH   1   7
ATOM      7  N   UNL     1      35.998 -25.228 -13.122  0.00  0.00    -0.241 NA
ATOM      8  H   UNL     1      36.159 -24.435 -12.500  0.00  0.00    +0.142 HD
BRANCH   7   9
ATOM      9  N   UNL     1      36.801 -26.332 -12.718  0.00  0.00    -0.269 NA
ATOM     10  H   UNL     1      37.766 -26.023 -12.596  0.00  0.00    +0.137 HD
ATOM     11  H   UNL     1      36.764 -27.058 -13.432  0.00  0.00    +0.137 HD
ENDBRANCH   7   9
ENDBRANCH   1   7
BRANCH   1  12
ATOM     12  C   UNL     1      35.900 -23.431 -14.787  0.00  0.00    +0.053 C 
BRANCH  12  13
ATOM     13  C   UNL     1      34.508 -23.318 -15.371  0.00  0.00    -0.017 C 
ATOM     14  C   UNL     1      34.361 -23.087 -16.727  0.00  0.00    +0.036 C 
ATOM     15  C   UNL     1      33.412 -23.446 -14.535  0.00  0.00    -0.001 C 
ATOM     16  C   UNL     1      33.078 -22.983 -17.264  0.00  0.00    +0.167 C 
ATOM     17  C   UNL     1      32.130 -23.340 -15.072  0.00  0.00    +0.039 C 
ATOM     18  C   UNL     1      31.962 -23.109 -16.437  0.00  0.00    +0.167 C 
BRANCH  16  19
ATOM     19  O   UNL     1      32.927 -22.757 -18.600  0.00  0.00    -0.503 OA
ATOM     20  H   UNL     1      33.494 -22.155 -19.040  0.00  0.00    +0.292 HD
ENDBRANCH  16  19
BRANCH  18  21
ATOM     21  O   UNL     1      30.704 -23.009 -16.950  0.00  0.00    -0.503 OA
ATOM     22  H   UNL     1      30.184 -23.780 -17.068  0.00  0.00    +0.292 HD
ENDBRANCH  18  21
ENDBRANCH  12  13
ENDBRANCH   1  12
TORSDOF 8
ENDMDL
MODEL 9
REMARK VINA RESULT:      -7.2      6.859      9.601
REMARK  Name = 34359
REMARK  8 active torsions:
REMARK  status: ('A' for Active; 'I' for Inactive)
REMARK    1  A    between atoms: C_1  and  C_4
REMARK    2  A    between atoms: C_1  and  N_7
REMARK    3  A    between atoms: C_1  and  C_12
REMARK    4  A    between atoms: C_4  and  O_5
REMARK    5  A    between atoms: N_7  and  N_9
REMARK    6  A    between atoms: C_12  and  C_13
REMARK    7  A    between atoms: C_16  and  O_19
REMARK    8  A    between atoms: C_18  and  O_21
REMARK                            x       y       z     vdW  Elec       q    Type
REMARK                         _______ _______ _______ _____ _____    ______ ____
ROOT
ATOM      1  C   UNL     1      36.811 -24.903 -12.773  0.00  0.00    +0.148 C 
ATOM      2  C   UNL     1      36.861 -25.888 -13.952  0.00  0.00    +0.029 C 
ENDROOT
BRANCH   1   4
ATOM      3  O   UNL     1      39.222 -24.694 -13.088  0.00  0.00    -0.249 OA
ATOM      4  C   UNL     1      38.204 -24.325 -12.513  0.00  0.00    +0.328 C 
BRANCH   4   5
ATOM      5  O   UNL     1      38.229 -23.357 -11.560  0.00  0.00    -0.479 OA
ATOM      6  H   UNL     1      38.023 -22.471 -11.787  0.00  0.00    +0.295 HD
ENDBRANCH   4   5
ENDBRANCH   1   4
BRANCH   1   7
ATOM      7  N   UNL     1      36.436 -25.691 -11.590  0.00  0.00    -0.241 NA
ATOM      8  H   UNL     1      36.012 -26.572 -11.880  0.00  0.00    +0.142 HD
BRANCH   7   9
ATOM      9  N   UNL     1      35.500 -24.927 -10.837  0.00  0.00    -0.269 NA
ATOM     10  H   UNL     1      34.696 -24.703 -11.424  0.00  0.00    +0.137 HD
ATOM     11  H   UNL     1      35.942 -24.064 -10.522  0.00  0.00    +0.137 HD
ENDBRANCH   7   9
ENDBRANCH   1   7
BRANCH   1  12
ATOM     12  C   UNL     1      35.749 -23.798 -12.988  0.00  0.00    +0.053 C 
BRANCH  12  13
ATOM     13  C   UNL     1      35.443 -23.462 -14.432  0.00  0.00    -0.017 C 
ATOM     14  C   UNL     1      36.408 -22.832 -15.198  0.00  0.00    +0.036 C 
ATOM     15  C   UNL     1      34.203 -23.789 -14.954  0.00  0.00    -0.001 C 
ATOM     16  C   UNL     1      36.125 -22.522 -16.528  0.00  0.00    +0.167 C 
ATOM     17  C   UNL     1      33.920 -23.478 -16.283  0.00  0.00    +0.039 C 
ATOM     18  C   UNL     1      34.881 -22.845 -17.071  0.00  0.00    +0.167 C 
BRANCH  16  19
ATOM     19  O   UNL     1      37.072 -21.904 -17.288  0.00  0.00    -0.503 OA
ATOM     20  H   UNL     1      37.668 -22.413 -17.801  0.00  0.00    +0.292 HD
ENDBRANCH  16  19
BRANCH  18  21
ATOM     21  O   UNL     1      34.593 -22.547 -18.369  0.00  0.00    -0.503 OA
ATOM     22  H   UNL     1      34.337 -21.677 -18.604  0.00  0.00    +0.292 HD
ENDBRANCH  18  21
ENDBRANCH  12  13
ENDBRANCH   1  12
TORSDOF 8
ENDMDL
