MODEL 1
REMARK VINA RESULT:      -3.1      0.000      0.000
REMARK  Name = 3776
REMARK  1 active torsions:
REMARK  status: ('A' for Active; 'I' for Inactive)
REMARK    1  A    between atoms: C_1  and  O_4
REMARK                            x       y       z     vdW  Elec       q    Type
REMARK                         _______ _______ _______ _____ _____    ______ ____
ROOT
ATOM      1  C   UNL     1      33.492 -20.962 -19.685  0.00  0.00    +0.111 C 
ATOM      2  C   UNL     1      34.997 -21.054 -19.885  0.00  0.00    +0.032 C 
ATOM      3  C   UNL     1      32.840 -20.044 -20.707  0.00  0.00    +0.032 C 
ENDROOT
BRANCH   1   4
ATOM      4  O   UNL     1      32.924 -22.263 -19.794  0.00  0.00    -0.384 OA
ATOM      5  H   UNL     1      33.616 -22.899 -20.039  0.00  0.00    +0.210 HD
ENDBRANCH   1   4
TORSDOF 1
ENDMDL
MODEL 2
REMARK VINA RESULT:      -3.0      6.823      7.297
REMARK  Name = 3776
REMARK  1 active torsions:
REMARK  status: ('A' for Active; 'I' for Inactive)
REMARK    1  A    between atoms: C_1  and  O_4
REMARK                            x       y       z     vdW  Elec       q    Type
REMARK                         _______ _______ _______ _____ _____    ______ ____
ROOT
ATOM      1  C   UNL     1      28.371 -23.418 -16.592  0.00  0.00    +0.111 C 
ATOM      2  C   UNL     1      27.436 -22.431 -15.909  0.00  0.00    +0.032 C 
ATOM      3  C   UNL     1      28.931 -24.438 -15.614  0.00  0.00    +0.032 C 
ENDROOT
BRANCH   1   4
ATOM      4  O   UNL     1      27.663 -24.097 -17.624  0.00  0.00    -0.384 OA
ATOM      5  H   UNL     1      28.245 -24.218 -18.391  0.00  0.00    +0.210 HD
ENDBRANCH   1   4
TORSDOF 1
ENDMDL
MODEL 3
REMARK VINA RESULT:      -3.0     10.262     10.608
REMARK  Name = 3776
REMARK  1 active torsions:
REMARK  status: ('A' for Active; 'I' for Inactive)
REMARK    1  A    between atoms: C_1  and  O_4
REMARK                            x       y       z     vdW  Elec       q    Type
REMARK                         _______ _______ _______ _____ _____    ______ ____
ROOT
ATOM      1  C   UNL     1      41.172 -15.049 -15.509  0.00  0.00    +0.111 C 
ATOM      2  C   UNL     1      41.218 -14.595 -16.961  0.00  0.00    +0.032 C 
ATOM      3  C   UNL     1      40.818 -13.907 -14.570  0.00  0.00    +0.032 C 
ENDROOT
BRANCH   1   4
ATOM      4  O   UNL     1      40.206 -16.086 -15.372  0.00  0.00    -0.384 OA
ATOM      5  H   UNL     1      39.559 -16.022 -16.093  0.00  0.00    +0.210 HD
ENDBRANCH   1   4
TORSDOF 1
ENDMDL
MODEL 4
REMARK VINA RESULT:      -2.9      2.345      2.635
REMARK  Name = 3776
REMARK  1 active torsions:
REMARK  status: ('A' for Active; 'I' for Inactive)
REMARK    1  A    between atoms: C_1  and  O_4
REMARK                            x       y       z     vdW  Elec       q    Type
REMARK                         _______ _______ _______ _____ _____    ______ ____
ROOT
ATOM      1  C   UNL     1      34.293 -19.278 -20.975  0.00  0.00    +0.111 C 
ATOM      2  C   UNL     1      34.559 -19.275 -22.473  0.00  0.00    +0.032 C 
ATOM      3  C   UNL     1      33.062 -20.099 -20.621  0.00  0.00    +0.032 C 
ENDROOT
BRANCH   1   4
ATOM      4  O   UNL     1      35.425 -19.815 -20.299  0.00  0.00    -0.384 OA
ATOM      5  H   UNL     1      35.251 -19.834 -19.344  0.00  0.00    +0.210 HD
ENDBRANCH   1   4
TORSDOF 1
ENDMDL
MODEL 5
REMARK VINA RESULT:      -2.9      7.388      7.940
REMARK  Name = 3776
REMARK  1 active torsions:
REMARK  status: ('A' for Active; 'I' for Inactive)
REMARK    1  A    between atoms: C_1  and  O_4
REMARK                            x       y       z     vdW  Elec       q    Type
REMARK                         _______ _______ _______ _____ _____    ______ ____
ROOT
ATOM      1  C   UNL     1      36.834 -26.595 -14.990  0.00  0.00    +0.111 C 
ATOM      2  C   UNL     1      38.256 -26.186 -14.635  0.00  0.00    +0.032 C 
ATOM      3  C   UNL     1      35.898 -25.398 -15.047  0.00  0.00    +0.032 C 
ENDROOT
BRANCH   1   4
ATOM      4  O   UNL     1      36.836 -27.249 -16.255  0.00  0.00    -0.384 OA
ATOM      5  H   UNL     1      36.006 -27.739 -16.366  0.00  0.00    +0.210 HD
ENDBRANCH   1   4
TORSDOF 1
ENDMDL
MODEL 6
REMARK VINA RESULT:      -2.9      2.986      3.218
REMARK  Name = 3776
REMARK  1 active torsions:
REMARK  status: ('A' for Active; 'I' for Inactive)
REMARK    1  A    between atoms: C_1  and  O_4
REMARK                            x       y       z     vdW  Elec       q    Type
REMARK                         _______ _______ _______ _____ _____    ______ ____
ROOT
ATOM      1  C   UNL     1      34.937 -19.584 -21.341  0.00  0.00    +0.111 C 
ATOM      2  C   UNL     1      33.600 -19.913 -20.695  0.00  0.00    +0.032 C 
ATOM      3  C   UNL     1      34.787 -19.261 -22.820  0.00  0.00    +0.032 C 
ENDROOT
BRANCH   1   4
ATOM      4  O   UNL     1      35.519 -18.468 -20.675  0.00  0.00    -0.384 OA
ATOM      5  H   UNL     1      35.247 -18.471 -19.743  0.00  0.00    +0.210 HD
ENDBRANCH   1   4
TORSDOF 1
ENDMDL
MODEL 7
REMARK VINA RESULT:      -2.9      2.635      2.790
REMARK  Name = 3776
REMARK  1 active torsions:
REMARK  status: ('A' for Active; 'I' for Inactive)
REMARK    1  A    between atoms: C_1  and  O_4
REMARK                            x       y       z     vdW  Elec       q    Type
REMARK                         _______ _______ _______ _____ _____    ______ ____
ROOT
ATOM      1  C   UNL     1      35.285 -19.787 -20.953  0.00  0.00    +0.111 C 
ATOM      2  C   UNL     1      35.982 -20.839 -20.103  0.00  0.00    +0.032 C 
ATOM      3  C   UNL     1      33.775 -19.819 -20.769  0.00  0.00    +0.032 C 
ENDROOT
BRANCH   1   4
ATOM      4  O   UNL     1      35.773 -18.498 -20.597  0.00  0.00    -0.384 OA
ATOM      5  H   UNL     1      35.106 -18.035 -20.065  0.00  0.00    +0.210 HD
ENDBRANCH   1   4
TORSDOF 1
ENDMDL
MODEL 8
REMARK VINA RESULT:      -2.9      5.607      6.080
REMARK  Name = 3776
REMARK  1 active torsions:
REMARK  status: ('A' for Active; 'I' for Inactive)
REMARK    1  A    between atoms: C_1  and  O_4
REMARK                            x       y       z     vdW  Elec       q    Type
REMARK                         _______ _______ _______ _____ _____    ______ ____
ROOT
ATOM      1  C   UNL     1      34.884 -17.267 -23.686  0.00  0.00    +0.111 C 
ATOM      2  C   UNL     1      34.565 -17.546 -25.147  0.00  0.00    +0.032 C 
ATOM      3  C   UNL     1      35.635 -18.420 -23.039  0.00  0.00    +0.032 C 
ENDROOT
BRANCH   1   4
ATOM      4  O   UNL     1      35.672 -16.085 -23.595  0.00  0.00    -0.384 OA
ATOM      5  H   UNL     1      35.533 -15.542 -24.388  0.00  0.00    +0.210 HD
ENDBRANCH   1   4
TORSDOF 1
ENDMDL
MODEL 9
REMARK VINA RESULT:      -2.8      6.005      6.382
REMARK  Name = 3776
REMARK  1 active torsions:
REMARK  status: ('A' for Active; 'I' for Inactive)
REMARK    1  A    between atoms: C_1  and  O_4
REMARK                            x       y       z     vdW  Elec       q    Type
REMARK                         _______ _______ _______ _____ _____    ______ ____
ROOT
ATOM      1  C   UNL     1      34.400 -17.154 -24.572  0.00  0.00    +0.111 C 
ATOM      2  C   UNL     1      34.716 -18.625 -24.349  0.00  0.00    +0.032 C 
ATOM      3  C   UNL     1      35.043 -16.270 -23.514  0.00  0.00    +0.032 C 
ENDROOT
BRANCH   1   4
ATOM      4  O   UNL     1      34.869 -16.762 -25.858  0.00  0.00    -0.384 OA
ATOM      5  H   UNL     1      35.503 -17.420 -26.185  0.00  0.00    +0.210 HD
ENDBRANCH   1   4
TORSDOF 1
ENDMDL
