MODEL 1
REMARK VINA RESULT:      -5.4      0.000      0.000
REMARK  Name = 4469987
REMARK  1 active torsions:
REMARK  status: ('A' for Active; 'I' for Inactive)
REMARK    1  A    between atoms: N_4  and  C_5
REMARK                            x       y       z     vdW  Elec       q    Type
REMARK                         _______ _______ _______ _____ _____    ______ ____
ROOT
ATOM      1  O   UNL     1      34.184 -22.999 -18.734  0.00  0.00    -0.252 OA
ATOM      2  N   UNL     1      35.200 -21.111 -19.683  0.00  0.00    -0.230 N 
ATOM      3  N   UNL     1      32.856 -21.538 -19.930  0.00  0.00    -0.284 N 
ATOM      4  C   UNL     1      35.106 -19.976 -20.404  0.00  0.00    +0.098 C 
ATOM      5  C   UNL     1      34.054 -21.976 -19.397  0.00  0.00    +0.309 C 
ATOM      6  C   UNL     1      33.760 -19.609 -20.925  0.00  0.00    +0.025 C 
ATOM      7  C   UNL     1      36.527 -21.497 -19.156  0.00  0.00    +0.123 C 
ATOM      8  C   UNL     1      32.715 -20.397 -20.667  0.00  0.00    +0.120 C 
ATOM      9  H   UNL     1      32.053 -22.083 -19.768  0.00  0.00    +0.151 HD
ENDROOT
BRANCH   4  10
ATOM     10  N   UNL     1      36.093 -19.139 -20.708  0.00  0.00    -0.346 N 
ATOM     11  H   UNL     1      35.996 -18.520 -21.467  0.00  0.00    +0.143 HD
ATOM     12  H   UNL     1      36.921 -19.139 -20.174  0.00  0.00    +0.143 HD
ENDBRANCH   4  10
TORSDOF 1
ENDMDL
MODEL 2
REMARK VINA RESULT:      -5.3      4.076      5.276
REMARK  Name = 4469987
REMARK  1 active torsions:
REMARK  status: ('A' for Active; 'I' for Inactive)
REMARK    1  A    between atoms: N_4  and  C_5
REMARK                            x       y       z     vdW  Elec       q    Type
REMARK                         _______ _______ _______ _____ _____    ______ ____
ROOT
ATOM      1  O   UNL     1      34.925 -15.826 -20.369  0.00  0.00    -0.252 OA
ATOM      2  N   UNL     1      34.827 -16.483 -22.618  0.00  0.00    -0.230 N 
ATOM      3  N   UNL     1      35.226 -18.061 -20.860  0.00  0.00    -0.284 N 
ATOM      4  C   UNL     1      34.891 -17.452 -23.552  0.00  0.00    +0.098 C 
ATOM      5  C   UNL     1      34.993 -16.738 -21.185  0.00  0.00    +0.309 C 
ATOM      6  C   UNL     1      35.147 -18.841 -23.077  0.00  0.00    +0.025 C 
ATOM      7  C   UNL     1      34.576 -15.096 -23.066  0.00  0.00    +0.123 C 
ATOM      8  C   UNL     1      35.300 -19.075 -21.773  0.00  0.00    +0.120 C 
ATOM      9  H   UNL     1      35.345 -18.288 -19.911  0.00  0.00    +0.151 HD
ENDROOT
BRANCH   4  10
ATOM     10  N   UNL     1      34.753 -17.306 -24.866  0.00  0.00    -0.346 N 
ATOM     11  H   UNL     1      35.490 -17.556 -25.469  0.00  0.00    +0.143 HD
ATOM     12  H   UNL     1      33.914 -16.946 -25.236  0.00  0.00    +0.143 HD
ENDBRANCH   4  10
TORSDOF 1
ENDMDL
MODEL 3
REMARK VINA RESULT:      -5.3      1.325      2.709
REMARK  Name = 4469987
REMARK  1 active torsions:
REMARK  status: ('A' for Active; 'I' for Inactive)
REMARK    1  A    between atoms: N_4  and  C_5
REMARK                            x       y       z     vdW  Elec       q    Type
REMARK                         _______ _______ _______ _____ _____    ______ ____
ROOT
ATOM      1  O   UNL     1      36.750 -21.730 -18.797  0.00  0.00    -0.252 OA
ATOM      2  N   UNL     1      34.644 -21.165 -19.661  0.00  0.00    -0.230 N 
ATOM      3  N   UNL     1      36.608 -19.908 -20.209  0.00  0.00    -0.284 N 
ATOM      4  C   UNL     1      33.876 -20.367 -20.428  0.00  0.00    +0.098 C 
ATOM      5  C   UNL     1      36.088 -20.979 -19.504  0.00  0.00    +0.309 C 
ATOM      6  C   UNL     1      34.554 -19.246 -21.138  0.00  0.00    +0.025 C 
ATOM      7  C   UNL     1      33.993 -22.283 -18.945  0.00  0.00    +0.123 C 
ATOM      8  C   UNL     1      35.868 -19.074 -20.996  0.00  0.00    +0.120 C 
ATOM      9  H   UNL     1      37.575 -19.738 -20.138  0.00  0.00    +0.151 HD
ENDROOT
BRANCH   4  10
ATOM     10  N   UNL     1      32.565 -20.467 -20.622  0.00  0.00    -0.346 N 
ATOM     11  H   UNL     1      32.053 -21.174 -20.166  0.00  0.00    +0.143 HD
ATOM     12  H   UNL     1      32.105 -19.835 -21.222  0.00  0.00    +0.143 HD
ENDBRANCH   4  10
TORSDOF 1
ENDMDL
MODEL 4
REMARK VINA RESULT:      -5.3      5.063      6.179
REMARK  Name = 4469987
REMARK  1 active torsions:
REMARK  status: ('A' for Active; 'I' for Inactive)
REMARK    1  A    between atoms: N_4  and  C_5
REMARK                            x       y       z     vdW  Elec       q    Type
REMARK                         _______ _______ _______ _____ _____    ______ ____
ROOT
ATOM      1  O   UNL     1      34.195 -16.156 -25.944  0.00  0.00    -0.252 OA
ATOM      2  N   UNL     1      34.589 -16.391 -23.645  0.00  0.00    -0.230 N 
ATOM      3  N   UNL     1      34.554 -18.281 -25.116  0.00  0.00    -0.284 N 
ATOM      4  C   UNL     1      34.846 -17.179 -22.581  0.00  0.00    +0.098 C 
ATOM      5  C   UNL     1      34.426 -16.909 -25.005  0.00  0.00    +0.309 C 
ATOM      6  C   UNL     1      34.962 -18.643 -22.830  0.00  0.00    +0.025 C 
ATOM      7  C   UNL     1      34.467 -14.934 -23.422  0.00  0.00    +0.123 C 
ATOM      8  C   UNL     1      34.812 -19.117 -24.068  0.00  0.00    +0.120 C 
ATOM      9  H   UNL     1      34.453 -18.681 -26.009  0.00  0.00    +0.151 HD
ENDROOT
BRANCH   4  10
ATOM     10  N   UNL     1      35.006 -16.791 -21.321  0.00  0.00    -0.346 N 
ATOM     11  H   UNL     1      35.485 -17.370 -20.685  0.00  0.00    +0.143 HD
ATOM     12  H   UNL     1      34.645 -15.924 -21.022  0.00  0.00    +0.143 HD
ENDBRANCH   4  10
TORSDOF 1
ENDMDL
MODEL 5
REMARK VINA RESULT:      -5.2      6.113      7.430
REMARK  Name = 4469987
REMARK  1 active torsions:
REMARK  status: ('A' for Active; 'I' for Inactive)
REMARK    1  A    between atoms: N_4  and  C_5
REMARK                            x       y       z     vdW  Elec       q    Type
REMARK                         _______ _______ _______ _____ _____    ______ ____
ROOT
ATOM      1  O   UNL     1      34.785 -17.197 -25.963  0.00  0.00    -0.252 OA
ATOM      2  N   UNL     1      33.705 -15.411 -24.894  0.00  0.00    -0.230 N 
ATOM      3  N   UNL     1      35.227 -16.844 -23.725  0.00  0.00    -0.284 N 
ATOM      4  C   UNL     1      33.483 -14.681 -23.783  0.00  0.00    +0.098 C 
ATOM      5  C   UNL     1      34.611 -16.561 -24.930  0.00  0.00    +0.309 C 
ATOM      6  C   UNL     1      34.207 -15.086 -22.545  0.00  0.00    +0.025 C 
ATOM      7  C   UNL     1      32.996 -15.030 -26.135  0.00  0.00    +0.123 C 
ATOM      8  C   UNL     1      35.032 -16.133 -22.575  0.00  0.00    +0.120 C 
ATOM      9  H   UNL     1      35.847 -17.608 -23.693  0.00  0.00    +0.151 HD
ENDROOT
BRANCH   4  10
ATOM     10  N   UNL     1      32.680 -13.629 -23.667  0.00  0.00    -0.346 N 
ATOM     11  H   UNL     1      32.839 -12.825 -24.213  0.00  0.00    +0.143 HD
ATOM     12  H   UNL     1      31.926 -13.652 -23.034  0.00  0.00    +0.143 HD
ENDBRANCH   4  10
TORSDOF 1
ENDMDL
MODEL 6
REMARK VINA RESULT:      -5.1      4.568      5.664
REMARK  Name = 4469987
REMARK  1 active torsions:
REMARK  status: ('A' for Active; 'I' for Inactive)
REMARK    1  A    between atoms: N_4  and  C_5
REMARK                            x       y       z     vdW  Elec       q    Type
REMARK                         _______ _______ _______ _____ _____    ______ ____
ROOT
ATOM      1  O   UNL     1      34.927 -15.020 -23.163  0.00  0.00    -0.252 OA
ATOM      2  N   UNL     1      34.851 -17.263 -22.485  0.00  0.00    -0.230 N 
ATOM      3  N   UNL     1      34.698 -16.639 -24.792  0.00  0.00    -0.284 N 
ATOM      4  C   UNL     1      34.751 -18.571 -22.794  0.00  0.00    +0.098 C 
ATOM      5  C   UNL     1      34.831 -16.198 -23.489  0.00  0.00    +0.309 C 
ATOM      6  C   UNL     1      34.612 -18.922 -24.236  0.00  0.00    +0.025 C 
ATOM      7  C   UNL     1      34.988 -16.891 -21.060  0.00  0.00    +0.123 C 
ATOM      8  C   UNL     1      34.592 -17.953 -25.152  0.00  0.00    +0.120 C 
ATOM      9  H   UNL     1      34.679 -15.964 -25.507  0.00  0.00    +0.151 HD
ENDROOT
BRANCH   4  10
ATOM     10  N   UNL     1      34.760 -19.595 -21.948  0.00  0.00    -0.346 N 
ATOM     11  H   UNL     1      35.414 -19.619 -21.211  0.00  0.00    +0.143 HD
ATOM     12  H   UNL     1      34.114 -20.330 -22.056  0.00  0.00    +0.143 HD
ENDBRANCH   4  10
TORSDOF 1
ENDMDL
MODEL 7
REMARK VINA RESULT:      -5.1     10.953     12.001
REMARK  Name = 4469987
REMARK  1 active torsions:
REMARK  status: ('A' for Active; 'I' for Inactive)
REMARK    1  A    between atoms: N_4  and  C_5
REMARK                            x       y       z     vdW  Elec       q    Type
REMARK                         _______ _______ _______ _____ _____    ______ ____
ROOT
ATOM      1  O   UNL     1      32.937  -7.564 -21.047  0.00  0.00    -0.252 OA
ATOM      2  N   UNL     1      31.825  -9.547 -21.624  0.00  0.00    -0.230 N 
ATOM      3  N   UNL     1      32.466  -9.074 -19.365  0.00  0.00    -0.284 N 
ATOM      4  C   UNL     1      31.286 -10.728 -21.263  0.00  0.00    +0.098 C 
ATOM      5  C   UNL     1      32.460  -8.631 -20.675  0.00  0.00    +0.309 C 
ATOM      6  C   UNL     1      31.355 -11.095 -19.820  0.00  0.00    +0.025 C 
ATOM      7  C   UNL     1      31.771  -9.161 -23.051  0.00  0.00    +0.123 C 
ATOM      8  C   UNL     1      31.933 -10.263 -18.953  0.00  0.00    +0.120 C 
ATOM      9  H   UNL     1      32.881  -8.496 -18.685  0.00  0.00    +0.151 HD
ENDROOT
BRANCH   4  10
ATOM     10  N   UNL     1      30.696 -11.613 -22.058  0.00  0.00    -0.346 N 
ATOM     11  H   UNL     1      30.595 -12.548 -21.765  0.00  0.00    +0.143 HD
ATOM     12  H   UNL     1      30.359 -11.335 -22.941  0.00  0.00    +0.143 HD
ENDBRANCH   4  10
TORSDOF 1
ENDMDL
MODEL 8
REMARK VINA RESULT:      -5.1      6.472      7.529
REMARK  Name = 4469987
REMARK  1 active torsions:
REMARK  status: ('A' for Active; 'I' for Inactive)
REMARK    1  A    between atoms: N_4  and  C_5
REMARK                            x       y       z     vdW  Elec       q    Type
REMARK                         _______ _______ _______ _____ _____    ______ ____
ROOT
ATOM      1  O   UNL     1      33.185 -15.679 -26.676  0.00  0.00    -0.252 OA
ATOM      2  N   UNL     1      34.233 -16.215 -24.648  0.00  0.00    -0.230 N 
ATOM      3  N   UNL     1      33.273 -14.056 -25.037  0.00  0.00    -0.284 N 
ATOM      4  C   UNL     1      34.620 -15.859 -23.407  0.00  0.00    +0.098 C 
ATOM      5  C   UNL     1      33.520 -15.314 -25.555  0.00  0.00    +0.309 C 
ATOM      6  C   UNL     1      34.295 -14.475 -22.962  0.00  0.00    +0.025 C 
ATOM      7  C   UNL     1      34.546 -17.584 -25.112  0.00  0.00    +0.123 C 
ATOM      8  C   UNL     1      33.646 -13.652 -23.787  0.00  0.00    +0.120 C 
ATOM      9  H   UNL     1      32.796 -13.410 -25.606  0.00  0.00    +0.151 HD
ENDROOT
BRANCH   4  10
ATOM     10  N   UNL     1      35.269 -16.613 -22.526  0.00  0.00    -0.346 N 
ATOM     11  H   UNL     1      34.986 -16.622 -21.582  0.00  0.00    +0.143 HD
ATOM     12  H   UNL     1      36.033 -17.163 -22.815  0.00  0.00    +0.143 HD
ENDBRANCH   4  10
TORSDOF 1
ENDMDL
MODEL 9
REMARK VINA RESULT:      -5.0      4.967      6.065
REMARK  Name = 4469987
REMARK  1 active torsions:
REMARK  status: ('A' for Active; 'I' for Inactive)
REMARK    1  A    between atoms: N_4  and  C_5
REMARK                            x       y       z     vdW  Elec       q    Type
REMARK                         _______ _______ _______ _____ _____    ______ ____
ROOT
ATOM      1  O   UNL     1      34.486 -16.856 -25.528  0.00  0.00    -0.252 OA
ATOM      2  N   UNL     1      34.902 -17.256 -23.255  0.00  0.00    -0.230 N 
ATOM      3  N   UNL     1      34.171 -15.116 -24.044  0.00  0.00    -0.284 N 
ATOM      4  C   UNL     1      34.938 -16.815 -21.982  0.00  0.00    +0.098 C 
ATOM      5  C   UNL     1      34.506 -16.413 -24.385  0.00  0.00    +0.309 C 
ATOM      6  C   UNL     1      34.554 -15.396 -21.742  0.00  0.00    +0.025 C 
ATOM      7  C   UNL     1      35.281 -18.661 -23.519  0.00  0.00    +0.123 C 
ATOM      8  C   UNL     1      34.194 -14.626 -22.769  0.00  0.00    +0.120 C 
ATOM      9  H   UNL     1      33.897 -14.506 -24.766  0.00  0.00    +0.151 HD
ENDROOT
BRANCH   4  10
ATOM     10  N   UNL     1      35.285 -17.512 -20.905  0.00  0.00    -0.346 N 
ATOM     11  H   UNL     1      35.613 -17.046 -20.102  0.00  0.00    +0.143 HD
ATOM     12  H   UNL     1      35.214 -18.495 -20.910  0.00  0.00    +0.143 HD
ENDBRANCH   4  10
TORSDOF 1
ENDMDL
