MODEL 1
REMARK VINA RESULT:      -4.1      0.000      0.000
REMARK  Name = 80668
REMARK  2 active torsions:
REMARK  status: ('A' for Active; 'I' for Inactive)
REMARK    1  A    between atoms: N_3  and  C_4
REMARK    2  A    between atoms: N_3  and  O_9
REMARK                            x       y       z     vdW  Elec       q    Type
REMARK                         _______ _______ _______ _____ _____    ______ ____
ROOT
ATOM      1  N   UNL     1      38.134 -25.655 -15.200  0.00  0.00    -0.368 N 
ATOM      2  N   UNL     1      37.148 -26.993 -13.631  0.00  0.00    -0.368 N 
ATOM      3  C   UNL     1      37.110 -26.530 -14.927  0.00  0.00    +0.217 C 
ATOM      4  H   UNL     1      38.787 -25.428 -14.502  0.00  0.00    +0.159 HD
ATOM      5  H   UNL     1      38.212 -25.256 -16.097  0.00  0.00    +0.159 HD
ATOM      6  H   UNL     1      37.858 -26.689 -13.020  0.00  0.00    +0.159 HD
ATOM      7  H   UNL     1      36.465 -27.627 -13.314  0.00  0.00    +0.159 HD
ENDROOT
BRANCH   3   8
ATOM      8  N   UNL     1      36.230 -26.848 -15.838  0.00  0.00    -0.099 NA
BRANCH   8   9
ATOM      9  O   UNL     1      36.815 -27.663 -16.812  0.00  0.00    -0.263 OA
ATOM     10  H   UNL     1      37.703 -27.946 -16.714  0.00  0.00    +0.247 HD
ENDBRANCH   8   9
ENDBRANCH   3   8
TORSDOF 2
ENDMDL
MODEL 2
REMARK VINA RESULT:      -4.0      3.302      3.828
REMARK  Name = 80668
REMARK  2 active torsions:
REMARK  status: ('A' for Active; 'I' for Inactive)
REMARK    1  A    between atoms: N_3  and  C_4
REMARK    2  A    between atoms: N_3  and  O_9
REMARK                            x       y       z     vdW  Elec       q    Type
REMARK                         _______ _______ _______ _____ _____    ______ ____
ROOT
ATOM      1  N   UNL     1      38.997 -26.050 -13.615  0.00  0.00    -0.368 N 
ATOM      2  N   UNL     1      38.928 -24.617 -15.394  0.00  0.00    -0.368 N 
ATOM      3  C   UNL     1      39.638 -25.600 -14.743  0.00  0.00    +0.217 C 
ATOM      4  H   UNL     1      38.127 -25.669 -13.358  0.00  0.00    +0.159 HD
ATOM      5  H   UNL     1      39.407 -26.755 -13.064  0.00  0.00    +0.159 HD
ATOM      6  H   UNL     1      38.062 -24.317 -15.035  0.00  0.00    +0.159 HD
ATOM      7  H   UNL     1      39.287 -24.215 -16.218  0.00  0.00    +0.159 HD
ENDROOT
BRANCH   3   8
ATOM      8  N   UNL     1      40.794 -26.092 -15.105  0.00  0.00    -0.099 NA
BRANCH   8   9
ATOM      9  O   UNL     1      41.345 -26.848 -14.067  0.00  0.00    -0.263 OA
ATOM     10  H   UNL     1      42.048 -26.499 -13.556  0.00  0.00    +0.247 HD
ENDBRANCH   8   9
ENDBRANCH   3   8
TORSDOF 2
ENDMDL
MODEL 3
REMARK VINA RESULT:      -3.9      5.313      5.529
REMARK  Name = 80668
REMARK  2 active torsions:
REMARK  status: ('A' for Active; 'I' for Inactive)
REMARK    1  A    between atoms: N_3  and  C_4
REMARK    2  A    between atoms: N_3  and  O_9
REMARK                            x       y       z     vdW  Elec       q    Type
REMARK                         _______ _______ _______ _____ _____    ______ ____
ROOT
ATOM      1  N   UNL     1      35.409 -23.472 -12.663  0.00  0.00    -0.368 N 
ATOM      2  N   UNL     1      37.152 -23.306 -11.193  0.00  0.00    -0.368 N 
ATOM      3  C   UNL     1      35.978 -23.953 -11.508  0.00  0.00    +0.217 C 
ATOM      4  H   UNL     1      35.846 -22.745 -13.161  0.00  0.00    +0.159 HD
ATOM      5  H   UNL     1      34.565 -23.857 -12.992  0.00  0.00    +0.159 HD
ATOM      6  H   UNL     1      37.489 -22.588 -11.775  0.00  0.00    +0.159 HD
ATOM      7  H   UNL     1      37.653 -23.563 -10.385  0.00  0.00    +0.159 HD
ENDROOT
BRANCH   3   8
ATOM      8  N   UNL     1      35.417 -24.918 -10.829  0.00  0.00    -0.099 NA
BRANCH   8   9
ATOM      9  O   UNL     1      35.322 -24.567  -9.479  0.00  0.00    -0.263 OA
ATOM     10  H   UNL     1      34.928 -23.754  -9.233  0.00  0.00    +0.247 HD
ENDBRANCH   8   9
ENDBRANCH   3   8
TORSDOF 2
ENDMDL
MODEL 4
REMARK VINA RESULT:      -3.9      4.815      5.234
REMARK  Name = 80668
REMARK  2 active torsions:
REMARK  status: ('A' for Active; 'I' for Inactive)
REMARK    1  A    between atoms: N_3  and  C_4
REMARK    2  A    between atoms: N_3  and  O_9
REMARK                            x       y       z     vdW  Elec       q    Type
REMARK                         _______ _______ _______ _____ _____    ______ ____
ROOT
ATOM      1  N   UNL     1      36.255 -25.451 -12.699  0.00  0.00    -0.368 N 
ATOM      2  N   UNL     1      35.009 -23.548 -12.469  0.00  0.00    -0.368 N 
ATOM      3  C   UNL     1      35.518 -24.665 -11.846  0.00  0.00    +0.217 C 
ATOM      4  H   UNL     1      36.367 -25.186 -13.639  0.00  0.00    +0.159 HD
ATOM      5  H   UNL     1      36.671 -26.279 -12.368  0.00  0.00    +0.159 HD
ATOM      6  H   UNL     1      35.193 -23.391 -13.424  0.00  0.00    +0.159 HD
ATOM      7  H   UNL     1      34.463 -22.906 -11.960  0.00  0.00    +0.159 HD
ENDROOT
BRANCH   3   8
ATOM      8  N   UNL     1      35.354 -24.995 -10.592  0.00  0.00    -0.099 NA
BRANCH   8   9
ATOM      9  O   UNL     1      36.141 -24.182  -9.771  0.00  0.00    -0.263 OA
ATOM     10  H   UNL     1      36.814 -24.562  -9.243  0.00  0.00    +0.247 HD
ENDBRANCH   8   9
ENDBRANCH   3   8
TORSDOF 2
ENDMDL
MODEL 5
REMARK VINA RESULT:      -3.8      2.302      2.668
REMARK  Name = 80668
REMARK  2 active torsions:
REMARK  status: ('A' for Active; 'I' for Inactive)
REMARK    1  A    between atoms: N_3  and  C_4
REMARK    2  A    between atoms: N_3  and  O_9
REMARK                            x       y       z     vdW  Elec       q    Type
REMARK                         _______ _______ _______ _____ _____    ______ ____
ROOT
ATOM      1  N   UNL     1      38.204 -24.938 -15.296  0.00  0.00    -0.368 N 
ATOM      2  N   UNL     1      37.733 -26.694 -13.910  0.00  0.00    -0.368 N 
ATOM      3  C   UNL     1      38.695 -26.051 -14.657  0.00  0.00    +0.217 C 
ATOM      4  H   UNL     1      37.260 -24.685 -15.188  0.00  0.00    +0.159 HD
ATOM      5  H   UNL     1      38.799 -24.395 -15.861  0.00  0.00    +0.159 HD
ATOM      6  H   UNL     1      36.815 -26.340 -13.881  0.00  0.00    +0.159 HD
ATOM      7  H   UNL     1      37.965 -27.507 -13.404  0.00  0.00    +0.159 HD
ENDROOT
BRANCH   3   8
ATOM      8  N   UNL     1      39.945 -26.409 -14.784  0.00  0.00    -0.099 NA
BRANCH   8   9
ATOM      9  O   UNL     1      40.447 -25.982 -16.017  0.00  0.00    -0.263 OA
ATOM     10  H   UNL     1      40.739 -26.611 -16.647  0.00  0.00    +0.247 HD
ENDBRANCH   8   9
ENDBRANCH   3   8
TORSDOF 2
ENDMDL
MODEL 6
REMARK VINA RESULT:      -3.8      1.628      2.307
REMARK  Name = 80668
REMARK  2 active torsions:
REMARK  status: ('A' for Active; 'I' for Inactive)
REMARK    1  A    between atoms: N_3  and  C_4
REMARK    2  A    between atoms: N_3  and  O_9
REMARK                            x       y       z     vdW  Elec       q    Type
REMARK                         _______ _______ _______ _____ _____    ______ ____
ROOT
ATOM      1  N   UNL     1      36.864 -26.445 -13.116  0.00  0.00    -0.368 N 
ATOM      2  N   UNL     1      36.146 -26.887 -15.240  0.00  0.00    -0.368 N 
ATOM      3  C   UNL     1      37.228 -26.793 -14.394  0.00  0.00    +0.217 C 
ATOM      4  H   UNL     1      35.917 -26.295 -12.897  0.00  0.00    +0.159 HD
ATOM      5  H   UNL     1      37.552 -26.346 -12.419  0.00  0.00    +0.159 HD
ATOM      6  H   UNL     1      35.239 -26.711 -14.900  0.00  0.00    +0.159 HD
ATOM      7  H   UNL     1      36.280 -27.130 -16.185  0.00  0.00    +0.159 HD
ENDROOT
BRANCH   3   8
ATOM      8  N   UNL     1      38.479 -26.998 -14.710  0.00  0.00    -0.099 NA
BRANCH   8   9
ATOM      9  O   UNL     1      38.983 -25.906 -15.423  0.00  0.00    -0.263 OA
ATOM     10  H   UNL     1      39.261 -25.137 -14.967  0.00  0.00    +0.247 HD
ENDBRANCH   8   9
ENDBRANCH   3   8
TORSDOF 2
ENDMDL
MODEL 7
REMARK VINA RESULT:      -3.7     13.150     13.661
REMARK  Name = 80668
REMARK  2 active torsions:
REMARK  status: ('A' for Active; 'I' for Inactive)
REMARK    1  A    between atoms: N_3  and  C_4
REMARK    2  A    between atoms: N_3  and  O_9
REMARK                            x       y       z     vdW  Elec       q    Type
REMARK                         _______ _______ _______ _____ _____    ______ ____
ROOT
ATOM      1  N   UNL     1      41.175 -14.969 -16.275  0.00  0.00    -0.368 N 
ATOM      2  N   UNL     1      41.863 -12.918 -15.537  0.00  0.00    -0.368 N 
ATOM      3  C   UNL     1      41.202 -14.084 -15.224  0.00  0.00    +0.217 C 
ATOM      4  H   UNL     1      41.600 -14.732 -17.129  0.00  0.00    +0.159 HD
ATOM      5  H   UNL     1      40.729 -15.841 -16.172  0.00  0.00    +0.159 HD
ATOM      6  H   UNL     1      42.250 -12.798 -16.435  0.00  0.00    +0.159 HD
ATOM      7  H   UNL     1      41.949 -12.205 -14.864  0.00  0.00    +0.159 HD
ENDROOT
BRANCH   3   8
ATOM      8  N   UNL     1      40.644 -14.376 -14.079  0.00  0.00    -0.099 NA
BRANCH   8   9
ATOM      9  O   UNL     1      40.843 -13.337 -13.166  0.00  0.00    -0.263 OA
ATOM     10  H   UNL     1      40.750 -13.496 -12.248  0.00  0.00    +0.247 HD
ENDBRANCH   8   9
ENDBRANCH   3   8
TORSDOF 2
ENDMDL
MODEL 8
REMARK VINA RESULT:      -3.6     12.571     13.256
REMARK  Name = 80668
REMARK  2 active torsions:
REMARK  status: ('A' for Active; 'I' for Inactive)
REMARK    1  A    between atoms: N_3  and  C_4
REMARK    2  A    between atoms: N_3  and  O_9
REMARK                            x       y       z     vdW  Elec       q    Type
REMARK                         _______ _______ _______ _____ _____    ______ ____
ROOT
ATOM      1  N   UNL     1      40.549 -13.003 -13.636  0.00  0.00    -0.368 N 
ATOM      2  N   UNL     1      41.714 -13.184 -15.595  0.00  0.00    -0.368 N 
ATOM      3  C   UNL     1      41.024 -13.851 -14.608  0.00  0.00    +0.217 C 
ATOM      4  H   UNL     1      40.719 -12.037 -13.700  0.00  0.00    +0.159 HD
ATOM      5  H   UNL     1      40.038 -13.364 -12.876  0.00  0.00    +0.159 HD
ATOM      6  H   UNL     1      41.818 -12.206 -15.547  0.00  0.00    +0.159 HD
ATOM      7  H   UNL     1      42.103 -13.686 -16.348  0.00  0.00    +0.159 HD
ENDROOT
BRANCH   3   8
ATOM      8  N   UNL     1      40.810 -15.139 -14.545  0.00  0.00    -0.099 NA
BRANCH   8   9
ATOM      9  O   UNL     1      40.408 -15.623 -15.793  0.00  0.00    -0.263 OA
ATOM     10  H   UNL     1      40.697 -16.466 -16.083  0.00  0.00    +0.247 HD
ENDBRANCH   8   9
ENDBRANCH   3   8
TORSDOF 2
ENDMDL
MODEL 9
REMARK VINA RESULT:      -3.5      3.285      3.798
REMARK  Name = 80668
REMARK  2 active torsions:
REMARK  status: ('A' for Active; 'I' for Inactive)
REMARK    1  A    between atoms: N_3  and  C_4
REMARK    2  A    between atoms: N_3  and  O_9
REMARK                            x       y       z     vdW  Elec       q    Type
REMARK                         _______ _______ _______ _____ _____    ______ ____
ROOT
ATOM      1  N   UNL     1      36.804 -26.901 -13.835  0.00  0.00    -0.368 N 
ATOM      2  N   UNL     1      38.795 -25.961 -13.221  0.00  0.00    -0.368 N 
ATOM      3  C   UNL     1      37.483 -26.191 -12.874  0.00  0.00    +0.217 C 
ATOM      4  H   UNL     1      37.265 -27.183 -14.656  0.00  0.00    +0.159 HD
ATOM      5  H   UNL     1      35.856 -27.128 -13.700  0.00  0.00    +0.159 HD
ATOM      6  H   UNL     1      39.143 -26.296 -14.079  0.00  0.00    +0.159 HD
ATOM      7  H   UNL     1      39.385 -25.460 -12.612  0.00  0.00    +0.159 HD
ENDROOT
BRANCH   3   8
ATOM      8  N   UNL     1      36.893 -25.806 -11.774  0.00  0.00    -0.099 NA
BRANCH   8   9
ATOM      9  O   UNL     1      37.558 -24.704 -11.229  0.00  0.00    -0.263 OA
ATOM     10  H   UNL     1      37.096 -23.900 -11.092  0.00  0.00    +0.247 HD
ENDBRANCH   8   9
ENDBRANCH   3   8
TORSDOF 2
ENDMDL
