MODEL 1
REMARK VINA RESULT:     -13.0      0.000      0.000
REMARK  Name = 11560856
REMARK  5 active torsions:
REMARK  status: ('A' for Active; 'I' for Inactive)
REMARK    1  A    between atoms: C_2  and  O_24
REMARK    2  A    between atoms: C_3  and  N_10
REMARK    3  A    between atoms: C_12  and  C_16
REMARK    4  A    between atoms: C_16  and  C_18
REMARK    5  A    between atoms: O_24  and  C_28
REMARK                            x       y       z     vdW  Elec       q    Type
REMARK                         _______ _______ _______ _____ _____    ______ ____
ROOT
ATOM      1  F   UNL     1      36.795 -21.820 -19.632  0.00  0.00    -0.201 F 
ATOM      2  C   UNL     1      34.444 -21.951 -19.348  0.00  0.00    +0.173 C 
ATOM      3  C   UNL     1      34.150 -19.633 -20.832  0.00  0.00    +0.054 C 
ATOM      4  C   UNL     1      35.571 -21.323 -19.853  0.00  0.00    +0.176 C 
ATOM      5  C   UNL     1      33.174 -21.446 -19.568  0.00  0.00    +0.041 C 
ATOM      6  C   UNL     1      35.422 -20.156 -20.601  0.00  0.00    +0.047 C 
ATOM      7  C   UNL     1      33.026 -20.278 -20.316  0.00  0.00    +0.018 C 
ENDROOT
BRANCH   3  10
ATOM      8  O   UNL     1      35.136 -14.325 -21.511  0.00  0.00    -0.274 OA
ATOM      9  O   UNL     1      35.185 -16.858 -20.334  0.00  0.00    -0.252 OA
ATOM     10  N   UNL     1      34.002 -18.465 -21.582  0.00  0.00    -0.268 N 
ATOM     11  N   UNL     1      34.133 -16.270 -22.319  0.00  0.00    -0.239 N 
ATOM     12  C   UNL     1      34.467 -14.914 -22.357  0.00  0.00    +0.234 C 
ATOM     13  C   UNL     1      34.508 -17.177 -21.308  0.00  0.00    +0.310 C 
ATOM     14  H   UNL     1      33.476 -18.551 -22.409  0.00  0.00    +0.156 HD
ATOM     15  H   UNL     1      33.589 -16.621 -23.061  0.00  0.00    +0.159 HD
BRANCH  12  16
ATOM     16  C   UNL     1      33.895 -14.240 -23.589  0.00  0.00    +0.112 C 
BRANCH  16  18
ATOM     17  F   UNL     1      31.579  -9.233 -22.512  0.00  0.00    -0.204 F 
ATOM     18  C   UNL     1      33.274 -12.898 -23.301  0.00  0.00    -0.013 C 
ATOM     19  C   UNL     1      32.254 -12.805 -22.365  0.00  0.00    -0.001 C 
ATOM     20  C   UNL     1      33.731 -11.776 -23.976  0.00  0.00    -0.001 C 
ATOM     21  C   UNL     1      31.679 -11.562 -22.098  0.00  0.00    +0.029 C 
ATOM     22  C   UNL     1      33.156 -10.533 -23.709  0.00  0.00    +0.029 C 
ATOM     23  C   UNL     1      32.131 -10.426 -22.770  0.00  0.00    +0.140 C 
ENDBRANCH  16  18
ENDBRANCH  12  16
ENDBRANCH   3  10
BRANCH   2  24
ATOM     24  O   UNL     1      34.590 -23.108 -18.608  0.00  0.00    -0.451 OA
BRANCH  24  28
ATOM     25  N   UNL     1      35.100 -23.073 -13.980  0.00  0.00    -0.297 N 
ATOM     26  N   UNL     1      32.828 -23.188 -14.771  0.00  0.00    -0.229 NA
ATOM     27  C   UNL     1      34.821 -23.092 -16.195  0.00  0.00    +0.067 C 
ATOM     28  C   UNL     1      34.036 -23.133 -17.359  0.00  0.00    +0.150 C 
ATOM     29  C   UNL     1      34.157 -23.122 -14.972  0.00  0.00    +0.135 C 
ATOM     30  C   UNL     1      36.210 -23.023 -15.908  0.00  0.00    +0.022 C 
ATOM     31  C   UNL     1      36.351 -23.012 -14.536  0.00  0.00    +0.063 C 
ATOM     32  C   UNL     1      32.652 -23.201 -17.207  0.00  0.00    +0.058 C 
ATOM     33  C   UNL     1      32.121 -23.226 -15.924  0.00  0.00    +0.103 C 
ATOM     34  H   UNL     1      34.908 -23.079 -13.014  0.00  0.00    +0.154 HD
ENDBRANCH  24  28
ENDBRANCH   2  24
TORSDOF 5
ENDMDL
MODEL 2
REMARK VINA RESULT:     -12.8      0.465      1.606
REMARK  Name = 11560856
REMARK  5 active torsions:
REMARK  status: ('A' for Active; 'I' for Inactive)
REMARK    1  A    between atoms: C_2  and  O_24
REMARK    2  A    between atoms: C_3  and  N_10
REMARK    3  A    between atoms: C_12  and  C_16
REMARK    4  A    between atoms: C_16  and  C_18
REMARK    5  A    between atoms: O_24  and  C_28
REMARK                            x       y       z     vdW  Elec       q    Type
REMARK                         _______ _______ _______ _____ _____    ______ ____
ROOT
ATOM      1  F   UNL     1      36.876 -21.728 -20.015  0.00  0.00    -0.201 F 
ATOM      2  C   UNL     1      34.558 -21.819 -19.520  0.00  0.00    +0.173 C 
ATOM      3  C   UNL     1      34.176 -19.482 -20.955  0.00  0.00    +0.054 C 
ATOM      4  C   UNL     1      35.647 -21.207 -20.120  0.00  0.00    +0.176 C 
ATOM      5  C   UNL     1      33.283 -21.288 -19.621  0.00  0.00    +0.041 C 
ATOM      6  C   UNL     1      35.453 -20.031 -20.844  0.00  0.00    +0.047 C 
ATOM      7  C   UNL     1      33.091 -20.111 -20.344  0.00  0.00    +0.018 C 
ENDROOT
BRANCH   3  10
ATOM      8  O   UNL     1      35.048 -14.148 -21.578  0.00  0.00    -0.274 OA
ATOM      9  O   UNL     1      35.179 -16.698 -20.446  0.00  0.00    -0.252 OA
ATOM     10  N   UNL     1      33.983 -18.306 -21.680  0.00  0.00    -0.268 N 
ATOM     11  N   UNL     1      34.052 -16.098 -22.385  0.00  0.00    -0.239 N 
ATOM     12  C   UNL     1      34.361 -14.735 -22.411  0.00  0.00    +0.234 C 
ATOM     13  C   UNL     1      34.476 -17.013 -21.402  0.00  0.00    +0.310 C 
ATOM     14  H   UNL     1      33.432 -18.388 -22.491  0.00  0.00    +0.156 HD
ATOM     15  H   UNL     1      33.490 -16.446 -23.114  0.00  0.00    +0.159 HD
BRANCH  12  16
ATOM     16  C   UNL     1      33.737 -14.052 -23.613  0.00  0.00    +0.112 C 
BRANCH  16  18
ATOM     17  F   UNL     1      31.597  -8.991 -22.430  0.00  0.00    -0.204 F 
ATOM     18  C   UNL     1      33.163 -12.696 -23.297  0.00  0.00    -0.013 C 
ATOM     19  C   UNL     1      32.126 -12.590 -22.380  0.00  0.00    -0.001 C 
ATOM     20  C   UNL     1      33.679 -11.572 -23.926  0.00  0.00    -0.001 C 
ATOM     21  C   UNL     1      31.595 -11.333 -22.087  0.00  0.00    +0.029 C 
ATOM     22  C   UNL     1      33.148 -10.316 -23.633  0.00  0.00    +0.029 C 
ATOM     23  C   UNL     1      32.107 -10.197 -22.713  0.00  0.00    +0.140 C 
ENDBRANCH  16  18
ENDBRANCH  12  16
ENDBRANCH   3  10
BRANCH   2  24
ATOM     24  O   UNL     1      34.749 -22.985 -18.804  0.00  0.00    -0.451 OA
BRANCH  24  28
ATOM     25  N   UNL     1      33.087 -23.191 -14.459  0.00  0.00    -0.297 N 
ATOM     26  N   UNL     1      35.421 -22.626 -14.651  0.00  0.00    -0.229 NA
ATOM     27  C   UNL     1      33.915 -23.083 -16.530  0.00  0.00    +0.067 C 
ATOM     28  C   UNL     1      34.950 -22.873 -17.457  0.00  0.00    +0.150 C 
ATOM     29  C   UNL     1      34.226 -22.945 -15.180  0.00  0.00    +0.135 C 
ATOM     30  C   UNL     1      32.539 -23.423 -16.603  0.00  0.00    +0.022 C 
ATOM     31  C   UNL     1      32.056 -23.483 -15.313  0.00  0.00    +0.063 C 
ATOM     32  C   UNL     1      36.210 -22.541 -16.961  0.00  0.00    +0.058 C 
ATOM     33  C   UNL     1      36.379 -22.434 -15.587  0.00  0.00    +0.103 C 
ATOM     34  H   UNL     1      33.021 -23.162 -13.477  0.00  0.00    +0.154 HD
ENDBRANCH  24  28
ENDBRANCH   2  24
TORSDOF 5
ENDMDL
MODEL 3
REMARK VINA RESULT:     -12.8      3.101      5.127
REMARK  Name = 11560856
REMARK  5 active torsions:
REMARK  status: ('A' for Active; 'I' for Inactive)
REMARK    1  A    between atoms: C_2  and  O_24
REMARK    2  A    between atoms: C_3  and  N_10
REMARK    3  A    between atoms: C_12  and  C_16
REMARK    4  A    between atoms: C_16  and  C_18
REMARK    5  A    between atoms: O_24  and  C_28
REMARK                            x       y       z     vdW  Elec       q    Type
REMARK                         _______ _______ _______ _____ _____    ______ ____
ROOT
ATOM      1  F   UNL     1      34.973 -18.205 -24.799  0.00  0.00    -0.201 F 
ATOM      2  C   UNL     1      35.175 -17.740 -22.481  0.00  0.00    +0.173 C 
ATOM      3  C   UNL     1      34.549 -15.088 -22.974  0.00  0.00    +0.054 C 
ATOM      4  C   UNL     1      34.920 -17.335 -23.781  0.00  0.00    +0.176 C 
ATOM      5  C   UNL     1      35.125 -16.849 -21.423  0.00  0.00    +0.041 C 
ATOM      6  C   UNL     1      34.603 -15.999 -24.028  0.00  0.00    +0.047 C 
ATOM      7  C   UNL     1      34.809 -15.514 -21.671  0.00  0.00    +0.018 C 
ENDROOT
BRANCH   3  10
ATOM      8  O   UNL     1      31.225 -10.839 -22.270  0.00  0.00    -0.274 OA
ATOM      9  O   UNL     1      32.225 -13.437 -22.033  0.00  0.00    -0.252 OA
ATOM     10  N   UNL     1      34.231 -13.753 -23.222  0.00  0.00    -0.268 N 
ATOM     11  N   UNL     1      33.170 -11.690 -23.236  0.00  0.00    -0.239 N 
ATOM     12  C   UNL     1      32.227 -10.695 -22.966  0.00  0.00    +0.234 C 
ATOM     13  C   UNL     1      33.123 -13.014 -22.756  0.00  0.00    +0.310 C 
ATOM     14  H   UNL     1      34.861 -13.262 -23.796  0.00  0.00    +0.156 HD
ATOM     15  H   UNL     1      33.931 -11.446 -23.811  0.00  0.00    +0.159 HD
BRANCH  12  16
ATOM     16  C   UNL     1      32.594  -9.390 -23.646  0.00  0.00    +0.112 C 
BRANCH  16  18
ATOM     17  F   UNL     1      30.480  -4.867 -21.064  0.00  0.00    -0.204 F 
ATOM     18  C   UNL     1      32.028  -8.177 -22.954  0.00  0.00    -0.013 C 
ATOM     19  C   UNL     1      31.060  -7.416 -23.594  0.00  0.00    -0.001 C 
ATOM     20  C   UNL     1      32.482  -7.840 -21.688  0.00  0.00    -0.001 C 
ATOM     21  C   UNL     1      30.536  -6.293 -22.953  0.00  0.00    +0.029 C 
ATOM     22  C   UNL     1      31.958  -6.717 -21.047  0.00  0.00    +0.029 C 
ATOM     23  C   UNL     1      30.985  -5.945 -21.679  0.00  0.00    +0.140 C 
ENDBRANCH  16  18
ENDBRANCH  12  16
ENDBRANCH   3  10
BRANCH   2  24
ATOM     24  O   UNL     1      35.487 -19.063 -22.236  0.00  0.00    -0.451 OA
BRANCH  24  28
ATOM     25  N   UNL     1      35.119 -21.917 -18.576  0.00  0.00    -0.297 N 
ATOM     26  N   UNL     1      33.033 -21.134 -19.493  0.00  0.00    -0.229 NA
ATOM     27  C   UNL     1      35.261 -20.547 -20.333  0.00  0.00    +0.067 C 
ATOM     28  C   UNL     1      34.707 -19.740 -21.341  0.00  0.00    +0.150 C 
ATOM     29  C   UNL     1      34.377 -21.192 -19.472  0.00  0.00    +0.135 C 
ATOM     30  C   UNL     1      36.572 -20.908 -19.925  0.00  0.00    +0.022 C 
ATOM     31  C   UNL     1      36.453 -21.752 -18.841  0.00  0.00    +0.063 C 
ATOM     32  C   UNL     1      33.318 -19.644 -21.408  0.00  0.00    +0.058 C 
ATOM     33  C   UNL     1      32.555 -20.345 -20.483  0.00  0.00    +0.103 C 
ATOM     34  H   UNL     1      34.748 -22.472 -17.851  0.00  0.00    +0.154 HD
ENDBRANCH  24  28
ENDBRANCH   2  24
TORSDOF 5
ENDMDL
MODEL 4
REMARK VINA RESULT:     -12.8      3.695     12.371
REMARK  Name = 11560856
REMARK  5 active torsions:
REMARK  status: ('A' for Active; 'I' for Inactive)
REMARK    1  A    between atoms: C_2  and  O_24
REMARK    2  A    between atoms: C_3  and  N_10
REMARK    3  A    between atoms: C_12  and  C_16
REMARK    4  A    between atoms: C_16  and  C_18
REMARK    5  A    between atoms: O_24  and  C_28
REMARK                            x       y       z     vdW  Elec       q    Type
REMARK                         _______ _______ _______ _____ _____    ______ ____
ROOT
ATOM      1  F   UNL     1      34.511 -10.071 -25.017  0.00  0.00    -0.201 F 
ATOM      2  C   UNL     1      32.647 -10.333 -23.574  0.00  0.00    +0.173 C 
ATOM      3  C   UNL     1      33.257 -13.020 -23.298  0.00  0.00    +0.054 C 
ATOM      4  C   UNL     1      33.745 -10.850 -24.242  0.00  0.00    +0.176 C 
ATOM      5  C   UNL     1      31.848 -11.129 -22.771  0.00  0.00    +0.041 C 
ATOM      6  C   UNL     1      34.052 -12.203 -24.102  0.00  0.00    +0.047 C 
ATOM      7  C   UNL     1      32.155 -12.482 -22.633  0.00  0.00    +0.018 C 
ENDROOT
BRANCH   3  10
ATOM      8  O   UNL     1      35.420 -17.069 -20.378  0.00  0.00    -0.274 OA
ATOM      9  O   UNL     1      34.625 -14.479 -21.059  0.00  0.00    -0.252 OA
ATOM     10  N   UNL     1      33.565 -14.373 -23.158  0.00  0.00    -0.268 N 
ATOM     11  N   UNL     1      34.332 -16.399 -22.331  0.00  0.00    -0.239 N 
ATOM     12  C   UNL     1      34.923 -17.329 -21.471  0.00  0.00    +0.234 C 
ATOM     13  C   UNL     1      34.212 -15.018 -22.082  0.00  0.00    +0.310 C 
ATOM     14  H   UNL     1      33.297 -14.953 -23.905  0.00  0.00    +0.156 HD
ATOM     15  H   UNL     1      33.970 -16.738 -23.181  0.00  0.00    +0.159 HD
BRANCH  12  16
ATOM     16  C   UNL     1      34.879 -18.727 -22.059  0.00  0.00    +0.112 C 
BRANCH  16  18
ATOM     17  F   UNL     1      33.928 -22.729 -18.228  0.00  0.00    -0.204 F 
ATOM     18  C   UNL     1      34.624 -19.799 -21.031  0.00  0.00    -0.013 C 
ATOM     19  C   UNL     1      33.323 -20.062 -20.627  0.00  0.00    -0.001 C 
ATOM     20  C   UNL     1      35.694 -20.508 -20.506  0.00  0.00    -0.001 C 
ATOM     21  C   UNL     1      33.087 -21.055 -19.675  0.00  0.00    +0.029 C 
ATOM     22  C   UNL     1      35.458 -21.501 -19.554  0.00  0.00    +0.029 C 
ATOM     23  C   UNL     1      34.155 -21.775 -19.140  0.00  0.00    +0.140 C 
ENDBRANCH  16  18
ENDBRANCH  12  16
ENDBRANCH   3  10
BRANCH   2  24
ATOM     24  O   UNL     1      32.344  -8.992 -23.711  0.00  0.00    -0.451 OA
BRANCH  24  28
ATOM     25  N   UNL     1      31.261  -4.988 -21.596  0.00  0.00    -0.297 N 
ATOM     26  N   UNL     1      32.134  -6.715 -20.161  0.00  0.00    -0.229 NA
ATOM     27  C   UNL     1      31.791  -6.921 -22.579  0.00  0.00    +0.067 C 
ATOM     28  C   UNL     1      32.270  -8.242 -22.571  0.00  0.00    +0.150 C 
ATOM     29  C   UNL     1      31.756  -6.245 -21.363  0.00  0.00    +0.135 C 
ATOM     30  C   UNL     1      31.298  -6.025 -23.564  0.00  0.00    +0.022 C 
ATOM     31  C   UNL     1      30.979  -4.843 -22.929  0.00  0.00    +0.063 C 
ATOM     32  C   UNL     1      32.674  -8.779 -21.350  0.00  0.00    +0.058 C 
ATOM     33  C   UNL     1      32.586  -7.989 -20.211  0.00  0.00    +0.103 C 
ATOM     34  H   UNL     1      31.129  -4.295 -20.908  0.00  0.00    +0.154 HD
ENDBRANCH  24  28
ENDBRANCH   2  24
TORSDOF 5
ENDMDL
MODEL 5
REMARK VINA RESULT:     -12.7      3.843     12.198
REMARK  Name = 11560856
REMARK  5 active torsions:
REMARK  status: ('A' for Active; 'I' for Inactive)
REMARK    1  A    between atoms: C_2  and  O_24
REMARK    2  A    between atoms: C_3  and  N_10
REMARK    3  A    between atoms: C_12  and  C_16
REMARK    4  A    between atoms: C_16  and  C_18
REMARK    5  A    between atoms: O_24  and  C_28
REMARK                            x       y       z     vdW  Elec       q    Type
REMARK                         _______ _______ _______ _____ _____    ______ ____
ROOT
ATOM      1  F   UNL     1      30.332 -11.518 -21.046  0.00  0.00    -0.201 F 
ATOM      2  C   UNL     1      31.893 -10.932 -22.733  0.00  0.00    +0.173 C 
ATOM      3  C   UNL     1      33.266 -13.289 -22.260  0.00  0.00    +0.054 C 
ATOM      4  C   UNL     1      31.430 -11.802 -21.759  0.00  0.00    +0.176 C 
ATOM      5  C   UNL     1      33.027 -11.214 -23.475  0.00  0.00    +0.041 C 
ATOM      6  C   UNL     1      32.122 -12.989 -21.523  0.00  0.00    +0.047 C 
ATOM      7  C   UNL     1      33.719 -12.401 -23.237  0.00  0.00    +0.018 C 
ENDROOT
BRANCH   3  10
ATOM      8  O   UNL     1      34.981 -18.153 -23.992  0.00  0.00    -0.274 OA
ATOM      9  O   UNL     1      33.717 -15.662 -24.043  0.00  0.00    -0.252 OA
ATOM     10  N   UNL     1      33.957 -14.478 -22.024  0.00  0.00    -0.268 N 
ATOM     11  N   UNL     1      34.905 -16.580 -22.271  0.00  0.00    -0.239 N 
ATOM     12  C   UNL     1      35.272 -17.796 -22.853  0.00  0.00    +0.234 C 
ATOM     13  C   UNL     1      34.145 -15.572 -22.895  0.00  0.00    +0.310 C 
ATOM     14  H   UNL     1      34.367 -14.566 -21.134  0.00  0.00    +0.156 HD
ATOM     15  H   UNL     1      35.202 -16.414 -21.347  0.00  0.00    +0.159 HD
BRANCH  12  16
ATOM     16  C   UNL     1      36.088 -18.642 -21.894  0.00  0.00    +0.112 C 
BRANCH  16  18
ATOM     17  F   UNL     1      32.965 -22.148 -18.803  0.00  0.00    -0.204 F 
ATOM     18  C   UNL     1      35.251 -19.582 -21.067  0.00  0.00    -0.013 C 
ATOM     19  C   UNL     1      35.874 -20.564 -20.309  0.00  0.00    -0.001 C 
ATOM     20  C   UNL     1      33.870 -19.452 -21.073  0.00  0.00    -0.001 C 
ATOM     21  C   UNL     1      35.098 -21.434 -19.542  0.00  0.00    +0.029 C 
ATOM     22  C   UNL     1      33.095 -20.322 -20.307  0.00  0.00    +0.029 C 
ATOM     23  C   UNL     1      33.709 -21.312 -19.540  0.00  0.00    +0.140 C 
ENDBRANCH  16  18
ENDBRANCH  12  16
ENDBRANCH   3  10
BRANCH   2  24
ATOM     24  O   UNL     1      31.207  -9.756 -22.969  0.00  0.00    -0.451 OA
BRANCH  24  28
ATOM     25  N   UNL     1      31.722  -5.136 -22.714  0.00  0.00    -0.297 N 
ATOM     26  N   UNL     1      32.416  -6.365 -20.762  0.00  0.00    -0.229 NA
ATOM     27  C   UNL     1      31.489  -7.355 -22.804  0.00  0.00    +0.067 C 
ATOM     28  C   UNL     1      31.594  -8.648 -22.268  0.00  0.00    +0.150 C 
ATOM     29  C   UNL     1      31.910  -6.294 -22.007  0.00  0.00    +0.135 C 
ATOM     30  C   UNL     1      31.035  -6.795 -24.028  0.00  0.00    +0.022 C 
ATOM     31  C   UNL     1      31.191  -5.427 -23.943  0.00  0.00    +0.063 C 
ATOM     32  C   UNL     1      32.112  -8.779 -20.980  0.00  0.00    +0.058 C 
ATOM     33  C   UNL     1      32.496  -7.633 -20.296  0.00  0.00    +0.103 C 
ATOM     34  H   UNL     1      31.935  -4.231 -22.388  0.00  0.00    +0.154 HD
ENDBRANCH  24  28
ENDBRANCH   2  24
TORSDOF 5
ENDMDL
MODEL 6
REMARK VINA RESULT:     -12.6      1.785      2.106
REMARK  Name = 11560856
REMARK  5 active torsions:
REMARK  status: ('A' for Active; 'I' for Inactive)
REMARK    1  A    between atoms: C_2  and  O_24
REMARK    2  A    between atoms: C_3  and  N_10
REMARK    3  A    between atoms: C_12  and  C_16
REMARK    4  A    between atoms: C_16  and  C_18
REMARK    5  A    between atoms: O_24  and  C_28
REMARK                            x       y       z     vdW  Elec       q    Type
REMARK                         _______ _______ _______ _____ _____    ______ ____
ROOT
ATOM      1  F   UNL     1      36.755 -22.052 -19.063  0.00  0.00    -0.201 F 
ATOM      2  C   UNL     1      34.391 -22.150 -19.224  0.00  0.00    +0.173 C 
ATOM      3  C   UNL     1      34.409 -19.814 -20.710  0.00  0.00    +0.054 C 
ATOM      4  C   UNL     1      35.600 -21.534 -19.503  0.00  0.00    +0.176 C 
ATOM      5  C   UNL     1      33.191 -21.623 -19.671  0.00  0.00    +0.041 C 
ATOM      6  C   UNL     1      35.609 -20.358 -20.252  0.00  0.00    +0.047 C 
ATOM      7  C   UNL     1      33.201 -20.446 -20.420  0.00  0.00    +0.018 C 
ENDROOT
BRANCH   3  10
ATOM      8  O   UNL     1      34.742 -17.319 -25.533  0.00  0.00    -0.274 OA
ATOM      9  O   UNL     1      34.673 -19.401 -23.672  0.00  0.00    -0.252 OA
ATOM     10  N   UNL     1      34.419 -18.638 -21.460  0.00  0.00    -0.268 N 
ATOM     11  N   UNL     1      34.508 -17.129 -23.220  0.00  0.00    -0.239 N 
ATOM     12  C   UNL     1      34.607 -16.633 -24.522  0.00  0.00    +0.234 C 
ATOM     13  C   UNL     1      34.546 -18.490 -22.858  0.00  0.00    +0.310 C 
ATOM     14  H   UNL     1      34.326 -17.802 -20.949  0.00  0.00    +0.156 HD
ATOM     15  H   UNL     1      34.403 -16.472 -22.494  0.00  0.00    +0.159 HD
BRANCH  12  16
ATOM     16  C   UNL     1      34.529 -15.119 -24.542  0.00  0.00    +0.112 C 
BRANCH  16  18
ATOM     17  F   UNL     1      32.043 -12.959 -19.987  0.00  0.00    -0.204 F 
ATOM     18  C   UNL     1      33.864 -14.539 -23.322  0.00  0.00    -0.013 C 
ATOM     19  C   UNL     1      32.748 -13.728 -23.473  0.00  0.00    -0.001 C 
ATOM     20  C   UNL     1      34.376 -14.826 -22.065  0.00  0.00    -0.001 C 
ATOM     21  C   UNL     1      32.131 -13.192 -22.342  0.00  0.00    +0.029 C 
ATOM     22  C   UNL     1      33.759 -14.289 -20.934  0.00  0.00    +0.029 C 
ATOM     23  C   UNL     1      32.637 -13.474 -21.072  0.00  0.00    +0.140 C 
ENDBRANCH  16  18
ENDBRANCH  12  16
ENDBRANCH   3  10
BRANCH   2  24
ATOM     24  O   UNL     1      34.381 -23.316 -18.483  0.00  0.00    -0.451 OA
BRANCH  24  28
ATOM     25  N   UNL     1      34.868 -23.162 -13.855  0.00  0.00    -0.297 N 
ATOM     26  N   UNL     1      32.597 -23.168 -14.659  0.00  0.00    -0.229 NA
ATOM     27  C   UNL     1      34.600 -23.236 -16.071  0.00  0.00    +0.067 C 
ATOM     28  C   UNL     1      33.820 -23.268 -17.238  0.00  0.00    +0.150 C 
ATOM     29  C   UNL     1      33.928 -23.187 -14.852  0.00  0.00    +0.135 C 
ATOM     30  C   UNL     1      35.989 -23.239 -15.776  0.00  0.00    +0.022 C 
ATOM     31  C   UNL     1      36.123 -23.192 -14.404  0.00  0.00    +0.063 C 
ATOM     32  C   UNL     1      32.433 -23.250 -17.095  0.00  0.00    +0.058 C 
ATOM     33  C   UNL     1      31.895 -23.202 -15.815  0.00  0.00    +0.103 C 
ATOM     34  H   UNL     1      34.670 -23.126 -12.891  0.00  0.00    +0.154 HD
ENDBRANCH  24  28
ENDBRANCH   2  24
TORSDOF 5
ENDMDL
MODEL 7
REMARK VINA RESULT:     -12.5      3.706     10.329
REMARK  Name = 11560856
REMARK  5 active torsions:
REMARK  status: ('A' for Active; 'I' for Inactive)
REMARK    1  A    between atoms: C_2  and  O_24
REMARK    2  A    between atoms: C_3  and  N_10
REMARK    3  A    between atoms: C_12  and  C_16
REMARK    4  A    between atoms: C_16  and  C_18
REMARK    5  A    between atoms: O_24  and  C_28
REMARK                            x       y       z     vdW  Elec       q    Type
REMARK                         _______ _______ _______ _____ _____    ______ ____
ROOT
ATOM      1  F   UNL     1      37.138 -20.919 -20.340  0.00  0.00    -0.201 F 
ATOM      2  C   UNL     1      34.984 -20.178 -21.001  0.00  0.00    +0.173 C 
ATOM      3  C   UNL     1      33.860 -21.671 -18.958  0.00  0.00    +0.054 C 
ATOM      4  C   UNL     1      35.810 -20.917 -20.169  0.00  0.00    +0.176 C 
ATOM      5  C   UNL     1      33.610 -20.170 -20.834  0.00  0.00    +0.041 C 
ATOM      6  C   UNL     1      35.243 -21.668 -19.140  0.00  0.00    +0.047 C 
ATOM      7  C   UNL     1      33.044 -20.922 -19.805  0.00  0.00    +0.018 C 
ENDROOT
BRANCH   3  10
ATOM      8  O   UNL     1      34.429 -24.509 -14.351  0.00  0.00    -0.274 OA
ATOM      9  O   UNL     1      35.139 -22.974 -16.574  0.00  0.00    -0.252 OA
ATOM     10  N   UNL     1      33.294 -22.422 -17.927  0.00  0.00    -0.268 N 
ATOM     11  N   UNL     1      33.004 -23.691 -16.008  0.00  0.00    -0.239 N 
ATOM     12  C   UNL     1      33.306 -24.388 -14.835  0.00  0.00    +0.234 C 
ATOM     13  C   UNL     1      33.937 -23.018 -16.821  0.00  0.00    +0.310 C 
ATOM     14  H   UNL     1      32.321 -22.554 -17.978  0.00  0.00    +0.156 HD
ATOM     15  H   UNL     1      32.061 -23.670 -16.290  0.00  0.00    +0.159 HD
BRANCH  12  16
ATOM     16  C   UNL     1      32.059 -24.991 -14.217  0.00  0.00    +0.112 C 
BRANCH  16  18
ATOM     17  F   UNL     1      27.294 -22.776 -16.213  0.00  0.00    -0.204 F 
ATOM     18  C   UNL     1      30.781 -24.398 -14.750  0.00  0.00    -0.013 C 
ATOM     19  C   UNL     1      30.476 -23.072 -14.474  0.00  0.00    -0.001 C 
ATOM     20  C   UNL     1      29.930 -25.184 -15.512  0.00  0.00    -0.001 C 
ATOM     21  C   UNL     1      29.293 -22.523 -14.969  0.00  0.00    +0.029 C 
ATOM     22  C   UNL     1      28.747 -24.635 -16.008  0.00  0.00    +0.029 C 
ATOM     23  C   UNL     1      28.429 -23.305 -15.737  0.00  0.00    +0.140 C 
ENDBRANCH  16  18
ENDBRANCH  12  16
ENDBRANCH   3  10
BRANCH   2  24
ATOM     24  O   UNL     1      35.545 -19.433 -22.020  0.00  0.00    -0.451 OA
BRANCH  24  28
ATOM     25  N   UNL     1      34.180 -15.815 -24.613  0.00  0.00    -0.297 N 
ATOM     26  N   UNL     1      34.429 -15.367 -22.259  0.00  0.00    -0.229 NA
ATOM     27  C   UNL     1      34.835 -17.529 -23.341  0.00  0.00    +0.067 C 
ATOM     28  C   UNL     1      35.182 -18.119 -22.114  0.00  0.00    +0.150 C 
ATOM     29  C   UNL     1      34.479 -16.184 -23.327  0.00  0.00    +0.135 C 
ATOM     30  C   UNL     1      34.741 -17.966 -24.689  0.00  0.00    +0.022 C 
ATOM     31  C   UNL     1      34.336 -16.889 -25.448  0.00  0.00    +0.063 C 
ATOM     32  C   UNL     1      35.147 -17.317 -20.975  0.00  0.00    +0.058 C 
ATOM     33  C   UNL     1      34.774 -15.986 -21.106  0.00  0.00    +0.103 C 
ATOM     34  H   UNL     1      33.897 -14.914 -24.893  0.00  0.00    +0.154 HD
ENDBRANCH  24  28
ENDBRANCH   2  24
TORSDOF 5
ENDMDL
MODEL 8
REMARK VINA RESULT:     -12.5      3.704      9.917
REMARK  Name = 11560856
REMARK  5 active torsions:
REMARK  status: ('A' for Active; 'I' for Inactive)
REMARK    1  A    between atoms: C_2  and  O_24
REMARK    2  A    between atoms: C_3  and  N_10
REMARK    3  A    between atoms: C_12  and  C_16
REMARK    4  A    between atoms: C_16  and  C_18
REMARK    5  A    between atoms: O_24  and  C_28
REMARK                            x       y       z     vdW  Elec       q    Type
REMARK                         _______ _______ _______ _____ _____    ______ ____
ROOT
ATOM      1  F   UNL     1      37.067 -21.151 -20.189  0.00  0.00    -0.201 F 
ATOM      2  C   UNL     1      35.170 -19.968 -20.982  0.00  0.00    +0.173 C 
ATOM      3  C   UNL     1      33.552 -21.477 -19.318  0.00  0.00    +0.054 C 
ATOM      4  C   UNL     1      35.745 -20.936 -20.175  0.00  0.00    +0.176 C 
ATOM      5  C   UNL     1      33.805 -19.738 -20.977  0.00  0.00    +0.041 C 
ATOM      6  C   UNL     1      34.929 -21.694 -19.336  0.00  0.00    +0.047 C 
ATOM      7  C   UNL     1      32.990 -20.498 -20.139  0.00  0.00    +0.018 C 
ENDROOT
BRANCH   3  10
ATOM      8  O   UNL     1      32.901 -24.366 -14.755  0.00  0.00    -0.274 OA
ATOM      9  O   UNL     1      34.167 -22.811 -16.700  0.00  0.00    -0.252 OA
ATOM     10  N   UNL     1      32.736 -22.235 -18.478  0.00  0.00    -0.268 N 
ATOM     11  N   UNL     1      31.956 -23.524 -16.714  0.00  0.00    -0.239 N 
ATOM     12  C   UNL     1      31.942 -24.235 -15.511  0.00  0.00    +0.234 C 
ATOM     13  C   UNL     1      33.069 -22.846 -17.251  0.00  0.00    +0.310 C 
ATOM     14  H   UNL     1      31.809 -22.361 -18.780  0.00  0.00    +0.156 HD
ATOM     15  H   UNL     1      31.119 -23.494 -17.231  0.00  0.00    +0.159 HD
BRANCH  12  16
ATOM     16  C   UNL     1      30.576 -24.838 -15.244  0.00  0.00    +0.112 C 
BRANCH  16  18
ATOM     17  F   UNL     1      26.331 -21.546 -16.897  0.00  0.00    -0.204 F 
ATOM     18  C   UNL     1      29.438 -23.956 -15.687  0.00  0.00    -0.013 C 
ATOM     19  C   UNL     1      29.149 -22.803 -14.970  0.00  0.00    -0.001 C 
ATOM     20  C   UNL     1      28.696 -24.309 -16.805  0.00  0.00    -0.001 C 
ATOM     21  C   UNL     1      28.095 -21.986 -15.380  0.00  0.00    +0.029 C 
ATOM     22  C   UNL     1      27.642 -23.492 -17.215  0.00  0.00    +0.029 C 
ATOM     23  C   UNL     1      27.342 -22.331 -16.504  0.00  0.00    +0.140 C 
ENDBRANCH  16  18
ENDBRANCH  12  16
ENDBRANCH   3  10
BRANCH   2  24
ATOM     24  O   UNL     1      35.978 -19.215 -21.812  0.00  0.00    -0.451 OA
BRANCH  24  28
ATOM     25  N   UNL     1      34.002 -15.043 -22.418  0.00  0.00    -0.297 N 
ATOM     26  N   UNL     1      34.101 -16.437 -24.380  0.00  0.00    -0.229 NA
ATOM     27  C   UNL     1      34.943 -17.051 -22.161  0.00  0.00    +0.067 C 
ATOM     28  C   UNL     1      35.369 -18.305 -22.630  0.00  0.00    +0.150 C 
ATOM     29  C   UNL     1      34.335 -16.197 -23.077  0.00  0.00    +0.135 C 
ATOM     30  C   UNL     1      34.969 -16.369 -20.916  0.00  0.00    +0.022 C 
ATOM     31  C   UNL     1      34.383 -15.135 -21.105  0.00  0.00    +0.063 C 
ATOM     32  C   UNL     1      35.151 -18.605 -23.974  0.00  0.00    +0.058 C 
ATOM     33  C   UNL     1      34.529 -17.658 -24.777  0.00  0.00    +0.103 C 
ATOM     34  H   UNL     1      33.558 -14.264 -22.827  0.00  0.00    +0.154 HD
ENDBRANCH  24  28
ENDBRANCH   2  24
TORSDOF 5
ENDMDL
MODEL 9
REMARK VINA RESULT:     -12.2      3.537     12.628
REMARK  Name = 11560856
REMARK  5 active torsions:
REMARK  status: ('A' for Active; 'I' for Inactive)
REMARK    1  A    between atoms: C_2  and  O_24
REMARK    2  A    between atoms: C_3  and  N_10
REMARK    3  A    between atoms: C_12  and  C_16
REMARK    4  A    between atoms: C_16  and  C_18
REMARK    5  A    between atoms: O_24  and  C_28
REMARK                            x       y       z     vdW  Elec       q    Type
REMARK                         _______ _______ _______ _____ _____    ______ ____
ROOT
ATOM      1  F   UNL     1      30.738 -11.065 -20.722  0.00  0.00    -0.201 F 
ATOM      2  C   UNL     1      32.072 -10.719 -22.653  0.00  0.00    +0.173 C 
ATOM      3  C   UNL     1      32.835 -13.380 -22.583  0.00  0.00    +0.054 C 
ATOM      4  C   UNL     1      31.576 -11.540 -21.653  0.00  0.00    +0.176 C 
ATOM      5  C   UNL     1      32.940 -11.199 -23.618  0.00  0.00    +0.041 C 
ATOM      6  C   UNL     1      31.961 -12.880 -21.619  0.00  0.00    +0.047 C 
ATOM      7  C   UNL     1      33.325 -12.539 -23.583  0.00  0.00    +0.018 C 
ENDROOT
BRANCH   3  10
ATOM      8  O   UNL     1      35.744 -17.381 -20.319  0.00  0.00    -0.274 OA
ATOM      9  O   UNL     1      34.720 -14.816 -20.740  0.00  0.00    -0.252 OA
ATOM     10  N   UNL     1      33.218 -14.721 -22.549  0.00  0.00    -0.268 N 
ATOM     11  N   UNL     1      34.226 -16.726 -21.965  0.00  0.00    -0.239 N 
ATOM     12  C   UNL     1      35.028 -17.645 -21.282  0.00  0.00    +0.234 C 
ATOM     13  C   UNL     1      34.112 -15.355 -21.660  0.00  0.00    +0.310 C 
ATOM     14  H   UNL     1      32.813 -15.299 -23.234  0.00  0.00    +0.156 HD
ATOM     15  H   UNL     1      33.697 -17.066 -22.723  0.00  0.00    +0.159 HD
BRANCH  12  16
ATOM     16  C   UNL     1      34.908 -19.033 -21.881  0.00  0.00    +0.112 C 
BRANCH  16  18
ATOM     17  F   UNL     1      33.868 -23.021 -18.059  0.00  0.00    -0.204 F 
ATOM     18  C   UNL     1      34.629 -20.103 -20.857  0.00  0.00    -0.013 C 
ATOM     19  C   UNL     1      35.672 -20.890 -20.391  0.00  0.00    -0.001 C 
ATOM     20  C   UNL     1      33.334 -20.283 -20.395  0.00  0.00    -0.001 C 
ATOM     21  C   UNL     1      35.414 -21.880 -19.443  0.00  0.00    +0.029 C 
ATOM     22  C   UNL     1      33.075 -21.274 -19.447  0.00  0.00    +0.029 C 
ATOM     23  C   UNL     1      34.115 -22.071 -18.970  0.00  0.00    +0.140 C 
ENDBRANCH  16  18
ENDBRANCH  12  16
ENDBRANCH   3  10
BRANCH   2  24
ATOM     24  O   UNL     1      31.690  -9.392 -22.688  0.00  0.00    -0.451 OA
BRANCH  24  28
ATOM     25  N   UNL     1      32.506  -5.350 -24.850  0.00  0.00    -0.297 N 
ATOM     26  N   UNL     1      34.461  -6.653 -24.317  0.00  0.00    -0.229 NA
ATOM     27  C   UNL     1      32.149  -7.295 -23.813  0.00  0.00    +0.067 C 
ATOM     28  C   UNL     1      32.574  -8.495 -23.220  0.00  0.00    +0.150 C 
ATOM     29  C   UNL     1      33.131  -6.450 -24.324  0.00  0.00    +0.135 C 
ATOM     30  C   UNL     1      30.899  -6.664 -24.049  0.00  0.00    +0.022 C 
ATOM     31  C   UNL     1      31.150  -5.469 -24.688  0.00  0.00    +0.063 C 
ATOM     32  C   UNL     1      33.943  -8.755 -23.186  0.00  0.00    +0.058 C 
ATOM     33  C   UNL     1      34.813  -7.823 -23.736  0.00  0.00    +0.103 C 
ATOM     34  H   UNL     1      32.962  -4.589 -25.278  0.00  0.00    +0.154 HD
ENDBRANCH  24  28
ENDBRANCH   2  24
TORSDOF 5
ENDMDL
