MODEL 1
REMARK VINA RESULT:      -6.5      0.000      0.000
REMARK  Name = 1005
REMARK  6 active torsions:
REMARK  status: ('A' for Active; 'I' for Inactive)
REMARK    1  A    between atoms: O_1  and  P_2
REMARK    2  A    between atoms: O_1  and  C_8
REMARK    3  A    between atoms: P_2  and  O_4
REMARK    4  A    between atoms: P_2  and  O_6
REMARK    5  A    between atoms: C_8  and  C_11
REMARK    6  A    between atoms: C_11  and  O_12
REMARK                            x       y       z     vdW  Elec       q    Type
REMARK                         _______ _______ _______ _____ _____    ______ ____
ROOT
ATOM      1  O   UNL     1      38.844 -26.948 -14.524  0.00  0.00    -0.396 OA
ENDROOT
BRANCH   1   2
ATOM      2  P   UNL     1      40.078 -25.930 -14.610  0.00  0.00    +0.528 P 
ATOM      3  O   UNL     1      39.873 -24.579 -13.989  0.00  0.00    -0.216 OA
BRANCH   2   4
ATOM      4  O   UNL     1      40.391 -25.894 -16.197  0.00  0.00    -0.293 OA
ATOM      5  H   UNL     1      39.959 -25.123 -16.595  0.00  0.00    +0.223 HD
ENDBRANCH   2   4
BRANCH   2   6
ATOM      6  O   UNL     1      41.331 -26.764 -14.017  0.00  0.00    -0.293 OA
ATOM      7  H   UNL     1      41.704 -27.327 -14.715  0.00  0.00    +0.223 HD
ENDBRANCH   2   6
ENDBRANCH   1   2
BRANCH   1   8
ATOM      8  C   UNL     1      37.563 -26.537 -14.213  0.00  0.00    +0.224 C 
ATOM      9  C   UNL     1      37.193 -26.274 -12.952  0.00  0.00    +0.048 C 
BRANCH   8  11
ATOM     10  O   UNL     1      35.769 -25.544 -15.424  0.00  0.00    -0.242 OA
ATOM     11  C   UNL     1      36.633 -26.406 -15.358  0.00  0.00    +0.373 C 
BRANCH  11  12
ATOM     12  O   UNL     1      36.842 -27.338 -16.314  0.00  0.00    -0.475 OA
ATOM     13  H   UNL     1      36.162 -27.942 -16.537  0.00  0.00    +0.296 HD
ENDBRANCH  11  12
ENDBRANCH   8  11
ENDBRANCH   1   8
TORSDOF 6
ENDMDL
MODEL 2
REMARK VINA RESULT:      -6.0      1.934      3.880
REMARK  Name = 1005
REMARK  6 active torsions:
REMARK  status: ('A' for Active; 'I' for Inactive)
REMARK    1  A    between atoms: O_1  and  P_2
REMARK    2  A    between atoms: O_1  and  C_8
REMARK    3  A    between atoms: P_2  and  O_4
REMARK    4  A    between atoms: P_2  and  O_6
REMARK    5  A    between atoms: C_8  and  C_11
REMARK    6  A    between atoms: C_11  and  O_12
REMARK                            x       y       z     vdW  Elec       q    Type
REMARK                         _______ _______ _______ _____ _____    ______ ____
ROOT
ATOM      1  O   UNL     1      37.929 -25.348 -15.056  0.00  0.00    -0.396 OA
ENDROOT
BRANCH   1   2
ATOM      2  P   UNL     1      36.815 -26.500 -15.059  0.00  0.00    +0.528 P 
ATOM      3  O   UNL     1      36.776 -27.389 -16.267  0.00  0.00    -0.216 OA
BRANCH   2   4
ATOM      4  O   UNL     1      35.451 -25.668 -14.799  0.00  0.00    -0.293 OA
ATOM      5  H   UNL     1      35.582 -25.055 -14.059  0.00  0.00    +0.223 HD
ENDBRANCH   2   4
BRANCH   2   6
ATOM      6  O   UNL     1      37.033 -27.274 -13.655  0.00  0.00    -0.293 OA
ATOM      7  H   UNL     1      37.170 -28.220 -13.825  0.00  0.00    +0.223 HD
ENDBRANCH   2   6
ENDBRANCH   1   2
BRANCH   1   8
ATOM      8  C   UNL     1      39.022 -25.375 -14.213  0.00  0.00    +0.224 C 
ATOM      9  C   UNL     1      38.962 -24.885 -12.966  0.00  0.00    +0.048 C 
BRANCH   8  11
ATOM     10  O   UNL     1      41.111 -26.510 -14.085  0.00  0.00    -0.242 OA
ATOM     11  C   UNL     1      40.253 -25.977 -14.772  0.00  0.00    +0.373 C 
BRANCH  11  12
ATOM     12  O   UNL     1      40.324 -25.872 -16.118  0.00  0.00    -0.475 OA
ATOM     13  H   UNL     1      39.644 -26.230 -16.653  0.00  0.00    +0.296 HD
ENDBRANCH  11  12
ENDBRANCH   8  11
ENDBRANCH   1   8
TORSDOF 6
ENDMDL
MODEL 3
REMARK VINA RESULT:      -6.0      1.533      2.281
REMARK  Name = 1005
REMARK  6 active torsions:
REMARK  status: ('A' for Active; 'I' for Inactive)
REMARK    1  A    between atoms: O_1  and  P_2
REMARK    2  A    between atoms: O_1  and  C_8
REMARK    3  A    between atoms: P_2  and  O_4
REMARK    4  A    between atoms: P_2  and  O_6
REMARK    5  A    between atoms: C_8  and  C_11
REMARK    6  A    between atoms: C_11  and  O_12
REMARK                            x       y       z     vdW  Elec       q    Type
REMARK                         _______ _______ _______ _____ _____    ______ ____
ROOT
ATOM      1  O   UNL     1      38.908 -26.540 -14.365  0.00  0.00    -0.396 OA
ENDROOT
BRANCH   1   2
ATOM      2  P   UNL     1      39.887 -25.372 -14.860  0.00  0.00    +0.528 P 
ATOM      3  O   UNL     1      40.885 -24.869 -13.859  0.00  0.00    -0.216 OA
BRANCH   2   4
ATOM      4  O   UNL     1      38.850 -24.249 -15.391  0.00  0.00    -0.293 OA
ATOM      5  H   UNL     1      38.027 -24.676 -15.675  0.00  0.00    +0.223 HD
ENDBRANCH   2   4
BRANCH   2   6
ATOM      6  O   UNL     1      40.530 -25.940 -16.231  0.00  0.00    -0.293 OA
ATOM      7  H   UNL     1      41.264 -25.367 -16.506  0.00  0.00    +0.223 HD
ENDBRANCH   2   6
ENDBRANCH   1   2
BRANCH   1   8
ATOM      8  C   UNL     1      37.538 -26.382 -14.301  0.00  0.00    +0.224 C 
ATOM      9  C   UNL     1      36.731 -26.824 -15.275  0.00  0.00    +0.048 C 
BRANCH   8  11
ATOM     10  O   UNL     1      36.782 -24.503 -13.048  0.00  0.00    -0.242 OA
ATOM     11  C   UNL     1      37.024 -25.700 -13.091  0.00  0.00    +0.373 C 
BRANCH  11  12
ATOM     12  O   UNL     1      36.855 -26.540 -12.046  0.00  0.00    -0.475 OA
ATOM     13  H   UNL     1      36.007 -26.649 -11.664  0.00  0.00    +0.296 HD
ENDBRANCH  11  12
ENDBRANCH   8  11
ENDBRANCH   1   8
TORSDOF 6
ENDMDL
MODEL 4
REMARK VINA RESULT:      -5.9      1.820      2.927
REMARK  Name = 1005
REMARK  6 active torsions:
REMARK  status: ('A' for Active; 'I' for Inactive)
REMARK    1  A    between atoms: O_1  and  P_2
REMARK    2  A    between atoms: O_1  and  C_8
REMARK    3  A    between atoms: P_2  and  O_4
REMARK    4  A    between atoms: P_2  and  O_6
REMARK    5  A    between atoms: C_8  and  C_11
REMARK    6  A    between atoms: C_11  and  O_12
REMARK                            x       y       z     vdW  Elec       q    Type
REMARK                         _______ _______ _______ _____ _____    ______ ____
ROOT
ATOM      1  O   UNL     1      39.357 -24.691 -13.968  0.00  0.00    -0.396 OA
ENDROOT
BRANCH   1   2
ATOM      2  P   UNL     1      39.995 -26.044 -14.539  0.00  0.00    +0.528 P 
ATOM      3  O   UNL     1      41.169 -26.598 -13.785  0.00  0.00    -0.216 OA
BRANCH   2   4
ATOM      4  O   UNL     1      40.313 -25.658 -16.078  0.00  0.00    -0.293 OA
ATOM      5  H   UNL     1      39.919 -26.322 -16.666  0.00  0.00    +0.223 HD
ENDBRANCH   2   4
BRANCH   2   6
ATOM      6  O   UNL     1      38.741 -27.056 -14.676  0.00  0.00    -0.293 OA
ATOM      7  H   UNL     1      39.038 -27.889 -15.075  0.00  0.00    +0.223 HD
ENDBRANCH   2   6
ENDBRANCH   1   2
BRANCH   1   8
ATOM      8  C   UNL     1      38.033 -24.599 -13.583  0.00  0.00    +0.224 C 
ATOM      9  C   UNL     1      37.087 -24.146 -14.417  0.00  0.00    +0.048 C 
BRANCH   8  11
ATOM     10  O   UNL     1      37.999 -24.362 -11.213  0.00  0.00    -0.242 OA
ATOM     11  C   UNL     1      37.733 -25.033 -12.200  0.00  0.00    +0.373 C 
BRANCH  11  12
ATOM     12  O   UNL     1      37.139 -26.247 -12.148  0.00  0.00    -0.475 OA
ATOM     13  H   UNL     1      36.669 -26.506 -11.380  0.00  0.00    +0.296 HD
ENDBRANCH  11  12
ENDBRANCH   8  11
ENDBRANCH   1   8
TORSDOF 6
ENDMDL
MODEL 5
REMARK VINA RESULT:      -5.8      1.274      2.072
REMARK  Name = 1005
REMARK  6 active torsions:
REMARK  status: ('A' for Active; 'I' for Inactive)
REMARK    1  A    between atoms: O_1  and  P_2
REMARK    2  A    between atoms: O_1  and  C_8
REMARK    3  A    between atoms: P_2  and  O_4
REMARK    4  A    between atoms: P_2  and  O_6
REMARK    5  A    between atoms: C_8  and  C_11
REMARK    6  A    between atoms: C_11  and  O_12
REMARK                            x       y       z     vdW  Elec       q    Type
REMARK                         _______ _______ _______ _____ _____    ______ ____
ROOT
ATOM      1  O   UNL     1      39.055 -25.881 -13.853  0.00  0.00    -0.396 OA
ENDROOT
BRANCH   1   2
ATOM      2  P   UNL     1      40.522 -25.930 -14.495  0.00  0.00    +0.528 P 
ATOM      3  O   UNL     1      41.420 -27.036 -14.022  0.00  0.00    -0.216 OA
BRANCH   2   4
ATOM      4  O   UNL     1      41.083 -24.441 -14.199  0.00  0.00    -0.293 OA
ATOM      5  H   UNL     1      40.460 -23.785 -14.547  0.00  0.00    +0.223 HD
ENDBRANCH   2   4
BRANCH   2   6
ATOM      6  O   UNL     1      40.264 -25.904 -16.092  0.00  0.00    -0.293 OA
ATOM      7  H   UNL     1      40.207 -26.813 -16.425  0.00  0.00    +0.223 HD
ENDBRANCH   2   6
ENDBRANCH   1   2
BRANCH   1   8
ATOM      8  C   UNL     1      37.926 -25.605 -14.600  0.00  0.00    +0.224 C 
ATOM      9  C   UNL     1      37.637 -24.361 -15.007  0.00  0.00    +0.048 C 
BRANCH   8  11
ATOM     10  O   UNL     1      36.788 -27.101 -16.062  0.00  0.00    -0.242 OA
ATOM     11  C   UNL     1      37.065 -26.766 -14.920  0.00  0.00    +0.373 C 
BRANCH  11  12
ATOM     12  O   UNL     1      36.621 -27.410 -13.817  0.00  0.00    -0.475 OA
ATOM     13  H   UNL     1      37.014 -28.219 -13.556  0.00  0.00    +0.296 HD
ENDBRANCH  11  12
ENDBRANCH   8  11
ENDBRANCH   1   8
TORSDOF 6
ENDMDL
MODEL 6
REMARK VINA RESULT:      -5.8      2.395      3.912
REMARK  Name = 1005
REMARK  6 active torsions:
REMARK  status: ('A' for Active; 'I' for Inactive)
REMARK    1  A    between atoms: O_1  and  P_2
REMARK    2  A    between atoms: O_1  and  C_8
REMARK    3  A    between atoms: P_2  and  O_4
REMARK    4  A    between atoms: P_2  and  O_6
REMARK    5  A    between atoms: C_8  and  C_11
REMARK    6  A    between atoms: C_11  and  O_12
REMARK                            x       y       z     vdW  Elec       q    Type
REMARK                         _______ _______ _______ _____ _____    ______ ____
ROOT
ATOM      1  O   UNL     1      38.528 -24.329 -13.850  0.00  0.00    -0.396 OA
ENDROOT
BRANCH   1   2
ATOM      2  P   UNL     1      37.876 -24.236 -12.390  0.00  0.00    +0.528 P 
ATOM      3  O   UNL     1      37.727 -25.529 -11.642  0.00  0.00    -0.216 OA
BRANCH   2   4
ATOM      4  O   UNL     1      36.481 -23.468 -12.679  0.00  0.00    -0.293 OA
ATOM      5  H   UNL     1      36.537 -23.004 -13.528  0.00  0.00    +0.223 HD
ENDBRANCH   2   4
BRANCH   2   6
ATOM      6  O   UNL     1      38.752 -23.110 -11.628  0.00  0.00    -0.293 OA
ATOM      7  H   UNL     1      38.310 -22.249 -11.705  0.00  0.00    +0.223 HD
ENDBRANCH   2   6
ENDBRANCH   1   2
BRANCH   1   8
ATOM      8  C   UNL     1      38.687 -25.528 -14.517  0.00  0.00    +0.224 C 
ATOM      9  C   UNL     1      37.636 -26.255 -14.921  0.00  0.00    +0.048 C 
BRANCH   8  11
ATOM     10  O   UNL     1      40.846 -26.292 -13.861  0.00  0.00    -0.242 OA
ATOM     11  C   UNL     1      40.086 -25.951 -14.756  0.00  0.00    +0.373 C 
BRANCH  11  12
ATOM     12  O   UNL     1      40.429 -25.918 -16.063  0.00  0.00    -0.475 OA
ATOM     13  H   UNL     1      39.809 -25.633 -16.703  0.00  0.00    +0.296 HD
ENDBRANCH  11  12
ENDBRANCH   8  11
ENDBRANCH   1   8
TORSDOF 6
ENDMDL
MODEL 7
REMARK VINA RESULT:      -5.7      1.697      2.461
REMARK  Name = 1005
REMARK  6 active torsions:
REMARK  status: ('A' for Active; 'I' for Inactive)
REMARK    1  A    between atoms: O_1  and  P_2
REMARK    2  A    between atoms: O_1  and  C_8
REMARK    3  A    between atoms: P_2  and  O_4
REMARK    4  A    between atoms: P_2  and  O_6
REMARK    5  A    between atoms: C_8  and  C_11
REMARK    6  A    between atoms: C_11  and  O_12
REMARK                            x       y       z     vdW  Elec       q    Type
REMARK                         _______ _______ _______ _____ _____    ______ ____
ROOT
ATOM      1  O   UNL     1      39.020 -25.783 -13.894  0.00  0.00    -0.396 OA
ENDROOT
BRANCH   1   2
ATOM      2  P   UNL     1      40.495 -25.892 -14.511  0.00  0.00    +0.528 P 
ATOM      3  O   UNL     1      41.351 -27.013 -13.998  0.00  0.00    -0.216 OA
BRANCH   2   4
ATOM      4  O   UNL     1      41.096 -24.414 -14.240  0.00  0.00    -0.293 OA
ATOM      5  H   UNL     1      41.193 -24.274 -13.285  0.00  0.00    +0.223 HD
ENDBRANCH   2   4
BRANCH   2   6
ATOM      6  O   UNL     1      40.263 -25.895 -16.111  0.00  0.00    -0.293 OA
ATOM      7  H   UNL     1      40.734 -26.646 -16.505  0.00  0.00    +0.223 HD
ENDBRANCH   2   6
ENDBRANCH   1   2
BRANCH   1   8
ATOM      8  C   UNL     1      37.914 -25.482 -14.664  0.00  0.00    +0.224 C 
ATOM      9  C   UNL     1      37.110 -26.439 -15.148  0.00  0.00    +0.048 C 
BRANCH   8  11
ATOM     10  O   UNL     1      36.782 -23.406 -14.375  0.00  0.00    -0.242 OA
ATOM     11  C   UNL     1      37.676 -24.042 -14.914  0.00  0.00    +0.373 C 
BRANCH  11  12
ATOM     12  O   UNL     1      38.549 -23.511 -15.800  0.00  0.00    -0.475 OA
ATOM     13  H   UNL     1      39.259 -22.982 -15.497  0.00  0.00    +0.296 HD
ENDBRANCH  11  12
ENDBRANCH   8  11
ENDBRANCH   1   8
TORSDOF 6
ENDMDL
MODEL 8
REMARK VINA RESULT:      -5.7     10.763     11.713
REMARK  Name = 1005
REMARK  6 active torsions:
REMARK  status: ('A' for Active; 'I' for Inactive)
REMARK    1  A    between atoms: O_1  and  P_2
REMARK    2  A    between atoms: O_1  and  C_8
REMARK    3  A    between atoms: P_2  and  O_4
REMARK    4  A    between atoms: P_2  and  O_6
REMARK    5  A    between atoms: C_8  and  C_11
REMARK    6  A    between atoms: C_11  and  O_12
REMARK                            x       y       z     vdW  Elec       q    Type
REMARK                         _______ _______ _______ _____ _____    ______ ____
ROOT
ATOM      1  O   UNL     1      41.216 -15.232 -17.358  0.00  0.00    -0.396 OA
ENDROOT
BRANCH   1   2
ATOM      2  P   UNL     1      42.253 -16.414 -17.664  0.00  0.00    +0.528 P 
ATOM      3  O   UNL     1      42.666 -16.587 -19.096  0.00  0.00    -0.216 OA
BRANCH   2   4
ATOM      4  O   UNL     1      41.512 -17.702 -17.023  0.00  0.00    -0.293 OA
ATOM      5  H   UNL     1      40.648 -17.822 -17.446  0.00  0.00    +0.223 HD
ENDBRANCH   2   4
BRANCH   2   6
ATOM      6  O   UNL     1      43.473 -16.156 -16.634  0.00  0.00    -0.293 OA
ATOM      7  H   UNL     1      43.771 -17.003 -16.266  0.00  0.00    +0.223 HD
ENDBRANCH   2   6
ENDBRANCH   1   2
BRANCH   1   8
ATOM      8  C   UNL     1      41.375 -14.360 -16.299  0.00  0.00    +0.224 C 
ATOM      9  C   UNL     1      42.066 -13.218 -16.423  0.00  0.00    +0.048 C 
BRANCH   8  11
ATOM     10  O   UNL     1      40.792 -14.102 -14.004  0.00  0.00    -0.242 OA
ATOM     11  C   UNL     1      40.734 -14.767 -15.028  0.00  0.00    +0.373 C 
BRANCH  11  12
ATOM     12  O   UNL     1      40.084 -15.949 -15.123  0.00  0.00    -0.475 OA
ATOM     13  H   UNL     1      39.150 -15.976 -15.059  0.00  0.00    +0.296 HD
ENDBRANCH  11  12
ENDBRANCH   8  11
ENDBRANCH   1   8
TORSDOF 6
ENDMDL
MODEL 9
REMARK VINA RESULT:      -5.7      2.211      3.849
REMARK  Name = 1005
REMARK  6 active torsions:
REMARK  status: ('A' for Active; 'I' for Inactive)
REMARK    1  A    between atoms: O_1  and  P_2
REMARK    2  A    between atoms: O_1  and  C_8
REMARK    3  A    between atoms: P_2  and  O_4
REMARK    4  A    between atoms: P_2  and  O_6
REMARK    5  A    between atoms: C_8  and  C_11
REMARK    6  A    between atoms: C_11  and  O_12
REMARK                            x       y       z     vdW  Elec       q    Type
REMARK                         _______ _______ _______ _____ _____    ______ ____
ROOT
ATOM      1  O   UNL     1      38.833 -24.059 -14.444  0.00  0.00    -0.396 OA
ENDROOT
BRANCH   1   2
ATOM      2  P   UNL     1      37.370 -23.794 -15.040  0.00  0.00    +0.528 P 
ATOM      3  O   UNL     1      36.356 -23.225 -14.091  0.00  0.00    -0.216 OA
BRANCH   2   4
ATOM      4  O   UNL     1      36.974 -25.240 -15.651  0.00  0.00    -0.293 OA
ATOM      5  H   UNL     1      37.022 -25.910 -14.953  0.00  0.00    +0.223 HD
ENDBRANCH   2   4
BRANCH   2   6
ATOM      6  O   UNL     1      37.630 -22.905 -16.366  0.00  0.00    -0.293 OA
ATOM      7  H   UNL     1      36.813 -22.439 -16.608  0.00  0.00    +0.223 HD
ENDBRANCH   2   6
ENDBRANCH   1   2
BRANCH   1   8
ATOM      8  C   UNL     1      39.216 -25.284 -13.933  0.00  0.00    +0.224 C 
ATOM      9  C   UNL     1      38.627 -25.810 -12.850  0.00  0.00    +0.048 C 
BRANCH   8  11
ATOM     10  O   UNL     1      41.194 -26.599 -14.094  0.00  0.00    -0.242 OA
ATOM     11  C   UNL     1      40.309 -25.971 -14.656  0.00  0.00    +0.373 C 
BRANCH  11  12
ATOM     12  O   UNL     1      40.223 -25.827 -15.998  0.00  0.00    -0.475 OA
ATOM     13  H   UNL     1      40.981 -25.587 -16.493  0.00  0.00    +0.296 HD
ENDBRANCH  11  12
ENDBRANCH   8  11
ENDBRANCH   1   8
TORSDOF 6
ENDMDL
