MODEL 1
REMARK VINA RESULT:      -8.8      0.000      0.000
REMARK  Name = 5732
REMARK  3 active torsions:
REMARK  status: ('A' for Active; 'I' for Inactive)
REMARK    1  A    between atoms: C_3  and  C_18
REMARK    2  A    between atoms: C_4  and  C_11
REMARK    3  A    between atoms: C_18  and  C_21
REMARK                            x       y       z     vdW  Elec       q    Type
REMARK                         _______ _______ _______ _____ _____    ______ ____
ROOT
ATOM      1  N   UNL     1      33.820 -14.720 -22.691  0.00  0.00    -0.256 N 
ATOM      2  N   UNL     1      33.244 -15.706 -20.769  0.00  0.00    -0.389 NA
ATOM      3  C   UNL     1      34.381 -15.972 -22.713  0.00  0.00    +0.141 C 
ATOM      4  C   UNL     1      34.012 -16.556 -21.524  0.00  0.00    +0.129 C 
ATOM      5  C   UNL     1      33.136 -14.606 -21.485  0.00  0.00    +0.187 C 
ATOM      6  C   UNL     1      33.877 -13.708 -23.645  0.00  0.00    +0.063 C 
ATOM      7  C   UNL     1      33.244 -12.544 -23.412  0.00  0.00    -0.007 C 
ATOM      8  C   UNL     1      32.465 -13.375 -21.236  0.00  0.00    +0.048 C 
ATOM      9  C   UNL     1      32.515 -12.389 -22.154  0.00  0.00    +0.001 C 
ATOM     10  C   UNL     1      33.239 -11.393 -24.366  0.00  0.00    +0.032 C 
ENDROOT
BRANCH   4  11
ATOM     11  C   UNL     1      34.374 -17.875 -21.106  0.00  0.00    +0.027 C 
ATOM     12  C   UNL     1      35.717 -18.202 -20.896  0.00  0.00    +0.002 C 
ATOM     13  C   UNL     1      33.388 -18.844 -20.906  0.00  0.00    +0.002 C 
ATOM     14  C   UNL     1      35.082 -20.452 -20.289  0.00  0.00    -0.022 C 
ATOM     15  C   UNL     1      36.070 -19.488 -20.488  0.00  0.00    -0.004 C 
ATOM     16  C   UNL     1      33.741 -20.130 -20.498  0.00  0.00    -0.004 C 
ATOM     17  C   UNL     1      35.460 -21.828 -19.853  0.00  0.00    +0.031 C 
ENDBRANCH   4  11
BRANCH   3  18
ATOM     18  C   UNL     1      35.193 -16.478 -23.838  0.00  0.00    +0.113 C 
BRANCH  18  21
ATOM     19  O   UNL     1      33.676 -16.525 -25.702  0.00  0.00    -0.275 OA
ATOM     20  N   UNL     1      34.356 -18.588 -24.894  0.00  0.00    -0.276 N 
ATOM     21  C   UNL     1      34.338 -17.187 -24.898  0.00  0.00    +0.228 C 
ATOM     22  C   UNL     1      33.588 -19.385 -25.848  0.00  0.00    +0.115 C 
ATOM     23  C   UNL     1      35.144 -19.357 -23.938  0.00  0.00    +0.115 C 
ENDBRANCH  18  21
ENDBRANCH   3  18
TORSDOF 3
ENDMDL
MODEL 2
REMARK VINA RESULT:      -8.4      1.893      4.114
REMARK  Name = 5732
REMARK  3 active torsions:
REMARK  status: ('A' for Active; 'I' for Inactive)
REMARK    1  A    between atoms: C_3  and  C_18
REMARK    2  A    between atoms: C_4  and  C_11
REMARK    3  A    between atoms: C_18  and  C_21
REMARK                            x       y       z     vdW  Elec       q    Type
REMARK                         _______ _______ _______ _____ _____    ______ ____
ROOT
ATOM      1  N   UNL     1      34.327 -17.176 -23.172  0.00  0.00    -0.256 N 
ATOM      2  N   UNL     1      34.747 -19.368 -23.314  0.00  0.00    -0.389 NA
ATOM      3  C   UNL     1      34.544 -17.614 -21.891  0.00  0.00    +0.141 C 
ATOM      4  C   UNL     1      34.800 -18.961 -22.005  0.00  0.00    +0.129 C 
ATOM      5  C   UNL     1      34.462 -18.284 -24.004  0.00  0.00    +0.187 C 
ATOM      6  C   UNL     1      34.026 -15.898 -23.631  0.00  0.00    +0.063 C 
ATOM      7  C   UNL     1      33.851 -15.693 -24.950  0.00  0.00    -0.007 C 
ATOM      8  C   UNL     1      34.278 -18.068 -25.400  0.00  0.00    +0.048 C 
ATOM      9  C   UNL     1      33.987 -16.834 -25.854  0.00  0.00    +0.001 C 
ATOM     10  C   UNL     1      33.526 -14.362 -25.550  0.00  0.00    +0.032 C 
ENDROOT
BRANCH   4  11
ATOM     11  C   UNL     1      35.083 -19.842 -20.915  0.00  0.00    +0.027 C 
ATOM     12  C   UNL     1      36.392 -19.977 -20.443  0.00  0.00    +0.002 C 
ATOM     13  C   UNL     1      34.054 -20.571 -20.314  0.00  0.00    +0.002 C 
ATOM     14  C   UNL     1      35.639 -21.562 -18.783  0.00  0.00    -0.022 C 
ATOM     15  C   UNL     1      36.670 -20.836 -19.379  0.00  0.00    -0.004 C 
ATOM     16  C   UNL     1      34.331 -21.429 -19.250  0.00  0.00    -0.004 C 
ATOM     17  C   UNL     1      35.935 -22.480 -17.646  0.00  0.00    +0.031 C 
ENDBRANCH   4  11
BRANCH   3  18
ATOM     18  C   UNL     1      34.488 -16.728 -20.710  0.00  0.00    +0.113 C 
BRANCH  18  21
ATOM     19  O   UNL     1      32.117 -16.338 -20.639  0.00  0.00    -0.275 OA
ATOM     20  N   UNL     1      33.452 -14.452 -20.810  0.00  0.00    -0.276 N 
ATOM     21  C   UNL     1      33.240 -15.833 -20.716  0.00  0.00    +0.228 C 
ATOM     22  C   UNL     1      32.352 -13.489 -20.826  0.00  0.00    +0.115 C 
ATOM     23  C   UNL     1      34.786 -13.869 -20.899  0.00  0.00    +0.115 C 
ENDBRANCH  18  21
ENDBRANCH   3  18
TORSDOF 3
ENDMDL
MODEL 3
REMARK VINA RESULT:      -8.4      1.475      2.093
REMARK  Name = 5732
REMARK  3 active torsions:
REMARK  status: ('A' for Active; 'I' for Inactive)
REMARK    1  A    between atoms: C_3  and  C_18
REMARK    2  A    between atoms: C_4  and  C_11
REMARK    3  A    between atoms: C_18  and  C_21
REMARK                            x       y       z     vdW  Elec       q    Type
REMARK                         _______ _______ _______ _____ _____    ______ ____
ROOT
ATOM      1  N   UNL     1      33.313 -13.971 -22.198  0.00  0.00    -0.256 N 
ATOM      2  N   UNL     1      32.913 -15.312 -20.453  0.00  0.00    -0.389 NA
ATOM      3  C   UNL     1      33.985 -15.141 -22.444  0.00  0.00    +0.141 C 
ATOM      4  C   UNL     1      33.723 -15.946 -21.360  0.00  0.00    +0.129 C 
ATOM      5  C   UNL     1      32.674 -14.125 -20.971  0.00  0.00    +0.187 C 
ATOM      6  C   UNL     1      33.236 -12.816 -22.969  0.00  0.00    +0.063 C 
ATOM      7  C   UNL     1      32.508 -11.773 -22.527  0.00  0.00    -0.007 C 
ATOM      8  C   UNL     1      31.902 -13.023 -20.502  0.00  0.00    +0.048 C 
ATOM      9  C   UNL     1      31.822 -11.900 -21.242  0.00  0.00    +0.001 C 
ATOM     10  C   UNL     1      32.357 -10.487 -23.274  0.00  0.00    +0.032 C 
ENDROOT
BRANCH   4  11
ATOM     11  C   UNL     1      34.223 -17.274 -21.180  0.00  0.00    +0.027 C 
ATOM     12  C   UNL     1      33.336 -18.341 -21.006  0.00  0.00    +0.002 C 
ATOM     13  C   UNL     1      35.600 -17.513 -21.177  0.00  0.00    +0.002 C 
ATOM     14  C   UNL     1      35.198 -19.870 -20.828  0.00  0.00    -0.022 C 
ATOM     15  C   UNL     1      33.823 -19.636 -20.830  0.00  0.00    -0.004 C 
ATOM     16  C   UNL     1      36.086 -18.808 -21.001  0.00  0.00    -0.004 C 
ATOM     17  C   UNL     1      35.718 -21.255 -20.640  0.00  0.00    +0.031 C 
ENDBRANCH   4  11
BRANCH   3  18
ATOM     18  C   UNL     1      34.793 -15.373 -23.659  0.00  0.00    +0.113 C 
BRANCH  18  21
ATOM     19  O   UNL     1      34.140 -17.474 -24.627  0.00  0.00    -0.275 OA
ATOM     20  N   UNL     1      33.309 -15.576 -25.664  0.00  0.00    -0.276 N 
ATOM     21  C   UNL     1      34.056 -16.244 -24.687  0.00  0.00    +0.228 C 
ATOM     22  C   UNL     1      32.561 -16.285 -26.700  0.00  0.00    +0.115 C 
ATOM     23  C   UNL     1      33.218 -14.122 -25.722  0.00  0.00    +0.115 C 
ENDBRANCH  18  21
ENDBRANCH   3  18
TORSDOF 3
ENDMDL
MODEL 4
REMARK VINA RESULT:      -8.4      1.668      2.351
REMARK  Name = 5732
REMARK  3 active torsions:
REMARK  status: ('A' for Active; 'I' for Inactive)
REMARK    1  A    between atoms: C_3  and  C_18
REMARK    2  A    between atoms: C_4  and  C_11
REMARK    3  A    between atoms: C_18  and  C_21
REMARK                            x       y       z     vdW  Elec       q    Type
REMARK                         _______ _______ _______ _____ _____    ______ ____
ROOT
ATOM      1  N   UNL     1      32.765 -12.778 -22.109  0.00  0.00    -0.256 N 
ATOM      2  N   UNL     1      32.385 -14.180 -20.408  0.00  0.00    -0.389 NA
ATOM      3  C   UNL     1      33.413 -13.947 -22.416  0.00  0.00    +0.141 C 
ATOM      4  C   UNL     1      33.165 -14.790 -21.358  0.00  0.00    +0.129 C 
ATOM      5  C   UNL     1      32.152 -12.971 -20.874  0.00  0.00    +0.187 C 
ATOM      6  C   UNL     1      32.687 -11.593 -22.833  0.00  0.00    +0.063 C 
ATOM      7  C   UNL     1      31.985 -10.558 -22.334  0.00  0.00    -0.007 C 
ATOM      8  C   UNL     1      31.409 -11.877 -20.344  0.00  0.00    +0.048 C 
ATOM      9  C   UNL     1      31.328 -10.725 -21.038  0.00  0.00    +0.001 C 
ATOM     10  C   UNL     1      31.836  -9.241 -23.027  0.00  0.00    +0.032 C 
ENDROOT
BRANCH   4  11
ATOM     11  C   UNL     1      33.648 -16.131 -21.241  0.00  0.00    +0.027 C 
ATOM     12  C   UNL     1      35.021 -16.389 -21.285  0.00  0.00    +0.002 C 
ATOM     13  C   UNL     1      32.751 -17.191 -21.082  0.00  0.00    +0.002 C 
ATOM     14  C   UNL     1      34.594 -18.751 -21.012  0.00  0.00    -0.022 C 
ATOM     15  C   UNL     1      35.493 -17.697 -21.171  0.00  0.00    -0.004 C 
ATOM     16  C   UNL     1      33.223 -18.498 -20.967  0.00  0.00    -0.004 C 
ATOM     17  C   UNL     1      35.099 -20.149 -20.889  0.00  0.00    +0.031 C 
ENDBRANCH   4  11
BRANCH   3  18
ATOM     18  C   UNL     1      34.188 -14.143 -23.659  0.00  0.00    +0.113 C 
BRANCH  18  21
ATOM     19  O   UNL     1      32.411 -13.871 -25.253  0.00  0.00    -0.275 OA
ATOM     20  N   UNL     1      33.570 -15.875 -25.356  0.00  0.00    -0.276 N 
ATOM     21  C   UNL     1      33.305 -14.606 -24.826  0.00  0.00    +0.228 C 
ATOM     22  C   UNL     1      32.804 -16.436 -26.468  0.00  0.00    +0.115 C 
ATOM     23  C   UNL     1      34.630 -16.733 -24.841  0.00  0.00    +0.115 C 
ENDBRANCH  18  21
ENDBRANCH   3  18
TORSDOF 3
ENDMDL
MODEL 5
REMARK VINA RESULT:      -8.4      3.819      6.487
REMARK  Name = 5732
REMARK  3 active torsions:
REMARK  status: ('A' for Active; 'I' for Inactive)
REMARK    1  A    between atoms: C_3  and  C_18
REMARK    2  A    between atoms: C_4  and  C_11
REMARK    3  A    between atoms: C_18  and  C_21
REMARK                            x       y       z     vdW  Elec       q    Type
REMARK                         _______ _______ _______ _____ _____    ______ ____
ROOT
ATOM      1  N   UNL     1      33.070 -10.204 -23.207  0.00  0.00    -0.256 N 
ATOM      2  N   UNL     1      34.612 -11.189 -24.492  0.00  0.00    -0.389 NA
ATOM      3  C   UNL     1      32.776 -11.543 -23.209  0.00  0.00    +0.141 C 
ATOM      4  C   UNL     1      33.736 -12.125 -24.004  0.00  0.00    +0.129 C 
ATOM      5  C   UNL     1      34.199 -10.038 -24.004  0.00  0.00    +0.187 C 
ATOM      6  C   UNL     1      32.419  -9.156 -22.563  0.00  0.00    +0.063 C 
ATOM      7  C   UNL     1      32.887  -7.902 -22.701  0.00  0.00    -0.007 C 
ATOM      8  C   UNL     1      34.696  -8.711 -24.151  0.00  0.00    +0.048 C 
ATOM      9  C   UNL     1      34.073  -7.691 -23.532  0.00  0.00    +0.001 C 
ATOM     10  C   UNL     1      32.267  -6.705 -22.054  0.00  0.00    +0.032 C 
ENDROOT
BRANCH   4  11
ATOM     11  C   UNL     1      33.827 -13.522 -24.299  0.00  0.00    +0.027 C 
ATOM     12  C   UNL     1      33.308 -14.022 -25.496  0.00  0.00    +0.002 C 
ATOM     13  C   UNL     1      34.435 -14.394 -23.392  0.00  0.00    +0.002 C 
ATOM     14  C   UNL     1      34.005 -16.250 -24.876  0.00  0.00    -0.022 C 
ATOM     15  C   UNL     1      33.397 -15.384 -25.784  0.00  0.00    -0.004 C 
ATOM     16  C   UNL     1      34.524 -15.755 -23.680  0.00  0.00    -0.004 C 
ATOM     17  C   UNL     1      34.100 -17.706 -25.184  0.00  0.00    +0.031 C 
ENDBRANCH   4  11
BRANCH   3  18
ATOM     18  C   UNL     1      31.636 -12.125 -22.472  0.00  0.00    +0.113 C 
BRANCH  18  21
ATOM     19  O   UNL     1      32.699 -13.297 -20.662  0.00  0.00    -0.275 OA
ATOM     20  N   UNL     1      31.394 -11.477 -20.066  0.00  0.00    -0.276 N 
ATOM     21  C   UNL     1      31.964 -12.362 -20.990  0.00  0.00    +0.228 C 
ATOM     22  C   UNL     1      31.625 -11.590 -18.627  0.00  0.00    +0.115 C 
ATOM     23  C   UNL     1      30.528 -10.375 -20.469  0.00  0.00    +0.115 C 
ENDBRANCH  18  21
ENDBRANCH   3  18
TORSDOF 3
ENDMDL
MODEL 6
REMARK VINA RESULT:      -8.3      7.238     10.543
REMARK  Name = 5732
REMARK  3 active torsions:
REMARK  status: ('A' for Active; 'I' for Inactive)
REMARK    1  A    between atoms: C_3  and  C_18
REMARK    2  A    between atoms: C_4  and  C_11
REMARK    3  A    between atoms: C_18  and  C_21
REMARK                            x       y       z     vdW  Elec       q    Type
REMARK                         _______ _______ _______ _____ _____    ______ ____
ROOT
ATOM      1  N   UNL     1      32.502 -23.576 -15.344  0.00  0.00    -0.256 N 
ATOM      2  N   UNL     1      33.491 -24.157 -13.424  0.00  0.00    -0.389 NA
ATOM      3  C   UNL     1      33.808 -23.859 -15.650  0.00  0.00    +0.141 C 
ATOM      4  C   UNL     1      34.393 -24.213 -14.457  0.00  0.00    +0.129 C 
ATOM      5  C   UNL     1      32.358 -23.773 -13.974  0.00  0.00    +0.187 C 
ATOM      6  C   UNL     1      31.466 -23.167 -16.178  0.00  0.00    +0.063 C 
ATOM      7  C   UNL     1      30.245 -22.943 -15.656  0.00  0.00    -0.007 C 
ATOM      8  C   UNL     1      31.067 -23.536 -13.419  0.00  0.00    +0.048 C 
ATOM      9  C   UNL     1      30.058 -23.140 -14.219  0.00  0.00    +0.001 C 
ATOM     10  C   UNL     1      29.064 -22.503 -16.460  0.00  0.00    +0.032 C 
ENDROOT
BRANCH   4  11
ATOM     11  C   UNL     1      35.762 -24.591 -14.289  0.00  0.00    +0.027 C 
ATOM     12  C   UNL     1      36.285 -25.670 -15.008  0.00  0.00    +0.002 C 
ATOM     13  C   UNL     1      36.584 -23.884 -13.408  0.00  0.00    +0.002 C 
ATOM     14  C   UNL     1      38.438 -25.331 -13.965  0.00  0.00    -0.022 C 
ATOM     15  C   UNL     1      37.621 -26.039 -14.846  0.00  0.00    -0.004 C 
ATOM     16  C   UNL     1      37.919 -24.253 -13.246  0.00  0.00    -0.004 C 
ATOM     17  C   UNL     1      39.865 -25.725 -13.791  0.00  0.00    +0.031 C 
ENDBRANCH   4  11
BRANCH   3  18
ATOM     18  C   UNL     1      34.360 -23.768 -17.018  0.00  0.00    +0.113 C 
BRANCH  18  21
ATOM     19  O   UNL     1      35.994 -22.221 -16.173  0.00  0.00    -0.275 OA
ATOM     20  N   UNL     1      35.530 -22.071 -18.438  0.00  0.00    -0.276 N 
ATOM     21  C   UNL     1      35.369 -22.619 -17.160  0.00  0.00    +0.228 C 
ATOM     22  C   UNL     1      36.457 -20.975 -18.711  0.00  0.00    +0.115 C 
ATOM     23  C   UNL     1      34.784 -22.552 -19.595  0.00  0.00    +0.115 C 
ENDBRANCH  18  21
ENDBRANCH   3  18
TORSDOF 3
ENDMDL
MODEL 7
REMARK VINA RESULT:      -8.2      2.201      3.591
REMARK  Name = 5732
REMARK  3 active torsions:
REMARK  status: ('A' for Active; 'I' for Inactive)
REMARK    1  A    between atoms: C_3  and  C_18
REMARK    2  A    between atoms: C_4  and  C_11
REMARK    3  A    between atoms: C_18  and  C_21
REMARK                            x       y       z     vdW  Elec       q    Type
REMARK                         _______ _______ _______ _____ _____    ______ ____
ROOT
ATOM      1  N   UNL     1      32.624 -12.350 -22.299  0.00  0.00    -0.256 N 
ATOM      2  N   UNL     1      32.211 -13.890 -20.731  0.00  0.00    -0.389 NA
ATOM      3  C   UNL     1      33.344 -13.464 -22.648  0.00  0.00    +0.141 C 
ATOM      4  C   UNL     1      33.074 -14.393 -21.671  0.00  0.00    +0.129 C 
ATOM      5  C   UNL     1      31.949 -12.660 -21.122  0.00  0.00    +0.187 C 
ATOM      6  C   UNL     1      32.533 -11.118 -22.940  0.00  0.00    +0.063 C 
ATOM      7  C   UNL     1      31.755 -10.154 -22.413  0.00  0.00    -0.007 C 
ATOM      8  C   UNL     1      31.125 -11.641 -20.563  0.00  0.00    +0.048 C 
ATOM      9  C   UNL     1      31.030 -10.446 -21.176  0.00  0.00    +0.001 C 
ATOM     10  C   UNL     1      31.585  -8.798 -23.018  0.00  0.00    +0.032 C 
ENDROOT
BRANCH   4  11
ATOM     11  C   UNL     1      33.612 -15.717 -21.620  0.00  0.00    +0.027 C 
ATOM     12  C   UNL     1      32.915 -16.734 -20.964  0.00  0.00    +0.002 C 
ATOM     13  C   UNL     1      34.839 -16.000 -22.228  0.00  0.00    +0.002 C 
ATOM     14  C   UNL     1      34.664 -18.304 -21.522  0.00  0.00    -0.022 C 
ATOM     15  C   UNL     1      33.440 -18.026 -20.914  0.00  0.00    -0.004 C 
ATOM     16  C   UNL     1      35.363 -17.291 -22.178  0.00  0.00    -0.004 C 
ATOM     17  C   UNL     1      35.225 -19.685 -21.469  0.00  0.00    +0.031 C 
ENDBRANCH   4  11
BRANCH   3  18
ATOM     18  C   UNL     1      34.200 -13.533 -23.851  0.00  0.00    +0.113 C 
BRANCH  18  21
ATOM     19  O   UNL     1      32.851 -15.051 -25.136  0.00  0.00    -0.275 OA
ATOM     20  N   UNL     1      33.371 -13.038 -26.160  0.00  0.00    -0.276 N 
ATOM     21  C   UNL     1      33.411 -13.952 -25.100  0.00  0.00    +0.228 C 
ATOM     22  C   UNL     1      32.656 -13.313 -27.405  0.00  0.00    +0.115 C 
ATOM     23  C   UNL     1      34.037 -11.743 -26.103  0.00  0.00    +0.115 C 
ENDBRANCH  18  21
ENDBRANCH   3  18
TORSDOF 3
ENDMDL
MODEL 8
REMARK VINA RESULT:      -8.2      7.272     11.399
REMARK  Name = 5732
REMARK  3 active torsions:
REMARK  status: ('A' for Active; 'I' for Inactive)
REMARK    1  A    between atoms: C_3  and  C_18
REMARK    2  A    between atoms: C_4  and  C_11
REMARK    3  A    between atoms: C_18  and  C_21
REMARK                            x       y       z     vdW  Elec       q    Type
REMARK                         _______ _______ _______ _____ _____    ______ ____
ROOT
ATOM      1  N   UNL     1      35.619 -24.353 -14.143  0.00  0.00    -0.256 N 
ATOM      2  N   UNL     1      33.796 -23.926 -12.920  0.00  0.00    -0.389 NA
ATOM      3  C   UNL     1      34.612 -24.071 -15.031  0.00  0.00    +0.141 C 
ATOM      4  C   UNL     1      33.506 -23.813 -14.256  0.00  0.00    +0.129 C 
ATOM      5  C   UNL     1      35.072 -24.251 -12.868  0.00  0.00    +0.187 C 
ATOM      6  C   UNL     1      36.948 -24.684 -14.389  0.00  0.00    +0.063 C 
ATOM      7  C   UNL     1      37.772 -24.924 -13.352  0.00  0.00    -0.007 C 
ATOM      8  C   UNL     1      35.943 -24.504 -11.769  0.00  0.00    +0.048 C 
ATOM      9  C   UNL     1      37.231 -24.825 -11.997  0.00  0.00    +0.001 C 
ATOM     10  C   UNL     1      39.215 -25.286 -13.502  0.00  0.00    +0.032 C 
ENDROOT
BRANCH   4  11
ATOM     11  C   UNL     1      32.210 -23.471 -14.756  0.00  0.00    +0.027 C 
ATOM     12  C   UNL     1      31.108 -23.452 -13.896  0.00  0.00    +0.002 C 
ATOM     13  C   UNL     1      32.039 -23.153 -16.106  0.00  0.00    +0.002 C 
ATOM     14  C   UNL     1      29.678 -22.802 -15.732  0.00  0.00    -0.022 C 
ATOM     15  C   UNL     1      29.844 -23.119 -14.384  0.00  0.00    -0.004 C 
ATOM     16  C   UNL     1      30.776 -22.819 -16.593  0.00  0.00    -0.004 C 
ATOM     17  C   UNL     1      28.327 -22.445 -16.253  0.00  0.00    +0.031 C 
ENDBRANCH   4  11
BRANCH   3  18
ATOM     18  C   UNL     1      34.797 -24.076 -16.497  0.00  0.00    +0.113 C 
BRANCH  18  21
ATOM     19  O   UNL     1      36.298 -22.213 -16.267  0.00  0.00    -0.275 OA
ATOM     20  N   UNL     1      35.179 -22.372 -18.290  0.00  0.00    -0.276 N 
ATOM     21  C   UNL     1      35.497 -22.804 -16.996  0.00  0.00    +0.228 C 
ATOM     22  C   UNL     1      35.774 -21.177 -18.886  0.00  0.00    +0.115 C 
ATOM     23  C   UNL     1      34.231 -23.081 -19.141  0.00  0.00    +0.115 C 
ENDBRANCH  18  21
ENDBRANCH   3  18
TORSDOF 3
ENDMDL
MODEL 9
REMARK VINA RESULT:      -8.2      7.209     11.204
REMARK  Name = 5732
REMARK  3 active torsions:
REMARK  status: ('A' for Active; 'I' for Inactive)
REMARK    1  A    between atoms: C_3  and  C_18
REMARK    2  A    between atoms: C_4  and  C_11
REMARK    3  A    between atoms: C_18  and  C_21
REMARK                            x       y       z     vdW  Elec       q    Type
REMARK                         _______ _______ _______ _____ _____    ______ ____
ROOT
ATOM      1  N   UNL     1      36.579 -24.371 -15.022  0.00  0.00    -0.256 N 
ATOM      2  N   UNL     1      34.735 -25.475 -14.403  0.00  0.00    -0.389 NA
ATOM      3  C   UNL     1      35.519 -23.545 -15.300  0.00  0.00    +0.141 C 
ATOM      4  C   UNL     1      34.401 -24.245 -14.910  0.00  0.00    +0.129 C 
ATOM      5  C   UNL     1      36.049 -25.536 -14.476  0.00  0.00    +0.187 C 
ATOM      6  C   UNL     1      37.940 -24.160 -15.218  0.00  0.00    +0.063 C 
ATOM      7  C   UNL     1      38.816 -25.121 -14.867  0.00  0.00    -0.007 C 
ATOM      8  C   UNL     1      36.974 -26.554 -14.104  0.00  0.00    +0.048 C 
ATOM      9  C   UNL     1      38.293 -26.358 -14.289  0.00  0.00    +0.001 C 
ATOM     10  C   UNL     1      40.297 -24.998 -15.033  0.00  0.00    +0.032 C 
ENDROOT
BRANCH   4  11
ATOM     11  C   UNL     1      33.055 -23.773 -15.015  0.00  0.00    +0.027 C 
ATOM     12  C   UNL     1      32.487 -23.543 -16.271  0.00  0.00    +0.002 C 
ATOM     13  C   UNL     1      32.300 -23.540 -13.862  0.00  0.00    +0.002 C 
ATOM     14  C   UNL     1      30.425 -22.852 -15.220  0.00  0.00    -0.022 C 
ATOM     15  C   UNL     1      31.174 -23.083 -16.373  0.00  0.00    -0.004 C 
ATOM     16  C   UNL     1      30.988 -23.081 -13.965  0.00  0.00    -0.004 C 
ATOM     17  C   UNL     1      29.021 -22.360 -15.330  0.00  0.00    +0.031 C 
ENDBRANCH   4  11
BRANCH   3  18
ATOM     18  C   UNL     1      35.672 -22.202 -15.894  0.00  0.00    +0.113 C 
BRANCH  18  21
ATOM     19  O   UNL     1      34.859 -22.960 -18.025  0.00  0.00    -0.275 OA
ATOM     20  N   UNL     1      36.610 -21.444 -18.087  0.00  0.00    -0.276 N 
ATOM     21  C   UNL     1      35.668 -22.244 -17.430  0.00  0.00    +0.228 C 
ATOM     22  C   UNL     1      36.713 -21.391 -19.545  0.00  0.00    +0.115 C 
ATOM     23  C   UNL     1      37.560 -20.602 -17.370  0.00  0.00    +0.115 C 
ENDBRANCH  18  21
ENDBRANCH   3  18
TORSDOF 3
ENDMDL
