MODEL 1
REMARK VINA RESULT:     -10.5      0.000      0.000
REMARK  Name = 11483754
REMARK  2 active torsions:
REMARK  status: ('A' for Active; 'I' for Inactive)
REMARK    1  A    between atoms: C_17  and  O_24
REMARK    2  A    between atoms: C_18  and  C_21
REMARK                            x       y       z     vdW  Elec       q    Type
REMARK                         _______ _______ _______ _____ _____    ______ ____
ROOT
ATOM      1  C   UNL     1      35.415 -19.727 -21.498  0.00  0.00    +0.000 C 
ATOM      2  C   UNL     1      35.457 -20.326 -20.096  0.00  0.00    +0.004 C 
ATOM      3  C   UNL     1      34.150 -18.866 -21.711  0.00  0.00    +0.000 C 
ATOM      4  C   UNL     1      34.238 -21.290 -19.949  0.00  0.00    +0.022 C 
ATOM      5  C   UNL     1      32.951 -19.819 -21.669  0.00  0.00    +0.000 C 
ATOM      6  C   UNL     1      32.901 -20.596 -20.334  0.00  0.00    +0.004 C 
ATOM      7  C   UNL     1      36.558 -18.864 -22.025  0.00  0.00    +0.000 C 
ATOM      8  C   UNL     1      36.743 -21.107 -19.821  0.00  0.00    +0.005 C 
ATOM      9  C   UNL     1      34.517 -18.248 -23.036  0.00  0.00    +0.000 C 
ATOM     10  C   UNL     1      34.247 -21.979 -18.588  0.00  0.00    -0.023 C 
ATOM     11  C   UNL     1      33.953 -17.707 -20.708  0.00  0.00    +0.000 C 
ATOM     12  C   UNL     1      36.766 -21.569 -18.367  0.00  0.00    +0.026 C 
ATOM     13  C   UNL     1      35.853 -18.204 -23.181  0.00  0.00    +0.000 C 
ATOM     14  C   UNL     1      35.457 -22.141 -17.877  0.00  0.00    -0.026 C 
ATOM     15  C   UNL     1      33.078 -22.545 -18.049  0.00  0.00    +0.032 C 
ATOM     16  C   UNL     1      35.458 -22.812 -16.641  0.00  0.00    +0.003 C 
ATOM     17  C   UNL     1      33.094 -23.215 -16.824  0.00  0.00    +0.143 C 
ATOM     18  C   UNL     1      34.284 -23.345 -16.117  0.00  0.00    +0.087 C 
ENDROOT
BRANCH  18  21
ATOM     19  O   UNL     1      35.020 -25.039 -14.623  0.00  0.00    -0.270 OA
ATOM     20  N   UNL     1      33.513 -23.542 -13.824  0.00  0.00    -0.325 N 
ATOM     21  C   UNL     1      34.324 -24.037 -14.837  0.00  0.00    +0.246 C 
ATOM     22  H   UNL     1      33.507 -23.978 -12.941  0.00  0.00    +0.145 HD
ATOM     23  H   UNL     1      32.944 -22.756 -13.989  0.00  0.00    +0.145 HD
ENDBRANCH  18  21
BRANCH  17  24
ATOM     24  O   UNL     1      31.932 -23.738 -16.341  0.00  0.00    -0.471 OA
ATOM     25  C   UNL     1      30.772 -22.913 -16.412  0.00  0.00    +0.252 C 
ENDBRANCH  17  24
TORSDOF 2
ENDMDL
MODEL 2
REMARK VINA RESULT:      -9.2      4.501      7.280
REMARK  Name = 11483754
REMARK  2 active torsions:
REMARK  status: ('A' for Active; 'I' for Inactive)
REMARK    1  A    between atoms: C_17  and  O_24
REMARK    2  A    between atoms: C_18  and  C_21
REMARK                            x       y       z     vdW  Elec       q    Type
REMARK                         _______ _______ _______ _____ _____    ______ ____
ROOT
ATOM      1  C   UNL     1      37.538 -24.198 -14.543  0.00  0.00    +0.000 C 
ATOM      2  C   UNL     1      36.179 -24.118 -15.230  0.00  0.00    +0.004 C 
ATOM      3  C   UNL     1      37.593 -25.358 -13.523  0.00  0.00    +0.000 C 
ATOM      4  C   UNL     1      35.108 -23.799 -14.141  0.00  0.00    +0.022 C 
ATOM      5  C   UNL     1      36.616 -25.006 -12.396  0.00  0.00    +0.000 C 
ATOM      6  C   UNL     1      35.188 -24.786 -12.942  0.00  0.00    +0.004 C 
ATOM      7  C   UNL     1      38.827 -24.336 -15.349  0.00  0.00    +0.000 C 
ATOM      8  C   UNL     1      36.122 -23.040 -16.313  0.00  0.00    +0.005 C 
ATOM      9  C   UNL     1      39.068 -25.322 -13.219  0.00  0.00    +0.000 C 
ATOM     10  C   UNL     1      33.724 -23.641 -14.764  0.00  0.00    -0.023 C 
ATOM     11  C   UNL     1      37.279 -26.761 -14.089  0.00  0.00    +0.000 C 
ATOM     12  C   UNL     1      34.779 -23.104 -17.036  0.00  0.00    +0.026 C 
ATOM     13  C   UNL     1      39.750 -24.802 -14.254  0.00  0.00    +0.000 C 
ATOM     14  C   UNL     1      33.590 -23.268 -16.121  0.00  0.00    -0.026 C 
ATOM     15  C   UNL     1      32.557 -23.774 -13.992  0.00  0.00    +0.032 C 
ATOM     16  C   UNL     1      32.309 -23.089 -16.673  0.00  0.00    +0.003 C 
ATOM     17  C   UNL     1      31.291 -23.585 -14.552  0.00  0.00    +0.143 C 
ATOM     18  C   UNL     1      31.167 -23.247 -15.894  0.00  0.00    +0.087 C 
ENDROOT
BRANCH  18  21
ATOM     19  O   UNL     1      29.526 -22.008 -17.084  0.00  0.00    -0.270 OA
ATOM     20  N   UNL     1      28.942 -24.087 -16.383  0.00  0.00    -0.325 N 
ATOM     21  C   UNL     1      29.858 -23.049 -16.499  0.00  0.00    +0.246 C 
ATOM     22  H   UNL     1      28.044 -23.997 -16.777  0.00  0.00    +0.145 HD
ATOM     23  H   UNL     1      29.191 -24.911 -15.907  0.00  0.00    +0.145 HD
ENDBRANCH  18  21
BRANCH  17  24
ATOM     24  O   UNL     1      30.190 -23.735 -13.763  0.00  0.00    -0.471 OA
ATOM     25  C   UNL     1      30.197 -24.821 -12.839  0.00  0.00    +0.252 C 
ENDBRANCH  17  24
TORSDOF 2
ENDMDL
MODEL 3
REMARK VINA RESULT:      -9.1      2.399      4.530
REMARK  Name = 11483754
REMARK  2 active torsions:
REMARK  status: ('A' for Active; 'I' for Inactive)
REMARK    1  A    between atoms: C_17  and  O_24
REMARK    2  A    between atoms: C_18  and  C_21
REMARK                            x       y       z     vdW  Elec       q    Type
REMARK                         _______ _______ _______ _____ _____    ______ ____
ROOT
ATOM      1  C   UNL     1      34.213 -21.236 -19.032  0.00  0.00    +0.000 C 
ATOM      2  C   UNL     1      34.474 -22.384 -18.063  0.00  0.00    +0.004 C 
ATOM      3  C   UNL     1      35.373 -21.065 -20.038  0.00  0.00    +0.000 C 
ATOM      4  C   UNL     1      35.739 -22.024 -17.221  0.00  0.00    +0.022 C 
ATOM      5  C   UNL     1      36.596 -20.613 -19.234  0.00  0.00    +0.000 C 
ATOM      6  C   UNL     1      36.943 -21.629 -18.123  0.00  0.00    +0.004 C 
ATOM      7  C   UNL     1      32.952 -21.196 -19.891  0.00  0.00    +0.000 C 
ATOM      8  C   UNL     1      33.303 -22.640 -17.113  0.00  0.00    +0.005 C 
ATOM      9  C   UNL     1      34.725 -20.067 -20.963  0.00  0.00    +0.000 C 
ATOM     10  C   UNL     1      36.029 -23.101 -16.181  0.00  0.00    -0.023 C 
ATOM     11  C   UNL     1      35.715 -22.313 -20.883  0.00  0.00    +0.000 C 
ATOM     12  C   UNL     1      33.588 -23.875 -16.263  0.00  0.00    +0.026 C 
ATOM     13  C   UNL     1      33.387 -20.179 -20.915  0.00  0.00    +0.000 C 
ATOM     14  C   UNL     1      34.990 -23.935 -15.708  0.00  0.00    -0.026 C 
ATOM     15  C   UNL     1      37.304 -23.235 -15.605  0.00  0.00    +0.032 C 
ATOM     16  C   UNL     1      35.263 -24.899 -14.721  0.00  0.00    +0.003 C 
ATOM     17  C   UNL     1      37.559 -24.191 -14.620  0.00  0.00    +0.143 C 
ATOM     18  C   UNL     1      36.539 -25.028 -14.181  0.00  0.00    +0.087 C 
ENDROOT
BRANCH  18  21
ATOM     19  O   UNL     1      36.655 -25.819 -11.943  0.00  0.00    -0.270 OA
ATOM     20  N   UNL     1      37.200 -27.287 -13.587  0.00  0.00    -0.325 N 
ATOM     21  C   UNL     1      36.782 -26.034 -13.158  0.00  0.00    +0.246 C 
ATOM     22  H   UNL     1      37.378 -27.998 -12.931  0.00  0.00    +0.145 HD
ATOM     23  H   UNL     1      37.320 -27.462 -14.548  0.00  0.00    +0.145 HD
ENDBRANCH  18  21
BRANCH  17  24
ATOM     24  O   UNL     1      38.815 -24.287 -14.099  0.00  0.00    -0.471 OA
ATOM     25  C   UNL     1      39.772 -25.030 -14.850  0.00  0.00    +0.252 C 
ENDBRANCH  17  24
TORSDOF 2
ENDMDL
MODEL 4
REMARK VINA RESULT:      -9.0      7.005     10.354
REMARK  Name = 11483754
REMARK  2 active torsions:
REMARK  status: ('A' for Active; 'I' for Inactive)
REMARK    1  A    between atoms: C_17  and  O_24
REMARK    2  A    between atoms: C_18  and  C_21
REMARK                            x       y       z     vdW  Elec       q    Type
REMARK                         _______ _______ _______ _____ _____    ______ ____
ROOT
ATOM      1  C   UNL     1      33.892 -17.936 -21.908  0.00  0.00    +0.000 C 
ATOM      2  C   UNL     1      33.852 -16.411 -21.894  0.00  0.00    +0.004 C 
ATOM      3  C   UNL     1      35.102 -18.466 -22.710  0.00  0.00    +0.000 C 
ATOM      4  C   UNL     1      33.657 -15.921 -23.362  0.00  0.00    +0.022 C 
ATOM      5  C   UNL     1      34.871 -18.076 -24.174  0.00  0.00    +0.000 C 
ATOM      6  C   UNL     1      34.703 -16.548 -24.327  0.00  0.00    +0.004 C 
ATOM      7  C   UNL     1      33.909 -18.740 -20.612  0.00  0.00    +0.000 C 
ATOM      8  C   UNL     1      32.720 -15.853 -21.030  0.00  0.00    +0.005 C 
ATOM      9  C   UNL     1      34.997 -19.923 -22.339  0.00  0.00    +0.000 C 
ATOM     10  C   UNL     1      33.545 -14.400 -23.422  0.00  0.00    -0.023 C 
ATOM     11  C   UNL     1      36.487 -17.973 -22.234  0.00  0.00    +0.000 C 
ATOM     12  C   UNL     1      32.821 -14.331 -20.966  0.00  0.00    +0.026 C 
ATOM     13  C   UNL     1      34.381 -20.064 -21.153  0.00  0.00    +0.000 C 
ATOM     14  C   UNL     1      33.105 -13.672 -22.293  0.00  0.00    -0.026 C 
ATOM     15  C   UNL     1      33.789 -13.697 -24.614  0.00  0.00    +0.032 C 
ATOM     16  C   UNL     1      32.970 -12.275 -22.372  0.00  0.00    +0.003 C 
ATOM     17  C   UNL     1      33.643 -12.309 -24.681  0.00  0.00    +0.143 C 
ATOM     18  C   UNL     1      33.238 -11.597 -23.559  0.00  0.00    +0.087 C 
ENDROOT
BRANCH  18  21
ATOM     19  O   UNL     1      32.019  -9.569 -23.345  0.00  0.00    -0.270 OA
ATOM     20  N   UNL     1      34.191  -9.405 -23.983  0.00  0.00    -0.325 N 
ATOM     21  C   UNL     1      33.082 -10.151 -23.604  0.00  0.00    +0.246 C 
ATOM     22  H   UNL     1      34.132  -8.424 -24.028  0.00  0.00    +0.145 HD
ATOM     23  H   UNL     1      35.035  -9.859 -24.206  0.00  0.00    +0.145 HD
ENDBRANCH  18  21
BRANCH  17  24
ATOM     24  O   UNL     1      33.899 -11.673 -25.859  0.00  0.00    -0.471 OA
ATOM     25  C   UNL     1      33.737 -12.433 -27.054  0.00  0.00    +0.252 C 
ENDBRANCH  17  24
TORSDOF 2
ENDMDL
MODEL 5
REMARK VINA RESULT:      -8.6      8.388     11.386
REMARK  Name = 11483754
REMARK  2 active torsions:
REMARK  status: ('A' for Active; 'I' for Inactive)
REMARK    1  A    between atoms: C_17  and  O_24
REMARK    2  A    between atoms: C_18  and  C_21
REMARK                            x       y       z     vdW  Elec       q    Type
REMARK                         _______ _______ _______ _____ _____    ______ ____
ROOT
ATOM      1  C   UNL     1      32.443  -8.229 -23.344  0.00  0.00    +0.000 C 
ATOM      2  C   UNL     1      33.110  -9.597 -23.448  0.00  0.00    +0.004 C 
ATOM      3  C   UNL     1      32.218  -7.817 -21.872  0.00  0.00    +0.000 C 
ATOM      4  C   UNL     1      32.137 -10.654 -22.837  0.00  0.00    +0.022 C 
ATOM      5  C   UNL     1      31.186  -8.788 -21.290  0.00  0.00    +0.000 C 
ATOM      6  C   UNL     1      31.665 -10.252 -21.411  0.00  0.00    +0.004 C 
ATOM      7  C   UNL     1      33.060  -6.996 -23.998  0.00  0.00    +0.000 C 
ATOM      8  C   UNL     1      33.433  -9.995 -24.888  0.00  0.00    +0.005 C 
ATOM      9  C   UNL     1      31.796  -6.388 -22.101  0.00  0.00    +0.000 C 
ATOM     10  C   UNL     1      32.711 -12.062 -22.961  0.00  0.00    -0.023 C 
ATOM     11  C   UNL     1      33.484  -7.781 -20.986  0.00  0.00    +0.000 C 
ATOM     12  C   UNL     1      34.206 -11.311 -24.901  0.00  0.00    +0.026 C 
ATOM     13  C   UNL     1      32.307  -5.924 -23.254  0.00  0.00    +0.000 C 
ATOM     14  C   UNL     1      33.653 -12.363 -23.971  0.00  0.00    -0.026 C 
ATOM     15  C   UNL     1      32.257 -13.110 -22.140  0.00  0.00    +0.032 C 
ATOM     16  C   UNL     1      34.145 -13.674 -24.100  0.00  0.00    +0.003 C 
ATOM     17  C   UNL     1      32.749 -14.409 -22.284  0.00  0.00    +0.143 C 
ATOM     18  C   UNL     1      33.697 -14.691 -23.261  0.00  0.00    +0.087 C 
ENDROOT
BRANCH  18  21
ATOM     19  O   UNL     1      34.115 -16.691 -24.473  0.00  0.00    -0.270 OA
ATOM     20  N   UNL     1      34.866 -16.605 -22.332  0.00  0.00    -0.325 N 
ATOM     21  C   UNL     1      34.226 -16.036 -23.426  0.00  0.00    +0.246 C 
ATOM     22  H   UNL     1      35.239 -17.514 -22.398  0.00  0.00    +0.145 HD
ATOM     23  H   UNL     1      34.945 -16.099 -21.492  0.00  0.00    +0.145 HD
ENDBRANCH  18  21
BRANCH  17  24
ATOM     24  O   UNL     1      32.284 -15.388 -21.458  0.00  0.00    -0.471 OA
ATOM     25  C   UNL     1      32.477 -15.199 -20.058  0.00  0.00    +0.252 C 
ENDBRANCH  17  24
TORSDOF 2
ENDMDL
MODEL 6
REMARK VINA RESULT:      -8.4      9.000     12.006
REMARK  Name = 11483754
REMARK  2 active torsions:
REMARK  status: ('A' for Active; 'I' for Inactive)
REMARK    1  A    between atoms: C_17  and  O_24
REMARK    2  A    between atoms: C_18  and  C_21
REMARK                            x       y       z     vdW  Elec       q    Type
REMARK                         _______ _______ _______ _____ _____    ______ ____
ROOT
ATOM      1  C   UNL     1      32.026  -7.408 -21.972  0.00  0.00    +0.000 C 
ATOM      2  C   UNL     1      31.813  -8.892 -21.690  0.00  0.00    +0.004 C 
ATOM      3  C   UNL     1      31.779  -7.070 -23.460  0.00  0.00    +0.000 C 
ATOM      4  C   UNL     1      32.874  -9.693 -22.507  0.00  0.00    +0.022 C 
ATOM      5  C   UNL     1      32.877  -7.772 -24.264  0.00  0.00    +0.000 C 
ATOM      6  C   UNL     1      32.870  -9.297 -24.011  0.00  0.00    +0.004 C 
ATOM      7  C   UNL     1      31.258  -6.337 -21.204  0.00  0.00    +0.000 C 
ATOM      8  C   UNL     1      31.959  -9.243 -20.209  0.00  0.00    +0.005 C 
ATOM      9  C   UNL     1      31.824  -5.567 -23.361  0.00  0.00    +0.000 C 
ATOM     10  C   UNL     1      32.764 -11.189 -22.228  0.00  0.00    -0.023 C 
ATOM     11  C   UNL     1      30.385  -7.449 -24.008  0.00  0.00    +0.000 C 
ATOM     12  C   UNL     1      31.612 -10.713 -19.990  0.00  0.00    +0.026 C 
ATOM     13  C   UNL     1      31.486  -5.166 -22.124  0.00  0.00    +0.000 C 
ATOM     14  C   UNL     1      32.206 -11.649 -21.014  0.00  0.00    -0.026 C 
ATOM     15  C   UNL     1      33.290 -12.139 -23.121  0.00  0.00    +0.032 C 
ATOM     16  C   UNL     1      32.145 -13.030 -20.751  0.00  0.00    +0.003 C 
ATOM     17  C   UNL     1      33.230 -13.507 -22.844  0.00  0.00    +0.143 C 
ATOM     18  C   UNL     1      32.653 -13.953 -21.661  0.00  0.00    +0.087 C 
ENDROOT
BRANCH  18  21
ATOM     19  O   UNL     1      31.562 -15.921 -20.897  0.00  0.00    -0.270 OA
ATOM     20  N   UNL     1      33.721 -16.131 -21.567  0.00  0.00    -0.325 N 
ATOM     21  C   UNL     1      32.576 -15.373 -21.353  0.00  0.00    +0.246 C 
ATOM     22  H   UNL     1      33.716 -17.096 -21.372  0.00  0.00    +0.145 HD
ATOM     23  H   UNL     1      34.536 -15.702 -21.913  0.00  0.00    +0.145 HD
ENDBRANCH  18  21
BRANCH  17  24
ATOM     24  O   UNL     1      33.746 -14.388 -23.746  0.00  0.00    -0.471 OA
ATOM     25  C   UNL     1      33.085 -14.487 -25.006  0.00  0.00    +0.252 C 
ENDBRANCH  17  24
TORSDOF 2
ENDMDL
MODEL 7
REMARK VINA RESULT:      -8.2      7.280      9.965
REMARK  Name = 11483754
REMARK  2 active torsions:
REMARK  status: ('A' for Active; 'I' for Inactive)
REMARK    1  A    between atoms: C_17  and  O_24
REMARK    2  A    between atoms: C_18  and  C_21
REMARK                            x       y       z     vdW  Elec       q    Type
REMARK                         _______ _______ _______ _____ _____    ______ ____
ROOT
ATOM      1  C   UNL     1      33.752 -17.231 -22.779  0.00  0.00    +0.000 C 
ATOM      2  C   UNL     1      33.544 -15.955 -21.969  0.00  0.00    +0.004 C 
ATOM      3  C   UNL     1      34.664 -16.985 -24.003  0.00  0.00    +0.000 C 
ATOM      4  C   UNL     1      32.798 -14.926 -22.875  0.00  0.00    +0.022 C 
ATOM      5  C   UNL     1      33.899 -16.053 -24.948  0.00  0.00    +0.000 C 
ATOM      6  C   UNL     1      33.512 -14.734 -24.243  0.00  0.00    +0.004 C 
ATOM      7  C   UNL     1      34.309 -18.497 -22.135  0.00  0.00    +0.000 C 
ATOM      8  C   UNL     1      32.723 -16.185 -20.700  0.00  0.00    +0.005 C 
ATOM      9  C   UNL     1      34.864 -18.417 -24.427  0.00  0.00    +0.000 C 
ATOM     10  C   UNL     1      32.497 -13.641 -22.110  0.00  0.00    -0.023 C 
ATOM     11  C   UNL     1      36.061 -16.404 -23.689  0.00  0.00    +0.000 C 
ATOM     12  C   UNL     1      32.663 -14.896 -19.883  0.00  0.00    +0.026 C 
ATOM     13  C   UNL     1      34.716 -19.244 -23.378  0.00  0.00    +0.000 C 
ATOM     14  C   UNL     1      32.392 -13.657 -20.701  0.00  0.00    -0.026 C 
ATOM     15  C   UNL     1      32.231 -12.436 -22.784  0.00  0.00    +0.032 C 
ATOM     16  C   UNL     1      32.077 -12.473 -20.010  0.00  0.00    +0.003 C 
ATOM     17  C   UNL     1      31.911 -11.270 -22.086  0.00  0.00    +0.143 C 
ATOM     18  C   UNL     1      31.838 -11.287 -20.698  0.00  0.00    +0.087 C 
ENDROOT
BRANCH  18  21
ATOM     19  O   UNL     1      30.568 -10.011 -19.147  0.00  0.00    -0.270 OA
ATOM     20  N   UNL     1      32.293  -8.959 -20.181  0.00  0.00    -0.325 N 
ATOM     21  C   UNL     1      31.510 -10.082 -19.950  0.00  0.00    +0.246 C 
ATOM     22  H   UNL     1      32.108  -8.122 -19.697  0.00  0.00    +0.145 HD
ATOM     23  H   UNL     1      33.033  -9.001 -20.828  0.00  0.00    +0.145 HD
ENDBRANCH  18  21
BRANCH  17  24
ATOM     24  O   UNL     1      31.670 -10.125 -22.785  0.00  0.00    -0.471 OA
ATOM     25  C   UNL     1      32.704  -9.667 -23.653  0.00  0.00    +0.252 C 
ENDBRANCH  17  24
TORSDOF 2
ENDMDL
MODEL 8
REMARK VINA RESULT:      -8.2      9.677     13.029
REMARK  Name = 11483754
REMARK  2 active torsions:
REMARK  status: ('A' for Active; 'I' for Inactive)
REMARK    1  A    between atoms: C_17  and  O_24
REMARK    2  A    between atoms: C_18  and  C_21
REMARK                            x       y       z     vdW  Elec       q    Type
REMARK                         _______ _______ _______ _____ _____    ______ ____
ROOT
ATOM      1  C   UNL     1      32.385 -14.122 -21.474  0.00  0.00    +0.000 C 
ATOM      2  C   UNL     1      32.387 -12.615 -21.237  0.00  0.00    +0.004 C 
ATOM      3  C   UNL     1      33.681 -14.589 -22.176  0.00  0.00    +0.000 C 
ATOM      4  C   UNL     1      32.413 -11.910 -22.629  0.00  0.00    +0.022 C 
ATOM      5  C   UNL     1      33.668 -13.982 -23.582  0.00  0.00    +0.000 C 
ATOM      6  C   UNL     1      33.566 -12.442 -23.527  0.00  0.00    +0.004 C 
ATOM      7  C   UNL     1      32.199 -15.105 -20.321  0.00  0.00    +0.000 C 
ATOM      8  C   UNL     1      31.161 -12.134 -20.460  0.00  0.00    +0.005 C 
ATOM      9  C   UNL     1      33.485 -16.077 -22.044  0.00  0.00    +0.000 C 
ATOM     10  C   UNL     1      32.353 -10.393 -22.476  0.00  0.00    -0.023 C 
ATOM     11  C   UNL     1      34.998 -14.237 -21.449  0.00  0.00    +0.000 C 
ATOM     12  C   UNL     1      31.294 -10.644 -20.156  0.00  0.00    +0.026 C 
ATOM     13  C   UNL     1      32.705 -16.358 -20.986  0.00  0.00    +0.000 C 
ATOM     14  C   UNL     1      31.779  -9.815 -21.321  0.00  0.00    -0.026 C 
ATOM     15  C   UNL     1      32.780  -9.538 -23.506  0.00  0.00    +0.032 C 
ATOM     16  C   UNL     1      31.695  -8.416 -21.208  0.00  0.00    +0.003 C 
ATOM     17  C   UNL     1      32.683  -8.150 -23.384  0.00  0.00    +0.143 C 
ATOM     18  C   UNL     1      32.145  -7.588 -22.233  0.00  0.00    +0.087 C 
ENDROOT
BRANCH  18  21
ATOM     19  O   UNL     1      32.376  -5.536 -21.057  0.00  0.00    -0.270 OA
ATOM     20  N   UNL     1      31.502  -5.434 -23.149  0.00  0.00    -0.325 N 
ATOM     21  C   UNL     1      32.037  -6.144 -22.082  0.00  0.00    +0.246 C 
ATOM     22  H   UNL     1      31.409  -4.456 -23.093  0.00  0.00    +0.145 HD
ATOM     23  H   UNL     1      31.215  -5.910 -23.962  0.00  0.00    +0.145 HD
ENDBRANCH  18  21
BRANCH  17  24
ATOM     24  O   UNL     1      33.120  -7.364 -24.408  0.00  0.00    -0.471 OA
ATOM     25  C   UNL     1      34.515  -7.072 -24.451  0.00  0.00    +0.252 C 
ENDBRANCH  17  24
TORSDOF 2
ENDMDL
MODEL 9
REMARK VINA RESULT:      -7.9     13.805     16.991
REMARK  Name = 11483754
REMARK  2 active torsions:
REMARK  status: ('A' for Active; 'I' for Inactive)
REMARK    1  A    between atoms: C_17  and  O_24
REMARK    2  A    between atoms: C_18  and  C_21
REMARK                            x       y       z     vdW  Elec       q    Type
REMARK                         _______ _______ _______ _____ _____    ______ ____
ROOT
ATOM      1  C   UNL     1      32.620  -3.328 -27.277  0.00  0.00    +0.000 C 
ATOM      2  C   UNL     1      32.191  -4.464 -26.353  0.00  0.00    +0.004 C 
ATOM      3  C   UNL     1      33.425  -3.853 -28.488  0.00  0.00    +0.000 C 
ATOM      4  C   UNL     1      33.480  -5.125 -25.773  0.00  0.00    +0.022 C 
ATOM      5  C   UNL     1      34.739  -4.416 -27.938  0.00  0.00    +0.000 C 
ATOM      6  C   UNL     1      34.482  -5.525 -26.894  0.00  0.00    +0.004 C 
ATOM      7  C   UNL     1      31.599  -2.370 -27.882  0.00  0.00    +0.000 C 
ATOM      8  C   UNL     1      31.313  -3.989 -25.195  0.00  0.00    +0.005 C 
ATOM      9  C   UNL     1      33.479  -2.580 -29.291  0.00  0.00    +0.000 C 
ATOM     10  C   UNL     1      33.129  -6.235 -24.787  0.00  0.00    -0.023 C 
ATOM     11  C   UNL     1      32.708  -4.910 -29.358  0.00  0.00    +0.000 C 
ATOM     12  C   UNL     1      30.824  -5.190 -24.390  0.00  0.00    +0.026 C 
ATOM     13  C   UNL     1      32.438  -1.786 -28.988  0.00  0.00    +0.000 C 
ATOM     14  C   UNL     1      31.889  -6.223 -24.110  0.00  0.00    -0.026 C 
ATOM     15  C   UNL     1      34.056  -7.241 -24.461  0.00  0.00    +0.032 C 
ATOM     16  C   UNL     1      31.592  -7.231 -23.175  0.00  0.00    +0.003 C 
ATOM     17  C   UNL     1      33.752  -8.232 -23.524  0.00  0.00    +0.143 C 
ATOM     18  C   UNL     1      32.518  -8.230 -22.884  0.00  0.00    +0.087 C 
ENDROOT
BRANCH  18  21
ATOM     19  O   UNL     1      32.153  -9.051 -20.684  0.00  0.00    -0.270 OA
ATOM     20  N   UNL     1      31.892 -10.523 -22.393  0.00  0.00    -0.325 N 
ATOM     21  C   UNL     1      32.178  -9.253 -21.907  0.00  0.00    +0.246 C 
ATOM     22  H   UNL     1      31.657 -11.247 -21.769  0.00  0.00    +0.145 HD
ATOM     23  H   UNL     1      31.925 -10.698 -23.361  0.00  0.00    +0.145 HD
ENDBRANCH  18  21
BRANCH  17  24
ATOM     24  O   UNL     1      34.681  -9.190 -23.249  0.00  0.00    -0.471 OA
ATOM     25  C   UNL     1      34.959 -10.136 -24.278  0.00  0.00    +0.252 C 
ENDBRANCH  17  24
TORSDOF 2
ENDMDL
