MODEL 1
REMARK VINA RESULT:      -7.9      0.000      0.000
REMARK  Name = 3775
REMARK  8 active torsions:
REMARK  status: ('A' for Active; 'I' for Inactive)
REMARK    1  A    between atoms: C_1  and  C_2
REMARK    2  A    between atoms: C_1  and  C_8
REMARK    3  A    between atoms: C_1  and  C_16
REMARK    4  A    between atoms: C_1  and  C_19
REMARK    5  A    between atoms: C_19  and  C_20
REMARK    6  A    between atoms: C_20  and  N_21
REMARK    7  A    between atoms: N_21  and  C_23
REMARK    8  A    between atoms: N_21  and  C_26
REMARK                            x       y       z     vdW  Elec       q    Type
REMARK                         _______ _______ _______ _____ _____    ______ ____
ROOT
ATOM      1  C   UNL     1      35.489 -24.560 -14.635  0.00  0.00    +0.104 C 
ENDROOT
BRANCH   1   2
ATOM      2  C   UNL     1      36.105 -23.527 -15.624  0.00  0.00    -0.011 C 
ATOM      3  C   UNL     1      35.266 -22.925 -16.514  0.00  0.00    -0.004 C 
ATOM      4  C   UNL     1      37.444 -23.290 -15.536  0.00  0.00    -0.004 C 
ATOM      5  C   UNL     1      35.818 -22.000 -17.400  0.00  0.00    -0.000 C 
ATOM      6  C   UNL     1      37.997 -22.366 -16.422  0.00  0.00    -0.000 C 
ATOM      7  C   UNL     1      37.183 -21.721 -17.354  0.00  0.00    -0.000 C 
ENDBRANCH   1   2
BRANCH   1   8
ATOM      8  C   UNL     1      35.908 -24.119 -13.203  0.00  0.00    -0.011 C 
ATOM      9  C   UNL     1      35.176 -24.596 -12.154  0.00  0.00    -0.004 C 
ATOM     10  C   UNL     1      36.979 -23.284 -13.085  0.00  0.00    -0.004 C 
ATOM     11  C   UNL     1      35.552 -24.200 -10.870  0.00  0.00    -0.000 C 
ATOM     12  C   UNL     1      37.356 -22.890 -11.801  0.00  0.00    -0.000 C 
ATOM     13  C   UNL     1      36.641 -23.347 -10.694  0.00  0.00    -0.000 C 
ENDBRANCH   1   8
BRANCH   1  16
ATOM     14  O   UNL     1      35.854 -26.550 -16.049  0.00  0.00    -0.275 OA
ATOM     15  N   UNL     1      36.666 -26.629 -13.920  0.00  0.00    -0.328 N 
ATOM     16  C   UNL     1      35.985 -26.010 -14.951  0.00  0.00    +0.226 C 
ATOM     17  H   UNL     1      37.012 -27.543 -14.036  0.00  0.00    +0.145 HD
ATOM     18  H   UNL     1      36.806 -26.155 -13.069  0.00  0.00    +0.145 HD
ENDBRANCH   1  16
BRANCH   1  19
ATOM     19  C   UNL     1      33.922 -24.651 -14.826  0.00  0.00    -0.005 C 
BRANCH  19  20
ATOM     20  C   UNL     1      33.202 -23.302 -14.937  0.00  0.00    -0.072 C 
BRANCH  20  21
ATOM     21  N   UNL     1      31.735 -23.540 -14.922  0.00  0.00    +0.391 N 
ATOM     22  C   UNL     1      31.020 -22.472 -14.086  0.00  0.00    -0.096 C 
BRANCH  21  23
ATOM     23  C   UNL     1      31.415 -24.914 -14.319  0.00  0.00    -0.054 C 
ATOM     24  C   UNL     1      30.890 -24.710 -12.907  0.00  0.00    -0.022 C 
ATOM     25  C   UNL     1      30.401 -25.609 -15.214  0.00  0.00    -0.022 C 
ENDBRANCH  21  23
BRANCH  21  26
ATOM     26  C   UNL     1      31.164 -23.497 -16.345  0.00  0.00    -0.054 C 
ATOM     27  C   UNL     1      29.864 -22.709 -16.319  0.00  0.00    -0.022 C 
ATOM     28  C   UNL     1      32.201 -22.868 -17.262  0.00  0.00    -0.022 C 
ENDBRANCH  21  26
ENDBRANCH  20  21
ENDBRANCH  19  20
ENDBRANCH   1  19
TORSDOF 8
ENDMDL
MODEL 2
REMARK VINA RESULT:      -7.7      0.508      2.106
REMARK  Name = 3775
REMARK  8 active torsions:
REMARK  status: ('A' for Active; 'I' for Inactive)
REMARK    1  A    between atoms: C_1  and  C_2
REMARK    2  A    between atoms: C_1  and  C_8
REMARK    3  A    between atoms: C_1  and  C_16
REMARK    4  A    between atoms: C_1  and  C_19
REMARK    5  A    between atoms: C_19  and  C_20
REMARK    6  A    between atoms: C_20  and  N_21
REMARK    7  A    between atoms: N_21  and  C_23
REMARK    8  A    between atoms: N_21  and  C_26
REMARK                            x       y       z     vdW  Elec       q    Type
REMARK                         _______ _______ _______ _____ _____    ______ ____
ROOT
ATOM      1  C   UNL     1      35.536 -24.599 -14.623  0.00  0.00    +0.104 C 
ENDROOT
BRANCH   1   2
ATOM      2  C   UNL     1      36.109 -23.549 -15.620  0.00  0.00    -0.011 C 
ATOM      3  C   UNL     1      35.237 -22.959 -16.486  0.00  0.00    -0.004 C 
ATOM      4  C   UNL     1      37.445 -23.286 -15.562  0.00  0.00    -0.004 C 
ATOM      5  C   UNL     1      35.750 -22.018 -17.379  0.00  0.00    -0.000 C 
ATOM      6  C   UNL     1      37.958 -22.346 -16.455  0.00  0.00    -0.000 C 
ATOM      7  C   UNL     1      37.111 -21.712 -17.364  0.00  0.00    -0.000 C 
ENDBRANCH   1   2
BRANCH   1   8
ATOM      8  C   UNL     1      35.952 -24.141 -13.196  0.00  0.00    -0.011 C 
ATOM      9  C   UNL     1      37.005 -23.279 -13.090  0.00  0.00    -0.004 C 
ATOM     10  C   UNL     1      35.240 -24.629 -12.141  0.00  0.00    -0.004 C 
ATOM     11  C   UNL     1      37.378 -22.869 -11.810  0.00  0.00    -0.000 C 
ATOM     12  C   UNL     1      35.613 -24.218 -10.861  0.00  0.00    -0.000 C 
ATOM     13  C   UNL     1      36.683 -23.338 -10.696  0.00  0.00    -0.000 C 
ENDBRANCH   1   8
BRANCH   1  16
ATOM     14  O   UNL     1      35.973 -26.572 -16.041  0.00  0.00    -0.275 OA
ATOM     15  N   UNL     1      36.768 -26.635 -13.905  0.00  0.00    -0.328 N 
ATOM     16  C   UNL     1      36.078 -26.033 -14.940  0.00  0.00    +0.226 C 
ATOM     17  H   UNL     1      37.142 -27.538 -14.022  0.00  0.00    +0.145 HD
ATOM     18  H   UNL     1      36.886 -26.161 -13.051  0.00  0.00    +0.145 HD
ENDBRANCH   1  16
BRANCH   1  19
ATOM     19  C   UNL     1      33.972 -24.744 -14.800  0.00  0.00    -0.005 C 
BRANCH  19  20
ATOM     20  C   UNL     1      33.180 -23.438 -14.668  0.00  0.00    -0.072 C 
BRANCH  20  21
ATOM     21  N   UNL     1      31.740 -23.726 -14.896  0.00  0.00    +0.391 N 
ATOM     22  C   UNL     1      31.542 -25.177 -15.353  0.00  0.00    -0.096 C 
BRANCH  21  23
ATOM     23  C   UNL     1      31.165 -22.801 -15.976  0.00  0.00    -0.054 C 
ATOM     24  C   UNL     1      32.012 -22.941 -17.231  0.00  0.00    -0.022 C 
ATOM     25  C   UNL     1      29.714 -23.183 -16.216  0.00  0.00    -0.022 C 
ENDBRANCH  21  23
BRANCH  21  26
ATOM     26  C   UNL     1      30.934 -23.517 -13.608  0.00  0.00    -0.054 C 
ATOM     27  C   UNL     1      30.495 -24.875 -13.087  0.00  0.00    -0.022 C 
ATOM     28  C   UNL     1      31.806 -22.771 -12.609  0.00  0.00    -0.022 C 
ENDBRANCH  21  26
ENDBRANCH  20  21
ENDBRANCH  19  20
ENDBRANCH   1  19
TORSDOF 8
ENDMDL
MODEL 3
REMARK VINA RESULT:      -7.4      1.545      6.009
REMARK  Name = 3775
REMARK  8 active torsions:
REMARK  status: ('A' for Active; 'I' for Inactive)
REMARK    1  A    between atoms: C_1  and  C_2
REMARK    2  A    between atoms: C_1  and  C_8
REMARK    3  A    between atoms: C_1  and  C_16
REMARK    4  A    between atoms: C_1  and  C_19
REMARK    5  A    between atoms: C_19  and  C_20
REMARK    6  A    between atoms: C_20  and  N_21
REMARK    7  A    between atoms: N_21  and  C_23
REMARK    8  A    between atoms: N_21  and  C_26
REMARK                            x       y       z     vdW  Elec       q    Type
REMARK                         _______ _______ _______ _____ _____    ______ ____
ROOT
ATOM      1  C   UNL     1      34.337 -23.473 -15.554  0.00  0.00    +0.104 C 
ENDROOT
BRANCH   1   2
ATOM      2  C   UNL     1      32.812 -23.190 -15.423  0.00  0.00    -0.011 C 
ATOM      3  C   UNL     1      32.337 -22.839 -14.193  0.00  0.00    -0.004 C 
ATOM      4  C   UNL     1      32.048 -23.311 -16.545  0.00  0.00    -0.004 C 
ATOM      5  C   UNL     1      30.971 -22.586 -14.075  0.00  0.00    -0.000 C 
ATOM      6  C   UNL     1      30.681 -23.059 -16.427  0.00  0.00    -0.000 C 
ATOM      7  C   UNL     1      30.143 -22.697 -15.192  0.00  0.00    -0.000 C 
ENDBRANCH   1   2
BRANCH   1   8
ATOM      8  C   UNL     1      34.797 -22.851 -16.903  0.00  0.00    -0.011 C 
ATOM      9  C   UNL     1      36.015 -22.238 -16.936  0.00  0.00    -0.004 C 
ATOM     10  C   UNL     1      33.953 -22.956 -17.970  0.00  0.00    -0.004 C 
ATOM     11  C   UNL     1      36.427 -21.679 -18.147  0.00  0.00    -0.000 C 
ATOM     12  C   UNL     1      34.366 -22.399 -19.180  0.00  0.00    -0.000 C 
ATOM     13  C   UNL     1      35.602 -21.760 -19.267  0.00  0.00    -0.000 C 
ENDBRANCH   1   8
BRANCH   1  16
ATOM     14  O   UNL     1      35.581 -25.538 -16.086  0.00  0.00    -0.275 OA
ATOM     15  N   UNL     1      33.792 -25.737 -14.686  0.00  0.00    -0.328 N 
ATOM     16  C   UNL     1      34.633 -25.009 -15.506  0.00  0.00    +0.226 C 
ATOM     17  H   UNL     1      33.910 -26.710 -14.599  0.00  0.00    +0.145 HD
ATOM     18  H   UNL     1      33.075 -25.282 -14.189  0.00  0.00    +0.145 HD
ENDBRANCH   1  16
BRANCH   1  19
ATOM     19  C   UNL     1      35.122 -22.903 -14.305  0.00  0.00    -0.005 C 
BRANCH  19  20
ATOM     20  C   UNL     1      36.618 -23.240 -14.269  0.00  0.00    -0.072 C 
BRANCH  20  21
ATOM     21  N   UNL     1      36.919 -23.939 -12.994  0.00  0.00    +0.391 N 
ATOM     22  C   UNL     1      35.646 -24.545 -12.391  0.00  0.00    -0.096 C 
BRANCH  21  23
ATOM     23  C   UNL     1      37.518 -22.967 -11.970  0.00  0.00    -0.054 C 
ATOM     24  C   UNL     1      36.728 -23.084 -10.675  0.00  0.00    -0.022 C 
ATOM     25  C   UNL     1      38.987 -23.309 -11.780  0.00  0.00    -0.022 C 
ENDBRANCH  21  23
BRANCH  21  26
ATOM     26  C   UNL     1      37.927 -25.074 -13.222  0.00  0.00    -0.054 C 
ATOM     27  C   UNL     1      37.227 -26.399 -12.969  0.00  0.00    -0.022 C 
ATOM     28  C   UNL     1      38.461 -24.966 -14.642  0.00  0.00    -0.022 C 
ENDBRANCH  21  26
ENDBRANCH  20  21
ENDBRANCH  19  20
ENDBRANCH   1  19
TORSDOF 8
ENDMDL
MODEL 4
REMARK VINA RESULT:      -7.3      1.563      6.067
REMARK  Name = 3775
REMARK  8 active torsions:
REMARK  status: ('A' for Active; 'I' for Inactive)
REMARK    1  A    between atoms: C_1  and  C_2
REMARK    2  A    between atoms: C_1  and  C_8
REMARK    3  A    between atoms: C_1  and  C_16
REMARK    4  A    between atoms: C_1  and  C_19
REMARK    5  A    between atoms: C_19  and  C_20
REMARK    6  A    between atoms: C_20  and  N_21
REMARK    7  A    between atoms: N_21  and  C_23
REMARK    8  A    between atoms: N_21  and  C_26
REMARK                            x       y       z     vdW  Elec       q    Type
REMARK                         _______ _______ _______ _____ _____    ______ ____
ROOT
ATOM      1  C   UNL     1      34.085 -23.503 -15.583  0.00  0.00    +0.104 C 
ENDROOT
BRANCH   1   2
ATOM      2  C   UNL     1      32.571 -23.170 -15.432  0.00  0.00    -0.011 C 
ATOM      3  C   UNL     1      32.127 -22.793 -14.200  0.00  0.00    -0.004 C 
ATOM      4  C   UNL     1      31.788 -23.277 -16.542  0.00  0.00    -0.004 C 
ATOM      5  C   UNL     1      30.771 -22.495 -14.064  0.00  0.00    -0.000 C 
ATOM      6  C   UNL     1      30.432 -22.979 -16.407  0.00  0.00    -0.000 C 
ATOM      7  C   UNL     1      29.923 -22.589 -15.168  0.00  0.00    -0.000 C 
ENDBRANCH   1   2
BRANCH   1   8
ATOM      8  C   UNL     1      34.541 -22.920 -16.950  0.00  0.00    -0.011 C 
ATOM      9  C   UNL     1      35.753 -22.295 -17.000  0.00  0.00    -0.004 C 
ATOM     10  C   UNL     1      33.702 -23.068 -18.015  0.00  0.00    -0.004 C 
ATOM     11  C   UNL     1      36.162 -21.771 -18.227  0.00  0.00    -0.000 C 
ATOM     12  C   UNL     1      34.111 -22.545 -19.241  0.00  0.00    -0.000 C 
ATOM     13  C   UNL     1      35.341 -21.896 -19.346  0.00  0.00    -0.000 C 
ENDBRANCH   1   8
BRANCH   1  16
ATOM     14  O   UNL     1      35.261 -25.614 -16.088  0.00  0.00    -0.275 OA
ATOM     15  N   UNL     1      33.474 -25.736 -14.677  0.00  0.00    -0.328 N 
ATOM     16  C   UNL     1      34.334 -25.047 -15.512  0.00  0.00    +0.226 C 
ATOM     17  H   UNL     1      33.563 -26.711 -14.575  0.00  0.00    +0.145 HD
ATOM     18  H   UNL     1      32.774 -25.251 -14.183  0.00  0.00    +0.145 HD
ENDBRANCH   1  16
BRANCH   1  19
ATOM     19  C   UNL     1      34.908 -22.936 -14.357  0.00  0.00    -0.005 C 
BRANCH  19  20
ATOM     20  C   UNL     1      35.245 -23.965 -13.271  0.00  0.00    -0.072 C 
BRANCH  20  21
ATOM     21  N   UNL     1      36.722 -24.079 -13.163  0.00  0.00    +0.391 N 
ATOM     22  C   UNL     1      37.414 -23.021 -14.031  0.00  0.00    -0.096 C 
BRANCH  21  23
ATOM     23  C   UNL     1      37.195 -25.463 -13.625  0.00  0.00    -0.054 C 
ATOM     24  C   UNL     1      38.348 -25.277 -14.599  0.00  0.00    -0.022 C 
ATOM     25  C   UNL     1      37.601 -26.268 -12.401  0.00  0.00    -0.022 C 
ENDBRANCH  21  23
BRANCH  21  26
ATOM     26  C   UNL     1      37.177 -23.878 -11.711  0.00  0.00    -0.054 C 
ATOM     27  C   UNL     1      37.968 -22.583 -11.628  0.00  0.00    -0.022 C 
ATOM     28  C   UNL     1      35.947 -23.860 -10.818  0.00  0.00    -0.022 C 
ENDBRANCH  21  26
ENDBRANCH  20  21
ENDBRANCH  19  20
ENDBRANCH   1  19
TORSDOF 8
ENDMDL
MODEL 5
REMARK VINA RESULT:      -6.9      7.590     10.684
REMARK  Name = 3775
REMARK  8 active torsions:
REMARK  status: ('A' for Active; 'I' for Inactive)
REMARK    1  A    between atoms: C_1  and  C_2
REMARK    2  A    between atoms: C_1  and  C_8
REMARK    3  A    between atoms: C_1  and  C_16
REMARK    4  A    between atoms: C_1  and  C_19
REMARK    5  A    between atoms: C_19  and  C_20
REMARK    6  A    between atoms: C_20  and  N_21
REMARK    7  A    between atoms: N_21  and  C_23
REMARK    8  A    between atoms: N_21  and  C_26
REMARK                            x       y       z     vdW  Elec       q    Type
REMARK                         _______ _______ _______ _____ _____    ______ ____
ROOT
ATOM      1  C   UNL     1      35.335 -18.635 -21.641  0.00  0.00    +0.104 C 
ENDROOT
BRANCH   1   2
ATOM      2  C   UNL     1      34.560 -19.696 -20.805  0.00  0.00    -0.011 C 
ATOM      3  C   UNL     1      33.205 -19.570 -20.723  0.00  0.00    -0.004 C 
ATOM      4  C   UNL     1      35.287 -20.683 -20.210  0.00  0.00    -0.004 C 
ATOM      5  C   UNL     1      32.511 -20.520 -19.975  0.00  0.00    -0.000 C 
ATOM      6  C   UNL     1      34.593 -21.634 -19.461  0.00  0.00    -0.000 C 
ATOM      7  C   UNL     1      33.205 -21.552 -19.343  0.00  0.00    -0.000 C 
ENDBRANCH   1   2
BRANCH   1   8
ATOM      8  C   UNL     1      35.016 -18.918 -23.137  0.00  0.00    -0.011 C 
ATOM      9  C   UNL     1      34.548 -17.882 -23.892  0.00  0.00    -0.004 C 
ATOM     10  C   UNL     1      35.223 -20.183 -23.601  0.00  0.00    -0.004 C 
ATOM     11  C   UNL     1      34.262 -18.136 -25.233  0.00  0.00    -0.000 C 
ATOM     12  C   UNL     1      34.938 -20.437 -24.942  0.00  0.00    -0.000 C 
ATOM     13  C   UNL     1      34.456 -19.413 -25.758  0.00  0.00    -0.000 C 
ENDBRANCH   1   8
BRANCH   1  16
ATOM     14  O   UNL     1      37.357 -19.149 -20.320  0.00  0.00    -0.275 OA
ATOM     15  N   UNL     1      37.674 -18.320 -22.421  0.00  0.00    -0.328 N 
ATOM     16  C   UNL     1      36.874 -18.710 -21.364  0.00  0.00    +0.226 C 
ATOM     17  H   UNL     1      38.654 -18.338 -22.329  0.00  0.00    +0.145 HD
ATOM     18  H   UNL     1      37.264 -18.025 -23.265  0.00  0.00    +0.145 HD
ENDBRANCH   1  16
BRANCH   1  19
ATOM     19  C   UNL     1      34.946 -17.172 -21.186  0.00  0.00    -0.005 C 
BRANCH  19  20
ATOM     20  C   UNL     1      33.962 -16.444 -22.111  0.00  0.00    -0.072 C 
BRANCH  20  21
ATOM     21  N   UNL     1      33.806 -15.045 -21.638  0.00  0.00    +0.391 N 
ATOM     22  C   UNL     1      34.823 -14.727 -20.534  0.00  0.00    -0.096 C 
BRANCH  21  23
ATOM     23  C   UNL     1      32.399 -14.817 -21.072  0.00  0.00    -0.054 C 
ATOM     24  C   UNL     1      31.893 -16.130 -20.495  0.00  0.00    -0.022 C 
ATOM     25  C   UNL     1      32.472 -13.719 -20.023  0.00  0.00    -0.022 C 
ENDBRANCH  21  23
BRANCH  21  26
ATOM     26  C   UNL     1      34.025 -14.054 -22.789  0.00  0.00    -0.054 C 
ATOM     27  C   UNL     1      34.601 -14.812 -23.974  0.00  0.00    -0.022 C 
ATOM     28  C   UNL     1      32.695 -13.396 -23.117  0.00  0.00    -0.022 C 
ENDBRANCH  21  26
ENDBRANCH  20  21
ENDBRANCH  19  20
ENDBRANCH   1  19
TORSDOF 8
ENDMDL
MODEL 6
REMARK VINA RESULT:      -6.9      1.705      3.835
REMARK  Name = 3775
REMARK  8 active torsions:
REMARK  status: ('A' for Active; 'I' for Inactive)
REMARK    1  A    between atoms: C_1  and  C_2
REMARK    2  A    between atoms: C_1  and  C_8
REMARK    3  A    between atoms: C_1  and  C_16
REMARK    4  A    between atoms: C_1  and  C_19
REMARK    5  A    between atoms: C_19  and  C_20
REMARK    6  A    between atoms: C_20  and  N_21
REMARK    7  A    between atoms: N_21  and  C_23
REMARK    8  A    between atoms: N_21  and  C_26
REMARK                            x       y       z     vdW  Elec       q    Type
REMARK                         _______ _______ _______ _____ _____    ______ ____
ROOT
ATOM      1  C   UNL     1      35.547 -23.968 -14.598  0.00  0.00    +0.104 C 
ENDROOT
BRANCH   1   2
ATOM      2  C   UNL     1      36.489 -25.205 -14.685  0.00  0.00    -0.011 C 
ATOM      3  C   UNL     1      37.648 -25.168 -13.968  0.00  0.00    -0.004 C 
ATOM      4  C   UNL     1      36.094 -26.245 -15.472  0.00  0.00    -0.004 C 
ATOM      5  C   UNL     1      38.492 -26.276 -14.046  0.00  0.00    -0.000 C 
ATOM      6  C   UNL     1      36.938 -27.353 -15.551  0.00  0.00    -0.000 C 
ATOM      7  C   UNL     1      38.137 -27.368 -14.838  0.00  0.00    -0.000 C 
ENDBRANCH   1   2
BRANCH   1   8
ATOM      8  C   UNL     1      35.907 -23.043 -15.796  0.00  0.00    -0.011 C 
ATOM      9  C   UNL     1      37.056 -22.313 -15.710  0.00  0.00    -0.004 C 
ATOM     10  C   UNL     1      35.051 -23.018 -16.857  0.00  0.00    -0.004 C 
ATOM     11  C   UNL     1      37.378 -21.483 -16.784  0.00  0.00    -0.000 C 
ATOM     12  C   UNL     1      35.373 -22.189 -17.931  0.00  0.00    -0.000 C 
ATOM     13  C   UNL     1      36.537 -21.421 -17.894  0.00  0.00    -0.000 C 
ENDBRANCH   1   8
BRANCH   1  16
ATOM     14  O   UNL     1      36.653 -22.461 -12.985  0.00  0.00    -0.275 OA
ATOM     15  N   UNL     1      34.687 -23.414 -12.333  0.00  0.00    -0.328 N 
ATOM     16  C   UNL     1      35.718 -23.222 -13.233  0.00  0.00    +0.226 C 
ATOM     17  H   UNL     1      34.716 -22.980 -11.450  0.00  0.00    +0.145 HD
ATOM     18  H   UNL     1      33.922 -23.984 -12.576  0.00  0.00    +0.145 HD
ENDBRANCH   1  16
BRANCH   1  19
ATOM     19  C   UNL     1      34.031 -24.417 -14.590  0.00  0.00    -0.005 C 
BRANCH  19  20
ATOM     20  C   UNL     1      33.118 -23.636 -15.542  0.00  0.00    -0.072 C 
BRANCH  20  21
ATOM     21  N   UNL     1      31.744 -23.616 -14.977  0.00  0.00    +0.391 N 
ATOM     22  C   UNL     1      31.634 -22.580 -13.851  0.00  0.00    -0.096 C 
BRANCH  21  23
ATOM     23  C   UNL     1      31.373 -24.989 -14.403  0.00  0.00    -0.054 C 
ATOM     24  C   UNL     1      30.870 -24.796 -12.980  0.00  0.00    -0.022 C 
ATOM     25  C   UNL     1      30.324 -25.621 -15.303  0.00  0.00    -0.022 C 
ENDBRANCH  21  23
BRANCH  21  26
ATOM     26  C   UNL     1      30.717 -23.256 -16.059  0.00  0.00    -0.054 C 
ATOM     27  C   UNL     1      29.666 -22.347 -15.444  0.00  0.00    -0.022 C 
ATOM     28  C   UNL     1      31.447 -22.594 -17.216  0.00  0.00    -0.022 C 
ENDBRANCH  21  26
ENDBRANCH  20  21
ENDBRANCH  19  20
ENDBRANCH   1  19
TORSDOF 8
ENDMDL
MODEL 7
REMARK VINA RESULT:      -6.8      2.268      5.674
REMARK  Name = 3775
REMARK  8 active torsions:
REMARK  status: ('A' for Active; 'I' for Inactive)
REMARK    1  A    between atoms: C_1  and  C_2
REMARK    2  A    between atoms: C_1  and  C_8
REMARK    3  A    between atoms: C_1  and  C_16
REMARK    4  A    between atoms: C_1  and  C_19
REMARK    5  A    between atoms: C_19  and  C_20
REMARK    6  A    between atoms: C_20  and  N_21
REMARK    7  A    between atoms: N_21  and  C_23
REMARK    8  A    between atoms: N_21  and  C_26
REMARK                            x       y       z     vdW  Elec       q    Type
REMARK                         _______ _______ _______ _____ _____    ______ ____
ROOT
ATOM      1  C   UNL     1      35.214 -23.543 -15.352  0.00  0.00    +0.104 C 
ENDROOT
BRANCH   1   2
ATOM      2  C   UNL     1      35.104 -22.932 -16.781  0.00  0.00    -0.011 C 
ATOM      3  C   UNL     1      36.163 -22.208 -17.242  0.00  0.00    -0.004 C 
ATOM      4  C   UNL     1      33.956 -23.160 -17.478  0.00  0.00    -0.004 C 
ATOM      5  C   UNL     1      36.065 -21.661 -18.521  0.00  0.00    -0.000 C 
ATOM      6  C   UNL     1      33.857 -22.612 -18.757  0.00  0.00    -0.000 C 
ATOM      7  C   UNL     1      34.911 -21.862 -19.278  0.00  0.00    -0.000 C 
ENDBRANCH   1   2
BRANCH   1   8
ATOM      8  C   UNL     1      33.762 -23.821 -14.868  0.00  0.00    -0.011 C 
ATOM      9  C   UNL     1      32.839 -22.829 -15.033  0.00  0.00    -0.004 C 
ATOM     10  C   UNL     1      33.502 -25.036 -14.308  0.00  0.00    -0.004 C 
ATOM     11  C   UNL     1      31.537 -23.078 -14.598  0.00  0.00    -0.000 C 
ATOM     12  C   UNL     1      32.200 -25.285 -13.874  0.00  0.00    -0.000 C 
ATOM     13  C   UNL     1      31.218 -24.305 -14.018  0.00  0.00    -0.000 C 
ENDBRANCH   1   8
BRANCH   1  16
ATOM     14  O   UNL     1      36.670 -21.640 -14.758  0.00  0.00    -0.275 OA
ATOM     15  N   UNL     1      35.707 -22.785 -13.037  0.00  0.00    -0.328 N 
ATOM     16  C   UNL     1      35.962 -22.573 -14.379  0.00  0.00    +0.226 C 
ATOM     17  H   UNL     1      36.138 -22.218 -12.358  0.00  0.00    +0.145 HD
ATOM     18  H   UNL     1      35.093 -23.504 -12.761  0.00  0.00    +0.145 HD
ENDBRANCH   1  16
BRANCH   1  19
ATOM     19  C   UNL     1      36.125 -24.835 -15.365  0.00  0.00    -0.005 C 
BRANCH  19  20
ATOM     20  C   UNL     1      37.596 -24.596 -15.003  0.00  0.00    -0.072 C 
BRANCH  20  21
ATOM     21  N   UNL     1      38.154 -25.844 -14.421  0.00  0.00    +0.391 N 
ATOM     22  C   UNL     1      37.239 -27.039 -14.717  0.00  0.00    -0.096 C 
BRANCH  21  23
ATOM     23  C   UNL     1      38.298 -25.716 -12.899  0.00  0.00    -0.054 C 
ATOM     24  C   UNL     1      38.640 -24.272 -12.567  0.00  0.00    -0.022 C 
ATOM     25  C   UNL     1      36.996 -26.162 -12.252  0.00  0.00    -0.022 C 
ENDBRANCH  21  23
BRANCH  21  26
ATOM     26  C   UNL     1      39.539 -26.145 -15.009  0.00  0.00    -0.054 C 
ATOM     27  C   UNL     1      40.026 -24.911 -15.751  0.00  0.00    -0.022 C 
ATOM     28  C   UNL     1      40.469 -26.539 -13.873  0.00  0.00    -0.022 C 
ENDBRANCH  21  26
ENDBRANCH  20  21
ENDBRANCH  19  20
ENDBRANCH   1  19
TORSDOF 8
ENDMDL
MODEL 8
REMARK VINA RESULT:      -6.3     14.668     17.062
REMARK  Name = 3775
REMARK  8 active torsions:
REMARK  status: ('A' for Active; 'I' for Inactive)
REMARK    1  A    between atoms: C_1  and  C_2
REMARK    2  A    between atoms: C_1  and  C_8
REMARK    3  A    between atoms: C_1  and  C_16
REMARK    4  A    between atoms: C_1  and  C_19
REMARK    5  A    between atoms: C_19  and  C_20
REMARK    6  A    between atoms: C_20  and  N_21
REMARK    7  A    between atoms: N_21  and  C_23
REMARK    8  A    between atoms: N_21  and  C_26
REMARK                            x       y       z     vdW  Elec       q    Type
REMARK                         _______ _______ _______ _____ _____    ______ ____
ROOT
ATOM      1  C   UNL     1      33.080  -8.860 -23.329  0.00  0.00    +0.104 C 
ENDROOT
BRANCH   1   2
ATOM      2  C   UNL     1      32.349  -7.630 -23.944  0.00  0.00    -0.011 C 
ATOM      3  C   UNL     1      33.118  -6.641 -24.481  0.00  0.00    -0.004 C 
ATOM      4  C   UNL     1      30.987  -7.622 -23.905  0.00  0.00    -0.004 C 
ATOM      5  C   UNL     1      32.463  -5.539 -25.031  0.00  0.00    -0.000 C 
ATOM      6  C   UNL     1      30.331  -6.520 -24.454  0.00  0.00    -0.000 C 
ATOM      7  C   UNL     1      31.070  -5.478 -25.017  0.00  0.00    -0.000 C 
ENDBRANCH   1   2
BRANCH   1   8
ATOM      8  C   UNL     1      32.586  -8.992 -21.860  0.00  0.00    -0.011 C 
ATOM      9  C   UNL     1      31.993 -10.165 -21.495  0.00  0.00    -0.004 C 
ATOM     10  C   UNL     1      32.774  -7.926 -21.030  0.00  0.00    -0.004 C 
ATOM     11  C   UNL     1      31.549 -10.283 -20.177  0.00  0.00    -0.000 C 
ATOM     12  C   UNL     1      32.330  -8.045 -19.713  0.00  0.00    -0.000 C 
ATOM     13  C   UNL     1      31.717  -9.223 -19.287  0.00  0.00    -0.000 C 
ENDBRANCH   1   8
BRANCH   1  16
ATOM     14  O   UNL     1      35.381  -9.434 -24.017  0.00  0.00    -0.275 OA
ATOM     15  N   UNL     1      35.116  -7.556 -22.752  0.00  0.00    -0.328 N 
ATOM     16  C   UNL     1      34.634  -8.682 -23.392  0.00  0.00    +0.226 C 
ATOM     17  H   UNL     1      36.082  -7.369 -22.744  0.00  0.00    +0.145 HD
ATOM     18  H   UNL     1      34.493  -6.939 -22.305  0.00  0.00    +0.145 HD
ENDBRANCH   1  16
BRANCH   1  19
ATOM     19  C   UNL     1      32.819 -10.157 -24.194  0.00  0.00    -0.005 C 
BRANCH  19  20
ATOM     20  C   UNL     1      33.937 -11.205 -24.147  0.00  0.00    -0.072 C 
BRANCH  20  21
ATOM     21  N   UNL     1      33.324 -12.559 -24.135  0.00  0.00    +0.391 N 
ATOM     22  C   UNL     1      31.798 -12.463 -24.005  0.00  0.00    -0.096 C 
BRANCH  21  23
ATOM     23  C   UNL     1      33.854 -13.384 -22.955  0.00  0.00    -0.054 C 
ATOM     24  C   UNL     1      32.691 -13.699 -22.026  0.00  0.00    -0.022 C 
ATOM     25  C   UNL     1      34.510 -14.642 -23.502  0.00  0.00    -0.022 C 
ENDBRANCH  21  23
BRANCH  21  26
ATOM     26  C   UNL     1      33.647 -13.314 -25.430  0.00  0.00    -0.054 C 
ATOM     27  C   UNL     1      32.473 -14.217 -25.769  0.00  0.00    -0.022 C 
ATOM     28  C   UNL     1      33.926 -12.295 -26.525  0.00  0.00    -0.022 C 
ENDBRANCH  21  26
ENDBRANCH  20  21
ENDBRANCH  19  20
ENDBRANCH   1  19
TORSDOF 8
ENDMDL
MODEL 9
REMARK VINA RESULT:      -6.2     16.240     18.830
REMARK  Name = 3775
REMARK  8 active torsions:
REMARK  status: ('A' for Active; 'I' for Inactive)
REMARK    1  A    between atoms: C_1  and  C_2
REMARK    2  A    between atoms: C_1  and  C_8
REMARK    3  A    between atoms: C_1  and  C_16
REMARK    4  A    between atoms: C_1  and  C_19
REMARK    5  A    between atoms: C_19  and  C_20
REMARK    6  A    between atoms: C_20  and  N_21
REMARK    7  A    between atoms: N_21  and  C_23
REMARK    8  A    between atoms: N_21  and  C_26
REMARK                            x       y       z     vdW  Elec       q    Type
REMARK                         _______ _______ _______ _____ _____    ______ ____
ROOT
ATOM      1  C   UNL     1      32.888  -8.658 -22.621  0.00  0.00    +0.104 C 
ENDROOT
BRANCH   1   2
ATOM      2  C   UNL     1      32.092  -9.567 -21.639  0.00  0.00    -0.011 C 
ATOM      3  C   UNL     1      31.180 -10.428 -22.173  0.00  0.00    -0.004 C 
ATOM      4  C   UNL     1      32.359  -9.445 -20.309  0.00  0.00    -0.004 C 
ATOM      5  C   UNL     1      30.466 -11.242 -21.294  0.00  0.00    -0.000 C 
ATOM      6  C   UNL     1      31.645 -10.258 -19.429  0.00  0.00    -0.000 C 
ATOM      7  C   UNL     1      30.699 -11.157 -19.922  0.00  0.00    -0.000 C 
ENDBRANCH   1   2
BRANCH   1   8
ATOM      8  C   UNL     1      33.578  -9.599 -23.649  0.00  0.00    -0.011 C 
ATOM      9  C   UNL     1      34.552  -9.066 -24.443  0.00  0.00    -0.004 C 
ATOM     10  C   UNL     1      33.165 -10.898 -23.695  0.00  0.00    -0.004 C 
ATOM     11  C   UNL     1      35.170  -9.911 -25.365  0.00  0.00    -0.000 C 
ATOM     12  C   UNL     1      33.784 -11.743 -24.617  0.00  0.00    -0.000 C 
ATOM     13  C   UNL     1      34.785 -11.248 -25.452  0.00  0.00    -0.000 C 
ENDBRANCH   1   8
BRANCH   1  16
ATOM     14  O   UNL     1      35.036  -7.478 -22.321  0.00  0.00    -0.275 OA
ATOM     15  N   UNL     1      33.513  -7.302 -20.634  0.00  0.00    -0.328 N 
ATOM     16  C   UNL     1      33.939  -7.784 -21.857  0.00  0.00    +0.226 C 
ATOM     17  H   UNL     1      34.113  -6.743 -20.089  0.00  0.00    +0.145 HD
ATOM     18  H   UNL     1      32.609  -7.515 -20.308  0.00  0.00    +0.145 HD
ENDBRANCH   1  16
BRANCH   1  19
ATOM     19  C   UNL     1      31.935  -7.591 -23.294  0.00  0.00    -0.005 C 
BRANCH  19  20
ATOM     20  C   UNL     1      32.462  -6.151 -23.281  0.00  0.00    -0.072 C 
BRANCH  20  21
ATOM     21  N   UNL     1      31.569  -5.308 -24.118  0.00  0.00    +0.391 N 
ATOM     22  C   UNL     1      30.562  -6.176 -24.883  0.00  0.00    -0.096 C 
BRANCH  21  23
ATOM     23  C   UNL     1      32.383  -4.504 -25.140  0.00  0.00    -0.054 C 
ATOM     24  C   UNL     1      33.368  -5.444 -25.818  0.00  0.00    -0.022 C 
ATOM     25  C   UNL     1      31.420  -3.868 -26.130  0.00  0.00    -0.022 C 
ENDBRANCH  21  23
BRANCH  21  26
ATOM     26  C   UNL     1      30.783  -4.319 -23.247  0.00  0.00    -0.054 C 
ATOM     27  C   UNL     1      30.443  -4.999 -21.932  0.00  0.00    -0.022 C 
ATOM     28  C   UNL     1      31.631  -3.072 -23.049  0.00  0.00    -0.022 C 
ENDBRANCH  21  26
ENDBRANCH  20  21
ENDBRANCH  19  20
ENDBRANCH   1  19
TORSDOF 8
ENDMDL
