MODEL 1
REMARK VINA RESULT:      -9.6      0.000      0.000
REMARK  Name = 33478
REMARK  10 active torsions:
REMARK  status: ('A' for Active; 'I' for Inactive)
REMARK    1  A    between atoms: C_6  and  C_27
REMARK    2  A    between atoms: C_7  and  N_12
REMARK    3  A    between atoms: C_13  and  C_15
REMARK    4  A    between atoms: C_15  and  C_16
REMARK    5  A    between atoms: C_15  and  N_22
REMARK    6  A    between atoms: C_27  and  O_28
REMARK    7  A    between atoms: O_28  and  C_29
REMARK    8  A    between atoms: C_29  and  O_30
REMARK    9  A    between atoms: O_30  and  C_32
REMARK   10  A    between atoms: C_32  and  C_33
REMARK                            x       y       z     vdW  Elec       q    Type
REMARK                         _______ _______ _______ _____ _____    ______ ____
ROOT
ATOM      1  S   UNL     1      34.470 -14.917 -23.475  0.00  0.00    -0.118 S 
ATOM      2  O   UNL     1      31.929 -15.388 -19.907  0.00  0.00    -0.273 OA
ATOM      3  N   UNL     1      33.208 -14.058 -21.379  0.00  0.00    -0.260 N 
ATOM      4  C   UNL     1      34.564 -14.513 -21.693  0.00  0.00    +0.151 C 
ATOM      5  C   UNL     1      33.190 -13.592 -23.746  0.00  0.00    +0.068 C 
ATOM      6  C   UNL     1      32.339 -13.638 -22.459  0.00  0.00    +0.185 C 
ATOM      7  C   UNL     1      34.336 -15.668 -20.709  0.00  0.00    +0.178 C 
ATOM      8  C   UNL     1      32.935 -15.062 -20.495  0.00  0.00    +0.247 C 
ATOM      9  C   UNL     1      32.356 -13.951 -24.978  0.00  0.00    +0.013 C 
ATOM     10  C   UNL     1      33.925 -12.265 -23.977  0.00  0.00    +0.013 C 
ENDROOT
BRANCH   7  12
ATOM     11  O   UNL     1      36.319 -17.710 -20.255  0.00  0.00    -0.277 OA
ATOM     12  N   UNL     1      34.333 -17.030 -21.238  0.00  0.00    -0.298 N 
ATOM     13  C   UNL     1      35.342 -17.954 -20.962  0.00  0.00    +0.206 C 
ATOM     14  H   UNL     1      33.584 -17.309 -21.814  0.00  0.00    +0.150 HD
BRANCH  13  15
ATOM     15  C   UNL     1      35.123 -19.299 -21.647  0.00  0.00    +0.036 C 
BRANCH  15  16
ATOM     16  C   UNL     1      34.698 -20.351 -20.645  0.00  0.00    -0.034 C 
ATOM     17  C   UNL     1      33.353 -20.486 -20.303  0.00  0.00    -0.006 C 
ATOM     18  C   UNL     1      35.652 -21.188 -20.064  0.00  0.00    -0.006 C 
ATOM     19  C   UNL     1      32.961 -21.456 -19.379  0.00  0.00    -0.000 C 
ATOM     20  C   UNL     1      35.261 -22.158 -19.142  0.00  0.00    -0.000 C 
ATOM     21  C   UNL     1      33.916 -22.291 -18.799  0.00  0.00    -0.000 C 
ENDBRANCH  15  16
BRANCH  15  22
ATOM     22  N   UNL     1      34.131 -19.104 -22.708  0.00  0.00    +0.390 N 
ATOM     23  H   UNL     1      33.251 -18.791 -22.298  0.00  0.00    -0.088 HD
ATOM     24  H   UNL     1      33.981 -19.986 -23.200  0.00  0.00    -0.088 HD
ATOM     25  H   UNL     1      34.469 -18.401 -23.364  0.00  0.00    -0.088 HD
ENDBRANCH  15  22
ENDBRANCH  13  15
ENDBRANCH   7  12
BRANCH   6  27
ATOM     26  O   UNL     1      31.070 -11.624 -22.800  0.00  0.00    -0.248 OA
ATOM     27  C   UNL     1      31.725 -12.336 -22.051  0.00  0.00    +0.339 C 
BRANCH  27  28
ATOM     28  O   UNL     1      32.011 -12.089 -20.741  0.00  0.00    -0.407 OA
BRANCH  28  29
ATOM     29  C   UNL     1      31.800 -10.741 -20.289  0.00  0.00    +0.433 C 
BRANCH  29  30
ATOM     30  O   UNL     1      32.374  -9.750 -21.158  0.00  0.00    -0.408 OA
BRANCH  30  32
ATOM     31  O   UNL     1      32.205  -8.094 -19.568  0.00  0.00    -0.250 OA
ATOM     32  C   UNL     1      32.297  -8.453 -20.737  0.00  0.00    +0.319 C 
BRANCH  32  33
ATOM     33  C   UNL     1      32.331  -7.499 -21.935  0.00  0.00    +0.090 C 
ATOM     34  C   UNL     1      31.926  -6.090 -21.484  0.00  0.00    +0.011 C 
ATOM     35  C   UNL     1      33.745  -7.486 -22.532  0.00  0.00    +0.011 C 
ATOM     36  C   UNL     1      31.341  -7.985 -23.005  0.00  0.00    +0.011 C 
ENDBRANCH  32  33
ENDBRANCH  30  32
ENDBRANCH  29  30
ENDBRANCH  28  29
ENDBRANCH  27  28
ENDBRANCH   6  27
TORSDOF 10
ENDMDL
MODEL 2
REMARK VINA RESULT:      -8.1      2.590     10.076
REMARK  Name = 33478
REMARK  10 active torsions:
REMARK  status: ('A' for Active; 'I' for Inactive)
REMARK    1  A    between atoms: C_6  and  C_27
REMARK    2  A    between atoms: C_7  and  N_12
REMARK    3  A    between atoms: C_13  and  C_15
REMARK    4  A    between atoms: C_15  and  C_16
REMARK    5  A    between atoms: C_15  and  N_22
REMARK    6  A    between atoms: C_27  and  O_28
REMARK    7  A    between atoms: O_28  and  C_29
REMARK    8  A    between atoms: C_29  and  O_30
REMARK    9  A    between atoms: O_30  and  C_32
REMARK   10  A    between atoms: C_32  and  C_33
REMARK                            x       y       z     vdW  Elec       q    Type
REMARK                         _______ _______ _______ _____ _____    ______ ____
ROOT
ATOM      1  S   UNL     1      32.648 -11.266 -23.402  0.00  0.00    -0.118 S 
ATOM      2  O   UNL     1      31.917 -11.505 -19.064  0.00  0.00    -0.273 OA
ATOM      3  N   UNL     1      31.700 -12.363 -21.252  0.00  0.00    -0.260 N 
ATOM      4  C   UNL     1      31.208 -11.452 -22.289  0.00  0.00    +0.151 C 
ATOM      5  C   UNL     1      33.216 -12.997 -23.019  0.00  0.00    +0.068 C 
ATOM      6  C   UNL     1      32.870 -13.173 -21.525  0.00  0.00    +0.185 C 
ATOM      7  C   UNL     1      31.043 -10.394 -21.189  0.00  0.00    +0.178 C 
ATOM      8  C   UNL     1      31.583 -11.470 -20.227  0.00  0.00    +0.247 C 
ATOM      9  C   UNL     1      34.725 -13.089 -23.256  0.00  0.00    +0.013 C 
ATOM     10  C   UNL     1      32.477 -13.956 -23.962  0.00  0.00    +0.013 C 
ENDROOT
BRANCH   7  12
ATOM     11  O   UNL     1      30.715  -8.195 -23.024  0.00  0.00    -0.277 OA
ATOM     12  N   UNL     1      31.861  -9.186 -21.270  0.00  0.00    -0.298 N 
ATOM     13  C   UNL     1      31.626  -8.170 -22.197  0.00  0.00    +0.206 C 
ATOM     14  H   UNL     1      32.613  -9.085 -20.641  0.00  0.00    +0.150 HD
BRANCH  13  15
ATOM     15  C   UNL     1      32.629  -7.025 -22.095  0.00  0.00    +0.036 C 
BRANCH  15  16
ATOM     16  C   UNL     1      32.998  -6.508 -23.470  0.00  0.00    -0.034 C 
ATOM     17  C   UNL     1      32.170  -5.592 -24.116  0.00  0.00    -0.006 C 
ATOM     18  C   UNL     1      34.168  -6.948 -24.090  0.00  0.00    -0.006 C 
ATOM     19  C   UNL     1      32.510  -5.116 -25.384  0.00  0.00    -0.000 C 
ATOM     20  C   UNL     1      34.509  -6.472 -25.355  0.00  0.00    -0.000 C 
ATOM     21  C   UNL     1      33.680  -5.556 -26.002  0.00  0.00    -0.000 C 
ENDBRANCH  15  16
BRANCH  15  22
ATOM     22  N   UNL     1      32.038  -5.986 -21.248  0.00  0.00    +0.390 N 
ATOM     23  H   UNL     1      31.239  -6.372 -20.743  0.00  0.00    -0.088 HD
ATOM     24  H   UNL     1      31.727  -5.208 -21.830  0.00  0.00    -0.088 HD
ATOM     25  H   UNL     1      32.734  -5.656 -20.580  0.00  0.00    -0.088 HD
ENDBRANCH  15  22
ENDBRANCH  13  15
ENDBRANCH   7  12
BRANCH   6  27
ATOM     26  O   UNL     1      31.686 -15.263 -21.628  0.00  0.00    -0.248 OA
ATOM     27  C   UNL     1      32.548 -14.571 -21.104  0.00  0.00    +0.339 C 
BRANCH  27  28
ATOM     28  O   UNL     1      33.358 -14.932 -20.067  0.00  0.00    -0.407 OA
BRANCH  28  29
ATOM     29  C   UNL     1      34.721 -15.237 -20.404  0.00  0.00    +0.433 C 
BRANCH  29  30
ATOM     30  O   UNL     1      34.989 -16.646 -20.490  0.00  0.00    -0.408 OA
BRANCH  30  32
ATOM     31  O   UNL     1      34.958 -16.563 -22.790  0.00  0.00    -0.250 OA
ATOM     32  C   UNL     1      34.964 -17.196 -21.741  0.00  0.00    +0.319 C 
BRANCH  32  33
ATOM     33  C   UNL     1      34.933 -18.725 -21.651  0.00  0.00    +0.090 C 
ATOM     34  C   UNL     1      36.185 -19.223 -20.918  0.00  0.00    +0.011 C 
ATOM     35  C   UNL     1      33.665 -19.164 -20.907  0.00  0.00    +0.011 C 
ATOM     36  C   UNL     1      34.914 -19.321 -23.067  0.00  0.00    +0.011 C 
ENDBRANCH  32  33
ENDBRANCH  30  32
ENDBRANCH  29  30
ENDBRANCH  28  29
ENDBRANCH  27  28
ENDBRANCH   6  27
TORSDOF 10
ENDMDL
MODEL 3
REMARK VINA RESULT:      -8.1      2.405      9.569
REMARK  Name = 33478
REMARK  10 active torsions:
REMARK  status: ('A' for Active; 'I' for Inactive)
REMARK    1  A    between atoms: C_6  and  C_27
REMARK    2  A    between atoms: C_7  and  N_12
REMARK    3  A    between atoms: C_13  and  C_15
REMARK    4  A    between atoms: C_15  and  C_16
REMARK    5  A    between atoms: C_15  and  N_22
REMARK    6  A    between atoms: C_27  and  O_28
REMARK    7  A    between atoms: O_28  and  C_29
REMARK    8  A    between atoms: C_29  and  O_30
REMARK    9  A    between atoms: O_30  and  C_32
REMARK   10  A    between atoms: C_32  and  C_33
REMARK                            x       y       z     vdW  Elec       q    Type
REMARK                         _______ _______ _______ _____ _____    ______ ____
ROOT
ATOM      1  S   UNL     1      33.696 -13.970 -21.316  0.00  0.00    -0.118 S 
ATOM      2  O   UNL     1      32.970 -14.471 -25.633  0.00  0.00    -0.273 OA
ATOM      3  N   UNL     1      34.198 -14.934 -23.671  0.00  0.00    -0.260 N 
ATOM      4  C   UNL     1      34.646 -13.792 -22.870  0.00  0.00    +0.151 C 
ATOM      5  C   UNL     1      33.694 -15.824 -21.485  0.00  0.00    +0.068 C 
ATOM      6  C   UNL     1      33.559 -16.052 -23.006  0.00  0.00    +0.185 C 
ATOM      7  C   UNL     1      34.043 -12.881 -23.949  0.00  0.00    +0.178 C 
ATOM      8  C   UNL     1      33.637 -14.185 -24.664  0.00  0.00    +0.247 C 
ATOM      9  C   UNL     1      32.491 -16.391 -20.729  0.00  0.00    +0.013 C 
ATOM     10  C   UNL     1      34.997 -16.355 -20.874  0.00  0.00    +0.013 C 
ENDROOT
BRANCH   7  12
ATOM     11  O   UNL     1      33.978 -10.000 -23.999  0.00  0.00    -0.277 OA
ATOM     12  N   UNL     1      32.924 -12.021 -23.574  0.00  0.00    -0.298 N 
ATOM     13  C   UNL     1      32.985 -10.627 -23.630  0.00  0.00    +0.206 C 
ATOM     14  H   UNL     1      32.088 -12.443 -23.268  0.00  0.00    +0.150 HD
BRANCH  13  15
ATOM     15  C   UNL     1      31.697  -9.954 -23.168  0.00  0.00    +0.036 C 
BRANCH  15  16
ATOM     16  C   UNL     1      31.596  -9.964 -21.657  0.00  0.00    -0.034 C 
ATOM     17  C   UNL     1      32.084  -8.886 -20.919  0.00  0.00    -0.006 C 
ATOM     18  C   UNL     1      31.014 -11.050 -21.003  0.00  0.00    -0.006 C 
ATOM     19  C   UNL     1      31.992  -8.895 -19.526  0.00  0.00    -0.000 C 
ATOM     20  C   UNL     1      30.921 -11.059 -19.612  0.00  0.00    -0.000 C 
ATOM     21  C   UNL     1      31.410  -9.982 -18.873  0.00  0.00    -0.000 C 
ENDBRANCH  15  16
BRANCH  15  22
ATOM     22  N   UNL     1      31.678  -8.597 -23.721  0.00  0.00    +0.390 N 
ATOM     23  H   UNL     1      31.762  -8.642 -24.737  0.00  0.00    -0.088 HD
ATOM     24  H   UNL     1      32.459  -8.063 -23.339  0.00  0.00    -0.088 HD
ATOM     25  H   UNL     1      30.800  -8.142 -23.473  0.00  0.00    -0.088 HD
ENDBRANCH  15  22
ENDBRANCH  13  15
ENDBRANCH   7  12
BRANCH   6  27
ATOM     26  O   UNL     1      35.080 -17.314 -24.376  0.00  0.00    -0.248 OA
ATOM     27  C   UNL     1      34.201 -17.299 -23.525  0.00  0.00    +0.339 C 
BRANCH  27  28
ATOM     28  O   UNL     1      33.656 -18.384 -22.903  0.00  0.00    -0.407 OA
BRANCH  28  29
ATOM     29  C   UNL     1      34.581 -19.382 -22.444  0.00  0.00    +0.433 C 
BRANCH  29  30
ATOM     30  O   UNL     1      34.404 -19.734 -21.061  0.00  0.00    -0.408 OA
BRANCH  30  32
ATOM     31  O   UNL     1      36.562 -19.436 -20.321  0.00  0.00    -0.250 OA
ATOM     32  C   UNL     1      35.529 -20.093 -20.375  0.00  0.00    +0.319 C 
BRANCH  32  33
ATOM     33  C   UNL     1      35.326 -21.446 -19.687  0.00  0.00    +0.090 C 
ATOM     34  C   UNL     1      36.232 -21.538 -18.452  0.00  0.00    +0.011 C 
ATOM     35  C   UNL     1      33.853 -21.593 -19.282  0.00  0.00    +0.011 C 
ATOM     36  C   UNL     1      35.692 -22.578 -20.660  0.00  0.00    +0.011 C 
ENDBRANCH  32  33
ENDBRANCH  30  32
ENDBRANCH  29  30
ENDBRANCH  28  29
ENDBRANCH  27  28
ENDBRANCH   6  27
TORSDOF 10
ENDMDL
MODEL 4
REMARK VINA RESULT:      -8.0      2.222     10.088
REMARK  Name = 33478
REMARK  10 active torsions:
REMARK  status: ('A' for Active; 'I' for Inactive)
REMARK    1  A    between atoms: C_6  and  C_27
REMARK    2  A    between atoms: C_7  and  N_12
REMARK    3  A    between atoms: C_13  and  C_15
REMARK    4  A    between atoms: C_15  and  C_16
REMARK    5  A    between atoms: C_15  and  N_22
REMARK    6  A    between atoms: C_27  and  O_28
REMARK    7  A    between atoms: O_28  and  C_29
REMARK    8  A    between atoms: C_29  and  O_30
REMARK    9  A    between atoms: O_30  and  C_32
REMARK   10  A    between atoms: C_32  and  C_33
REMARK                            x       y       z     vdW  Elec       q    Type
REMARK                         _______ _______ _______ _____ _____    ______ ____
ROOT
ATOM      1  S   UNL     1      33.371 -15.102 -24.697  0.00  0.00    -0.118 S 
ATOM      2  O   UNL     1      35.109 -14.228 -20.744  0.00  0.00    -0.273 OA
ATOM      3  N   UNL     1      34.036 -15.686 -22.259  0.00  0.00    -0.260 N 
ATOM      4  C   UNL     1      32.843 -15.185 -22.947  0.00  0.00    +0.151 C 
ATOM      5  C   UNL     1      34.516 -16.551 -24.460  0.00  0.00    +0.068 C 
ATOM      6  C   UNL     1      35.065 -16.353 -23.031  0.00  0.00    +0.185 C 
ATOM      7  C   UNL     1      32.985 -13.899 -22.120  0.00  0.00    +0.178 C 
ATOM      8  C   UNL     1      34.224 -14.570 -21.496  0.00  0.00    +0.247 C 
ATOM      9  C   UNL     1      35.634 -16.477 -25.501  0.00  0.00    +0.013 C 
ATOM     10  C   UNL     1      33.699 -17.835 -24.657  0.00  0.00    +0.013 C 
ENDROOT
BRANCH   7  12
ATOM     11  O   UNL     1      31.345 -11.530 -22.172  0.00  0.00    -0.277 OA
ATOM     12  N   UNL     1      33.263 -12.653 -22.831  0.00  0.00    -0.298 N 
ATOM     13  C   UNL     1      32.405 -11.553 -22.798  0.00  0.00    +0.206 C 
ATOM     14  H   UNL     1      34.093 -12.587 -23.356  0.00  0.00    +0.150 HD
BRANCH  13  15
ATOM     15  C   UNL     1      32.905 -10.381 -23.636  0.00  0.00    +0.036 C 
BRANCH  15  16
ATOM     16  C   UNL     1      32.435  -9.064 -23.055  0.00  0.00    -0.034 C 
ATOM     17  C   UNL     1      31.520  -8.279 -23.757  0.00  0.00    -0.006 C 
ATOM     18  C   UNL     1      32.917  -8.635 -21.818  0.00  0.00    -0.006 C 
ATOM     19  C   UNL     1      31.088  -7.064 -23.222  0.00  0.00    -0.000 C 
ATOM     20  C   UNL     1      32.484  -7.422 -21.283  0.00  0.00    -0.000 C 
ATOM     21  C   UNL     1      31.570  -6.637 -21.985  0.00  0.00    -0.000 C 
ENDBRANCH  15  16
BRANCH  15  22
ATOM     22  N   UNL     1      34.366 -10.472 -23.705  0.00  0.00    +0.390 N 
ATOM     23  H   UNL     1      34.671 -10.329 -24.668  0.00  0.00    -0.088 HD
ATOM     24  H   UNL     1      34.665 -11.394 -23.387  0.00  0.00    -0.088 HD
ATOM     25  H   UNL     1      34.779  -9.756 -23.108  0.00  0.00    -0.088 HD
ENDBRANCH  15  22
ENDBRANCH  13  15
ENDBRANCH   7  12
BRANCH   6  27
ATOM     26  O   UNL     1      36.425 -18.270 -22.522  0.00  0.00    -0.248 OA
ATOM     27  C   UNL     1      35.418 -17.610 -22.302  0.00  0.00    +0.339 C 
BRANCH  27  28
ATOM     28  O   UNL     1      34.456 -17.884 -21.375  0.00  0.00    -0.407 OA
BRANCH  28  29
ATOM     29  C   UNL     1      33.983 -19.241 -21.333  0.00  0.00    +0.433 C 
BRANCH  29  30
ATOM     30  O   UNL     1      34.530 -20.004 -20.245  0.00  0.00    -0.408 OA
BRANCH  30  32
ATOM     31  O   UNL     1      32.474 -20.732 -19.510  0.00  0.00    -0.250 OA
ATOM     32  C   UNL     1      33.683 -20.885 -19.634  0.00  0.00    +0.319 C 
BRANCH  32  33
ATOM     33  C   UNL     1      34.461 -22.097 -19.110  0.00  0.00    +0.090 C 
ATOM     34  C   UNL     1      33.774 -22.646 -17.853  0.00  0.00    +0.011 C 
ATOM     35  C   UNL     1      34.520 -23.172 -20.203  0.00  0.00    +0.011 C 
ATOM     36  C   UNL     1      35.893 -21.671 -18.751  0.00  0.00    +0.011 C 
ENDBRANCH  32  33
ENDBRANCH  30  32
ENDBRANCH  29  30
ENDBRANCH  28  29
ENDBRANCH  27  28
ENDBRANCH   6  27
TORSDOF 10
ENDMDL
MODEL 5
REMARK VINA RESULT:      -8.0      2.099      2.846
REMARK  Name = 33478
REMARK  10 active torsions:
REMARK  status: ('A' for Active; 'I' for Inactive)
REMARK    1  A    between atoms: C_6  and  C_27
REMARK    2  A    between atoms: C_7  and  N_12
REMARK    3  A    between atoms: C_13  and  C_15
REMARK    4  A    between atoms: C_15  and  C_16
REMARK    5  A    between atoms: C_15  and  N_22
REMARK    6  A    between atoms: C_27  and  O_28
REMARK    7  A    between atoms: O_28  and  C_29
REMARK    8  A    between atoms: C_29  and  O_30
REMARK    9  A    between atoms: O_30  and  C_32
REMARK   10  A    between atoms: C_32  and  C_33
REMARK                            x       y       z     vdW  Elec       q    Type
REMARK                         _______ _______ _______ _____ _____    ______ ____
ROOT
ATOM      1  S   UNL     1      34.868 -17.840 -23.982  0.00  0.00    -0.118 S 
ATOM      2  O   UNL     1      32.496 -15.616 -21.009  0.00  0.00    -0.273 OA
ATOM      3  N   UNL     1      34.089 -15.696 -22.749  0.00  0.00    -0.260 N 
ATOM      4  C   UNL     1      35.183 -16.662 -22.618  0.00  0.00    +0.151 C 
ATOM      5  C   UNL     1      34.124 -16.490 -25.027  0.00  0.00    +0.068 C 
ATOM      6  C   UNL     1      33.373 -15.609 -24.005  0.00  0.00    +0.185 C 
ATOM      7  C   UNL     1      34.610 -17.028 -21.242  0.00  0.00    +0.178 C 
ATOM      8  C   UNL     1      33.524 -15.975 -21.539  0.00  0.00    +0.247 C 
ATOM      9  C   UNL     1      33.160 -17.116 -26.037  0.00  0.00    +0.013 C 
ATOM     10  C   UNL     1      35.267 -15.779 -25.763  0.00  0.00    +0.013 C 
ENDROOT
BRANCH   7  12
ATOM     11  O   UNL     1      36.143 -19.370 -20.556  0.00  0.00    -0.277 OA
ATOM     12  N   UNL     1      34.103 -18.384 -21.048  0.00  0.00    -0.298 N 
ATOM     13  C   UNL     1      34.926 -19.462 -20.716  0.00  0.00    +0.206 C 
ATOM     14  H   UNL     1      33.137 -18.545 -21.157  0.00  0.00    +0.150 HD
BRANCH  13  15
ATOM     15  C   UNL     1      34.164 -20.777 -20.589  0.00  0.00    +0.036 C 
BRANCH  15  16
ATOM     16  C   UNL     1      34.557 -21.508 -19.323  0.00  0.00    -0.034 C 
ATOM     17  C   UNL     1      35.871 -21.446 -18.861  0.00  0.00    -0.006 C 
ATOM     18  C   UNL     1      33.604 -22.243 -18.618  0.00  0.00    -0.006 C 
ATOM     19  C   UNL     1      36.233 -22.121 -17.694  0.00  0.00    -0.000 C 
ATOM     20  C   UNL     1      33.965 -22.917 -17.451  0.00  0.00    -0.000 C 
ATOM     21  C   UNL     1      35.280 -22.856 -16.990  0.00  0.00    -0.000 C 
ENDBRANCH  15  16
BRANCH  15  22
ATOM     22  N   UNL     1      32.732 -20.470 -20.636  0.00  0.00    +0.390 N 
ATOM     23  H   UNL     1      32.600 -19.458 -20.632  0.00  0.00    -0.088 HD
ATOM     24  H   UNL     1      32.270 -20.876 -19.822  0.00  0.00    -0.088 HD
ATOM     25  H   UNL     1      32.328 -20.862 -21.486  0.00  0.00    -0.088 HD
ENDBRANCH  15  22
ENDBRANCH  13  15
ENDBRANCH   7  12
BRANCH   6  27
ATOM     26  O   UNL     1      32.612 -13.725 -25.291  0.00  0.00    -0.248 OA
ATOM     27  C   UNL     1      33.276 -14.160 -24.360  0.00  0.00    +0.339 C 
BRANCH  27  28
ATOM     28  O   UNL     1      34.031 -13.427 -23.491  0.00  0.00    -0.407 OA
BRANCH  28  29
ATOM     29  C   UNL     1      34.140 -12.023 -23.774  0.00  0.00    +0.433 C 
BRANCH  29  30
ATOM     30  O   UNL     1      33.063 -11.244 -23.228  0.00  0.00    -0.408 OA
BRANCH  30  32
ATOM     31  O   UNL     1      34.090  -9.295 -23.895  0.00  0.00    -0.250 OA
ATOM     32  C   UNL     1      33.196  -9.886 -23.302  0.00  0.00    +0.319 C 
BRANCH  32  33
ATOM     33  C   UNL     1      32.069  -9.196 -22.526  0.00  0.00    +0.090 C 
ATOM     34  C   UNL     1      31.182 -10.254 -21.857  0.00  0.00    +0.011 C 
ATOM     35  C   UNL     1      32.677  -8.260 -21.473  0.00  0.00    +0.011 C 
ATOM     36  C   UNL     1      31.211  -8.367 -23.495  0.00  0.00    +0.011 C 
ENDBRANCH  32  33
ENDBRANCH  30  32
ENDBRANCH  29  30
ENDBRANCH  28  29
ENDBRANCH  27  28
ENDBRANCH   6  27
TORSDOF 10
ENDMDL
MODEL 6
REMARK VINA RESULT:      -7.6      2.271      3.691
REMARK  Name = 33478
REMARK  10 active torsions:
REMARK  status: ('A' for Active; 'I' for Inactive)
REMARK    1  A    between atoms: C_6  and  C_27
REMARK    2  A    between atoms: C_7  and  N_12
REMARK    3  A    between atoms: C_13  and  C_15
REMARK    4  A    between atoms: C_15  and  C_16
REMARK    5  A    between atoms: C_15  and  N_22
REMARK    6  A    between atoms: C_27  and  O_28
REMARK    7  A    between atoms: O_28  and  C_29
REMARK    8  A    between atoms: C_29  and  O_30
REMARK    9  A    between atoms: O_30  and  C_32
REMARK   10  A    between atoms: C_32  and  C_33
REMARK                            x       y       z     vdW  Elec       q    Type
REMARK                         _______ _______ _______ _____ _____    ______ ____
ROOT
ATOM      1  S   UNL     1      31.872 -13.335 -20.844  0.00  0.00    -0.118 S 
ATOM      2  O   UNL     1      34.555 -11.964 -24.058  0.00  0.00    -0.273 OA
ATOM      3  N   UNL     1      32.472 -11.942 -22.948  0.00  0.00    -0.260 N 
ATOM      4  C   UNL     1      31.842 -13.236 -22.671  0.00  0.00    +0.151 C 
ATOM      5  C   UNL     1      31.715 -11.485 -20.703  0.00  0.00    +0.068 C 
ATOM      6  C   UNL     1      32.549 -10.956 -21.889  0.00  0.00    +0.185 C 
ATOM      7  C   UNL     1      33.010 -13.893 -23.419  0.00  0.00    +0.178 C 
ATOM      8  C   UNL     1      33.542 -12.460 -23.619  0.00  0.00    +0.247 C 
ATOM      9  C   UNL     1      32.304 -11.037 -19.364  0.00  0.00    +0.013 C 
ATOM     10  C   UNL     1      30.223 -11.132 -20.765  0.00  0.00    +0.013 C 
ENDROOT
BRANCH   7  12
ATOM     11  O   UNL     1      33.802 -16.575 -24.115  0.00  0.00    -0.277 OA
ATOM     12  N   UNL     1      33.902 -14.770 -22.664  0.00  0.00    -0.298 N 
ATOM     13  C   UNL     1      34.229 -16.061 -23.081  0.00  0.00    +0.206 C 
ATOM     14  H   UNL     1      34.289 -14.435 -21.822  0.00  0.00    +0.150 HD
BRANCH  13  15
ATOM     15  C   UNL     1      35.159 -16.784 -22.112  0.00  0.00    +0.036 C 
BRANCH  15  16
ATOM     16  C   UNL     1      34.468 -17.980 -21.493  0.00  0.00    -0.034 C 
ATOM     17  C   UNL     1      35.188 -19.147 -21.237  0.00  0.00    -0.006 C 
ATOM     18  C   UNL     1      33.111 -17.916 -21.177  0.00  0.00    -0.006 C 
ATOM     19  C   UNL     1      34.551 -20.250 -20.667  0.00  0.00    -0.000 C 
ATOM     20  C   UNL     1      32.474 -19.017 -20.606  0.00  0.00    -0.000 C 
ATOM     21  C   UNL     1      33.194 -20.184 -20.351  0.00  0.00    -0.000 C 
ENDBRANCH  15  16
BRANCH  15  22
ATOM     22  N   UNL     1      36.370 -17.157 -22.849  0.00  0.00    +0.390 N 
ATOM     23  H   UNL     1      36.610 -16.415 -23.508  0.00  0.00    -0.088 HD
ATOM     24  H   UNL     1      36.204 -18.024 -23.360  0.00  0.00    -0.088 HD
ATOM     25  H   UNL     1      37.139 -17.290 -22.193  0.00  0.00    -0.088 HD
ENDBRANCH  15  22
ENDBRANCH  13  15
ENDBRANCH   7  12
BRANCH   6  27
ATOM     26  O   UNL     1      31.211  -9.551 -23.310  0.00  0.00    -0.248 OA
ATOM     27  C   UNL     1      32.089  -9.654 -22.464  0.00  0.00    +0.339 C 
BRANCH  27  28
ATOM     28  O   UNL     1      32.793  -8.633 -21.898  0.00  0.00    -0.407 OA
BRANCH  28  29
ATOM     29  C   UNL     1      32.016  -7.569 -21.324  0.00  0.00    +0.433 C 
BRANCH  29  30
ATOM     30  O   UNL     1      32.279  -6.285 -21.914  0.00  0.00    -0.408 OA
BRANCH  30  32
ATOM     31  O   UNL     1      30.240  -5.237 -22.117  0.00  0.00    -0.250 OA
ATOM     32  C   UNL     1      31.253  -5.715 -22.614  0.00  0.00    +0.319 C 
BRANCH  32  33
ATOM     33  C   UNL     1      31.540  -5.764 -24.117  0.00  0.00    +0.090 C 
ATOM     34  C   UNL     1      30.663  -6.838 -24.774  0.00  0.00    +0.011 C 
ATOM     35  C   UNL     1      31.256  -4.388 -24.734  0.00  0.00    +0.011 C 
ATOM     36  C   UNL     1      33.018  -6.119 -24.347  0.00  0.00    +0.011 C 
ENDBRANCH  32  33
ENDBRANCH  30  32
ENDBRANCH  29  30
ENDBRANCH  28  29
ENDBRANCH  27  28
ENDBRANCH   6  27
TORSDOF 10
ENDMDL
MODEL 7
REMARK VINA RESULT:      -7.6      6.622     10.118
REMARK  Name = 33478
REMARK  10 active torsions:
REMARK  status: ('A' for Active; 'I' for Inactive)
REMARK    1  A    between atoms: C_6  and  C_27
REMARK    2  A    between atoms: C_7  and  N_12
REMARK    3  A    between atoms: C_13  and  C_15
REMARK    4  A    between atoms: C_15  and  C_16
REMARK    5  A    between atoms: C_15  and  N_22
REMARK    6  A    between atoms: C_27  and  O_28
REMARK    7  A    between atoms: O_28  and  C_29
REMARK    8  A    between atoms: C_29  and  O_30
REMARK    9  A    between atoms: O_30  and  C_32
REMARK   10  A    between atoms: C_32  and  C_33
REMARK                            x       y       z     vdW  Elec       q    Type
REMARK                         _______ _______ _______ _____ _____    ______ ____
ROOT
ATOM      1  S   UNL     1      32.819 -23.386 -17.889  0.00  0.00    -0.118 S 
ATOM      2  O   UNL     1      35.606 -21.997 -14.771  0.00  0.00    -0.273 OA
ATOM      3  N   UNL     1      35.170 -23.000 -16.863  0.00  0.00    -0.260 N 
ATOM      4  C   UNL     1      34.189 -24.088 -16.898  0.00  0.00    +0.151 C 
ATOM      5  C   UNL     1      34.013 -22.358 -18.881  0.00  0.00    +0.068 C 
ATOM      6  C   UNL     1      35.083 -21.942 -17.848  0.00  0.00    +0.185 C 
ATOM      7  C   UNL     1      34.079 -23.952 -15.373  0.00  0.00    +0.178 C 
ATOM      8  C   UNL     1      35.118 -22.822 -15.511  0.00  0.00    +0.247 C 
ATOM      9  C   UNL     1      33.276 -21.140 -19.441  0.00  0.00    +0.013 C 
ATOM     10  C   UNL     1      34.541 -23.226 -20.031  0.00  0.00    +0.013 C 
ENDROOT
BRANCH   7  12
ATOM     11  O   UNL     1      32.198 -25.592 -13.931  0.00  0.00    -0.277 OA
ATOM     12  N   UNL     1      32.798 -23.533 -14.812  0.00  0.00    -0.298 N 
ATOM     13  C   UNL     1      31.948 -24.402 -14.125  0.00  0.00    +0.206 C 
ATOM     14  H   UNL     1      32.521 -22.594 -14.922  0.00  0.00    +0.150 HD
BRANCH  13  15
ATOM     15  C   UNL     1      30.662 -23.732 -13.655  0.00  0.00    +0.036 C 
BRANCH  15  16
ATOM     16  C   UNL     1      29.696 -23.550 -14.807  0.00  0.00    -0.034 C 
ATOM     17  C   UNL     1      29.372 -24.632 -15.623  0.00  0.00    -0.006 C 
ATOM     18  C   UNL     1      29.130 -22.298 -15.051  0.00  0.00    -0.006 C 
ATOM     19  C   UNL     1      28.483 -24.464 -16.686  0.00  0.00    -0.000 C 
ATOM     20  C   UNL     1      28.240 -22.130 -16.112  0.00  0.00    -0.000 C 
ATOM     21  C   UNL     1      27.917 -23.212 -16.930  0.00  0.00    -0.000 C 
ENDBRANCH  15  16
BRANCH  15  22
ATOM     22  N   UNL     1      30.098 -24.551 -12.578  0.00  0.00    +0.390 N 
ATOM     23  H   UNL     1      30.830 -24.775 -11.903  0.00  0.00    -0.088 HD
ATOM     24  H   UNL     1      29.721 -25.415 -12.969  0.00  0.00    -0.088 HD
ATOM     25  H   UNL     1      29.353 -24.035 -12.113  0.00  0.00    -0.088 HD
ENDBRANCH  15  22
ENDBRANCH  13  15
ENDBRANCH   7  12
BRANCH   6  27
ATOM     26  O   UNL     1      37.487 -21.968 -17.778  0.00  0.00    -0.248 OA
ATOM     27  C   UNL     1      36.458 -21.737 -18.399  0.00  0.00    +0.339 C 
BRANCH  27  28
ATOM     28  O   UNL     1      36.371 -21.267 -19.677  0.00  0.00    -0.407 OA
BRANCH  28  29
ATOM     29  C   UNL     1      36.978 -19.988 -19.924  0.00  0.00    +0.433 C 
BRANCH  29  30
ATOM     30  O   UNL     1      36.064 -19.013 -20.452  0.00  0.00    -0.408 OA
BRANCH  30  32
ATOM     31  O   UNL     1      37.433 -18.518 -22.235  0.00  0.00    -0.250 OA
ATOM     32  C   UNL     1      36.325 -18.552 -21.712  0.00  0.00    +0.319 C 
BRANCH  32  33
ATOM     33  C   UNL     1      35.035 -18.070 -22.382  0.00  0.00    +0.090 C 
ATOM     34  C   UNL     1      34.687 -18.994 -23.556  0.00  0.00    +0.011 C 
ATOM     35  C   UNL     1      33.899 -18.062 -21.350  0.00  0.00    +0.011 C 
ATOM     36  C   UNL     1      35.236 -16.642 -22.914  0.00  0.00    +0.011 C 
ENDBRANCH  32  33
ENDBRANCH  30  32
ENDBRANCH  29  30
ENDBRANCH  28  29
ENDBRANCH  27  28
ENDBRANCH   6  27
TORSDOF 10
ENDMDL
MODEL 8
REMARK VINA RESULT:      -7.4      3.947      6.162
REMARK  Name = 33478
REMARK  10 active torsions:
REMARK  status: ('A' for Active; 'I' for Inactive)
REMARK    1  A    between atoms: C_6  and  C_27
REMARK    2  A    between atoms: C_7  and  N_12
REMARK    3  A    between atoms: C_13  and  C_15
REMARK    4  A    between atoms: C_15  and  C_16
REMARK    5  A    between atoms: C_15  and  N_22
REMARK    6  A    between atoms: C_27  and  O_28
REMARK    7  A    between atoms: O_28  and  C_29
REMARK    8  A    between atoms: C_29  and  O_30
REMARK    9  A    between atoms: O_30  and  C_32
REMARK   10  A    between atoms: C_32  and  C_33
REMARK                            x       y       z     vdW  Elec       q    Type
REMARK                         _______ _______ _______ _____ _____    ______ ____
ROOT
ATOM      1  S   UNL     1      31.840 -10.629 -22.496  0.00  0.00    -0.118 S 
ATOM      2  O   UNL     1      35.817 -10.044 -24.300  0.00  0.00    -0.273 OA
ATOM      3  N   UNL     1      33.544  -9.454 -24.058  0.00  0.00    -0.260 N 
ATOM      4  C   UNL     1      32.552 -10.525 -24.178  0.00  0.00    +0.151 C 
ATOM      5  C   UNL     1      32.111  -8.806 -22.228  0.00  0.00    +0.068 C 
ATOM      6  C   UNL     1      33.447  -8.526 -22.950  0.00  0.00    +0.185 C 
ATOM      7  C   UNL     1      33.714 -11.477 -24.497  0.00  0.00    +0.178 C 
ATOM      8  C   UNL     1      34.623 -10.244 -24.330  0.00  0.00    +0.247 C 
ATOM      9  C   UNL     1      32.223  -8.536 -20.726  0.00  0.00    +0.013 C 
ATOM     10  C   UNL     1      30.903  -8.059 -22.808  0.00  0.00    +0.013 C 
ENDROOT
BRANCH   7  12
ATOM     11  O   UNL     1      32.595 -14.133 -24.548  0.00  0.00    -0.277 OA
ATOM     12  N   UNL     1      33.988 -12.564 -23.561  0.00  0.00    -0.298 N 
ATOM     13  C   UNL     1      33.395 -13.824 -23.665  0.00  0.00    +0.206 C 
ATOM     14  H   UNL     1      34.620 -12.401 -22.823  0.00  0.00    +0.150 HD
BRANCH  13  15
ATOM     15  C   UNL     1      33.825 -14.779 -22.557  0.00  0.00    +0.036 C 
BRANCH  15  16
ATOM     16  C   UNL     1      34.256 -16.112 -23.131  0.00  0.00    -0.034 C 
ATOM     17  C   UNL     1      34.585 -17.166 -22.279  0.00  0.00    -0.006 C 
ATOM     18  C   UNL     1      34.323 -16.287 -24.514  0.00  0.00    -0.006 C 
ATOM     19  C   UNL     1      34.983 -18.394 -22.809  0.00  0.00    -0.000 C 
ATOM     20  C   UNL     1      34.719 -17.515 -25.043  0.00  0.00    -0.000 C 
ATOM     21  C   UNL     1      35.049 -18.568 -24.191  0.00  0.00    -0.000 C 
ENDBRANCH  15  16
BRANCH  15  22
ATOM     22  N   UNL     1      34.894 -14.127 -21.794  0.00  0.00    +0.390 N 
ATOM     23  H   UNL     1      34.495 -13.661 -20.979  0.00  0.00    -0.088 HD
ATOM     24  H   UNL     1      35.362 -13.438 -22.385  0.00  0.00    -0.088 HD
ATOM     25  H   UNL     1      35.569 -14.828 -21.489  0.00  0.00    -0.088 HD
ENDBRANCH  15  22
ENDBRANCH  13  15
ENDBRANCH   7  12
BRANCH   6  27
ATOM     26  O   UNL     1      33.191  -6.135 -22.957  0.00  0.00    -0.248 OA
ATOM     27  C   UNL     1      33.591  -7.148 -23.514  0.00  0.00    +0.339 C 
BRANCH  27  28
ATOM     28  O   UNL     1      34.230  -7.213 -24.717  0.00  0.00    -0.407 OA
BRANCH  28  29
ATOM     29  C   UNL     1      34.355  -5.976 -25.436  0.00  0.00    +0.433 C 
BRANCH  29  30
ATOM     30  O   UNL     1      33.206  -5.661 -26.239  0.00  0.00    -0.408 OA
BRANCH  30  32
ATOM     31  O   UNL     1      32.139  -3.984 -25.078  0.00  0.00    -0.250 OA
ATOM     32  C   UNL     1      32.684  -4.406 -26.091  0.00  0.00    +0.319 C 
BRANCH  32  33
ATOM     33  C   UNL     1      32.868  -3.597 -27.378  0.00  0.00    +0.090 C 
ATOM     34  C   UNL     1      32.953  -4.548 -28.578  0.00  0.00    +0.011 C 
ATOM     35  C   UNL     1      31.687  -2.630 -27.542  0.00  0.00    +0.011 C 
ATOM     36  C   UNL     1      34.169  -2.784 -27.292  0.00  0.00    +0.011 C 
ENDBRANCH  32  33
ENDBRANCH  30  32
ENDBRANCH  29  30
ENDBRANCH  28  29
ENDBRANCH  27  28
ENDBRANCH   6  27
TORSDOF 10
ENDMDL
MODEL 9
REMARK VINA RESULT:      -7.2      3.414      5.806
REMARK  Name = 33478
REMARK  10 active torsions:
REMARK  status: ('A' for Active; 'I' for Inactive)
REMARK    1  A    between atoms: C_6  and  C_27
REMARK    2  A    between atoms: C_7  and  N_12
REMARK    3  A    between atoms: C_13  and  C_15
REMARK    4  A    between atoms: C_15  and  C_16
REMARK    5  A    between atoms: C_15  and  N_22
REMARK    6  A    between atoms: C_27  and  O_28
REMARK    7  A    between atoms: O_28  and  C_29
REMARK    8  A    between atoms: C_29  and  O_30
REMARK    9  A    between atoms: O_30  and  C_32
REMARK   10  A    between atoms: C_32  and  C_33
REMARK                            x       y       z     vdW  Elec       q    Type
REMARK                         _______ _______ _______ _____ _____    ______ ____
ROOT
ATOM      1  S   UNL     1      31.709 -10.838 -22.541  0.00  0.00    -0.118 S 
ATOM      2  O   UNL     1      35.716  -9.876 -24.102  0.00  0.00    -0.273 OA
ATOM      3  N   UNL     1      33.393  -9.477 -23.969  0.00  0.00    -0.260 N 
ATOM      4  C   UNL     1      32.499 -10.620 -24.177  0.00  0.00    +0.151 C 
ATOM      5  C   UNL     1      31.817  -9.010 -22.203  0.00  0.00    +0.068 C 
ATOM      6  C   UNL     1      33.162  -8.600 -22.840  0.00  0.00    +0.185 C 
ATOM      7  C   UNL     1      33.749 -11.464 -24.459  0.00  0.00    +0.178 C 
ATOM      8  C   UNL     1      34.545 -10.169 -24.204  0.00  0.00    +0.247 C 
ATOM      9  C   UNL     1      31.826  -8.784 -20.689  0.00  0.00    +0.013 C 
ATOM     10  C   UNL     1      30.585  -8.341 -22.827  0.00  0.00    +0.013 C 
ENDROOT
BRANCH   7  12
ATOM     11  O   UNL     1      32.473 -14.046 -24.344  0.00  0.00    -0.277 OA
ATOM     12  N   UNL     1      34.060 -12.558 -23.543  0.00  0.00    -0.298 N 
ATOM     13  C   UNL     1      33.384 -13.780 -23.561  0.00  0.00    +0.206 C 
ATOM     14  H   UNL     1      34.780 -12.428 -22.883  0.00  0.00    +0.150 HD
BRANCH  13  15
ATOM     15  C   UNL     1      33.877 -14.750 -22.493  0.00  0.00    +0.036 C 
BRANCH  15  16
ATOM     16  C   UNL     1      34.293 -16.068 -23.112  0.00  0.00    -0.034 C 
ATOM     17  C   UNL     1      34.355 -16.198 -24.499  0.00  0.00    -0.006 C 
ATOM     18  C   UNL     1      34.615 -17.152 -22.295  0.00  0.00    -0.006 C 
ATOM     19  C   UNL     1      34.737 -17.413 -25.070  0.00  0.00    -0.000 C 
ATOM     20  C   UNL     1      34.998 -18.366 -22.866  0.00  0.00    -0.000 C 
ATOM     21  C   UNL     1      35.059 -18.496 -24.253  0.00  0.00    -0.000 C 
ENDBRANCH  15  16
BRANCH  15  22
ATOM     22  N   UNL     1      34.975 -14.101 -21.771  0.00  0.00    +0.390 N 
ATOM     23  H   UNL     1      35.150 -14.598 -20.897  0.00  0.00    -0.088 HD
ATOM     24  H   UNL     1      34.723 -13.134 -21.567  0.00  0.00    -0.088 HD
ATOM     25  H   UNL     1      35.817 -14.119 -22.346  0.00  0.00    -0.088 HD
ENDBRANCH  15  22
ENDBRANCH  13  15
ENDBRANCH   7  12
BRANCH   6  27
ATOM     26  O   UNL     1      33.420  -6.902 -24.524  0.00  0.00    -0.248 OA
ATOM     27  C   UNL     1      33.224  -7.196 -23.353  0.00  0.00    +0.339 C 
BRANCH  27  28
ATOM     28  O   UNL     1      33.026  -6.326 -22.321  0.00  0.00    -0.407 OA
BRANCH  28  29
ATOM     29  C   UNL     1      31.826  -5.538 -22.376  0.00  0.00    +0.433 C 
BRANCH  29  30
ATOM     30  O   UNL     1      31.984  -4.304 -23.096  0.00  0.00    -0.408 OA
BRANCH  30  32
ATOM     31  O   UNL     1      30.488  -5.013 -24.695  0.00  0.00    -0.250 OA
ATOM     32  C   UNL     1      31.240  -4.162 -24.233  0.00  0.00    +0.319 C 
BRANCH  32  33
ATOM     33  C   UNL     1      31.483  -2.787 -24.862  0.00  0.00    +0.090 C 
ATOM     34  C   UNL     1      32.505  -2.914 -26.000  0.00  0.00    +0.011 C 
ATOM     35  C   UNL     1      30.155  -2.230 -25.394  0.00  0.00    +0.011 C 
ATOM     36  C   UNL     1      32.037  -1.827 -23.799  0.00  0.00    +0.011 C 
ENDBRANCH  32  33
ENDBRANCH  30  32
ENDBRANCH  29  30
ENDBRANCH  28  29
ENDBRANCH  27  28
ENDBRANCH   6  27
TORSDOF 10
ENDMDL
