MODEL 1
REMARK VINA RESULT:     -10.6      0.000      0.000
REMARK  Name = 24963035
REMARK  7 active torsions:
REMARK  status: ('A' for Active; 'I' for Inactive)
REMARK    1  A    between atoms: N_2  and  C_19
REMARK    2  A    between atoms: C_3  and  C_7
REMARK    3  A    between atoms: C_11  and  C_12
REMARK    4  A    between atoms: C_12  and  O_13
REMARK    5  A    between atoms: O_13  and  C_14
REMARK    6  A    between atoms: C_19  and  C_20
REMARK    7  A    between atoms: C_25  and  C_28
REMARK                            x       y       z     vdW  Elec       q    Type
REMARK                         _______ _______ _______ _____ _____    ______ ____
ROOT
ATOM      1  O   UNL     1      34.149 -16.209 -23.718  0.00  0.00    -0.273 OA
ATOM      2  N   UNL     1      34.990 -17.285 -21.833  0.00  0.00    -0.299 N 
ATOM      3  C   UNL     1      34.566 -16.188 -22.563  0.00  0.00    +0.241 C 
ATOM      4  H   UNL     1      35.305 -17.141 -20.911  0.00  0.00    +0.150 HD
ENDROOT
BRANCH   3   7
ATOM      5  O   UNL     1      34.212 -13.426 -24.190  0.00  0.00    -0.272 OA
ATOM      6  N   UNL     1      33.468 -14.127 -22.114  0.00  0.00    -0.271 N 
ATOM      7  C   UNL     1      34.644 -14.917 -21.773  0.00  0.00    +0.152 C 
ATOM      8  C   UNL     1      34.519 -15.171 -20.275  0.00  0.00    +0.031 C 
ATOM      9  C   UNL     1      33.010 -15.163 -20.040  0.00  0.00    +0.024 C 
ATOM     10  C   UNL     1      32.510 -14.106 -21.012  0.00  0.00    +0.094 C 
ATOM     11  C   UNL     1      33.383 -13.381 -23.279  0.00  0.00    +0.256 C 
BRANCH  11  12
ATOM     12  C   UNL     1      32.175 -12.486 -23.392  0.00  0.00    +0.227 C 
BRANCH  12  13
ATOM     13  O   UNL     1      32.492 -11.295 -22.715  0.00  0.00    -0.347 OA
BRANCH  13  14
ATOM     14  C   UNL     1      31.331 -10.543 -22.382  0.00  0.00    +0.116 C 
ATOM     15  C   UNL     1      31.746  -9.184 -21.842  0.00  0.00    +0.030 C 
ATOM     16  C   UNL     1      30.610 -11.176 -21.202  0.00  0.00    +0.030 C 
ATOM     17  C   UNL     1      32.136  -9.452 -20.389  0.00  0.00    +0.003 C 
ATOM     18  C   UNL     1      31.431 -10.747 -19.989  0.00  0.00    +0.003 C 
ENDBRANCH  13  14
ENDBRANCH  12  13
ENDBRANCH  11  12
ENDBRANCH   3   7
BRANCH   2  19
ATOM     19  C   UNL     1      34.991 -18.632 -22.359  0.00  0.00    +0.116 C 
BRANCH  19  20
ATOM     20  C   UNL     1      34.613 -19.642 -21.315  0.00  0.00    -0.003 C 
ATOM     21  C   UNL     1      33.277 -19.795 -20.942  0.00  0.00    -0.003 C 
ATOM     22  C   UNL     1      35.599 -20.427 -20.716  0.00  0.00    -0.003 C 
ATOM     23  C   UNL     1      32.927 -20.734 -19.972  0.00  0.00    +0.002 C 
ATOM     24  C   UNL     1      35.248 -21.365 -19.745  0.00  0.00    +0.002 C 
ATOM     25  C   UNL     1      33.912 -21.519 -19.374  0.00  0.00    +0.031 C 
BRANCH  25  28
ATOM     26  N   UNL     1      32.222 -22.675 -17.969  0.00  0.00    -0.343 N 
ATOM     27  N   UNL     1      34.484 -23.234 -17.789  0.00  0.00    -0.285 NA
ATOM     28  C   UNL     1      33.548 -22.496 -18.361  0.00  0.00    +0.117 C 
ATOM     29  H   UNL     1      31.997 -23.343 -17.282  0.00  0.00    +0.144 HD
ATOM     30  H   UNL     1      31.510 -22.133 -18.380  0.00  0.00    +0.144 HD
ATOM     31  H   UNL     1      34.238 -23.896 -17.103  0.00  0.00    +0.188 HD
ENDBRANCH  25  28
ENDBRANCH  19  20
ENDBRANCH   2  19
TORSDOF 7
ENDMDL
MODEL 2
REMARK VINA RESULT:     -10.6      7.148     10.664
REMARK  Name = 24963035
REMARK  7 active torsions:
REMARK  status: ('A' for Active; 'I' for Inactive)
REMARK    1  A    between atoms: N_2  and  C_19
REMARK    2  A    between atoms: C_3  and  C_7
REMARK    3  A    between atoms: C_11  and  C_12
REMARK    4  A    between atoms: C_12  and  O_13
REMARK    5  A    between atoms: O_13  and  C_14
REMARK    6  A    between atoms: C_19  and  C_20
REMARK    7  A    between atoms: C_25  and  C_28
REMARK                            x       y       z     vdW  Elec       q    Type
REMARK                         _______ _______ _______ _____ _____    ______ ____
ROOT
ATOM      1  O   UNL     1      35.327 -24.018 -12.876  0.00  0.00    -0.273 OA
ATOM      2  N   UNL     1      33.641 -24.854 -14.246  0.00  0.00    -0.299 N 
ATOM      3  C   UNL     1      34.952 -24.562 -13.912  0.00  0.00    +0.241 C 
ATOM      4  H   UNL     1      33.465 -25.294 -15.109  0.00  0.00    +0.150 HD
ENDROOT
BRANCH   3   7
ATOM      5  O   UNL     1      34.799 -23.084 -16.774  0.00  0.00    -0.272 OA
ATOM      6  N   UNL     1      36.574 -23.818 -15.484  0.00  0.00    -0.271 N 
ATOM      7  C   UNL     1      35.920 -25.011 -14.964  0.00  0.00    +0.152 C 
ATOM      8  C   UNL     1      37.051 -25.847 -14.374  0.00  0.00    +0.031 C 
ATOM      9  C   UNL     1      38.080 -24.801 -13.950  0.00  0.00    +0.024 C 
ATOM     10  C   UNL     1      37.959 -23.735 -15.028  0.00  0.00    +0.094 C 
ATOM     11  C   UNL     1      35.973 -22.983 -16.414  0.00  0.00    +0.256 C 
BRANCH  11  12
ATOM     12  C   UNL     1      36.852 -21.896 -16.977  0.00  0.00    +0.227 C 
BRANCH  12  13
ATOM     13  O   UNL     1      36.071 -21.187 -17.907  0.00  0.00    -0.347 OA
BRANCH  13  14
ATOM     14  C   UNL     1      36.255 -21.664 -19.234  0.00  0.00    +0.116 C 
ATOM     15  C   UNL     1      36.725 -20.522 -20.122  0.00  0.00    +0.030 C 
ATOM     16  C   UNL     1      34.917 -22.049 -19.849  0.00  0.00    +0.030 C 
ATOM     17  C   UNL     1      35.452 -19.743 -20.449  0.00  0.00    +0.003 C 
ATOM     18  C   UNL     1      34.290 -20.714 -20.244  0.00  0.00    +0.003 C 
ENDBRANCH  13  14
ENDBRANCH  12  13
ENDBRANCH  11  12
ENDBRANCH   3   7
BRANCH   2  19
ATOM     19  C   UNL     1      32.519 -24.545 -13.389  0.00  0.00    +0.116 C 
BRANCH  19  20
ATOM     20  C   UNL     1      31.298 -24.168 -14.177  0.00  0.00    -0.003 C 
ATOM     21  C   UNL     1      30.334 -25.131 -14.476  0.00  0.00    -0.003 C 
ATOM     22  C   UNL     1      31.129 -22.853 -14.612  0.00  0.00    -0.003 C 
ATOM     23  C   UNL     1      29.201 -24.780 -15.208  0.00  0.00    +0.002 C 
ATOM     24  C   UNL     1      29.995 -22.502 -15.345  0.00  0.00    +0.002 C 
ATOM     25  C   UNL     1      29.031 -23.466 -15.642  0.00  0.00    +0.031 C 
BRANCH  25  28
ATOM     26  N   UNL     1      26.908 -22.205 -15.905  0.00  0.00    -0.343 N 
ATOM     27  N   UNL     1      27.653 -23.624 -17.605  0.00  0.00    -0.285 NA
ATOM     28  C   UNL     1      27.850 -23.101 -16.408  0.00  0.00    +0.117 C 
ATOM     29  H   UNL     1      26.115 -21.971 -16.441  0.00  0.00    +0.144 HD
ATOM     30  H   UNL     1      27.034 -21.807 -15.014  0.00  0.00    +0.144 HD
ATOM     31  H   UNL     1      26.854 -23.378 -18.125  0.00  0.00    +0.188 HD
ENDBRANCH  25  28
ENDBRANCH  19  20
ENDBRANCH   2  19
TORSDOF 7
ENDMDL
MODEL 3
REMARK VINA RESULT:     -10.5      0.686      1.047
REMARK  Name = 24963035
REMARK  7 active torsions:
REMARK  status: ('A' for Active; 'I' for Inactive)
REMARK    1  A    between atoms: N_2  and  C_19
REMARK    2  A    between atoms: C_3  and  C_7
REMARK    3  A    between atoms: C_11  and  C_12
REMARK    4  A    between atoms: C_12  and  O_13
REMARK    5  A    between atoms: O_13  and  C_14
REMARK    6  A    between atoms: C_19  and  C_20
REMARK    7  A    between atoms: C_25  and  C_28
REMARK                            x       y       z     vdW  Elec       q    Type
REMARK                         _______ _______ _______ _____ _____    ______ ____
ROOT
ATOM      1  O   UNL     1      33.873 -15.859 -23.839  0.00  0.00    -0.273 OA
ATOM      2  N   UNL     1      34.809 -16.996 -22.036  0.00  0.00    -0.299 N 
ATOM      3  C   UNL     1      34.361 -15.874 -22.712  0.00  0.00    +0.241 C 
ATOM      4  H   UNL     1      35.183 -16.881 -21.133  0.00  0.00    +0.150 HD
ENDROOT
BRANCH   3   7
ATOM      5  O   UNL     1      34.145 -13.065 -24.282  0.00  0.00    -0.272 OA
ATOM      6  N   UNL     1      33.375 -13.767 -22.215  0.00  0.00    -0.271 N 
ATOM      7  C   UNL     1      34.509 -14.624 -21.898  0.00  0.00    +0.152 C 
ATOM      8  C   UNL     1      34.378 -14.902 -20.404  0.00  0.00    +0.031 C 
ATOM      9  C   UNL     1      32.873 -14.820 -20.160  0.00  0.00    +0.024 C 
ATOM     10  C   UNL     1      32.425 -13.718 -21.108  0.00  0.00    +0.094 C 
ATOM     11  C   UNL     1      33.324 -12.995 -23.366  0.00  0.00    +0.256 C 
BRANCH  11  12
ATOM     12  C   UNL     1      32.164 -12.035 -23.454  0.00  0.00    +0.227 C 
BRANCH  12  13
ATOM     13  O   UNL     1      32.621 -10.803 -22.954  0.00  0.00    -0.347 OA
BRANCH  13  14
ATOM     14  C   UNL     1      31.556  -9.987 -22.485  0.00  0.00    +0.116 C 
ATOM     15  C   UNL     1      31.468  -8.730 -23.335  0.00  0.00    +0.030 C 
ATOM     16  C   UNL     1      31.875  -9.443 -21.100  0.00  0.00    +0.030 C 
ATOM     17  C   UNL     1      32.568  -7.820 -22.788  0.00  0.00    +0.003 C 
ATOM     18  C   UNL     1      32.850  -8.298 -21.364  0.00  0.00    +0.003 C 
ENDBRANCH  13  14
ENDBRANCH  12  13
ENDBRANCH  11  12
ENDBRANCH   3   7
BRANCH   2  19
ATOM     19  C   UNL     1      34.755 -18.328 -22.594  0.00  0.00    +0.116 C 
BRANCH  19  20
ATOM     20  C   UNL     1      34.515 -19.369 -21.539  0.00  0.00    -0.003 C 
ATOM     21  C   UNL     1      33.221 -19.613 -21.079  0.00  0.00    -0.003 C 
ATOM     22  C   UNL     1      35.589 -20.091 -21.016  0.00  0.00    -0.003 C 
ATOM     23  C   UNL     1      33.000 -20.579 -20.098  0.00  0.00    +0.002 C 
ATOM     24  C   UNL     1      35.367 -21.058 -20.035  0.00  0.00    +0.002 C 
ATOM     25  C   UNL     1      34.072 -21.302 -19.577  0.00  0.00    +0.031 C 
BRANCH  25  28
ATOM     26  N   UNL     1      32.552 -22.669 -18.168  0.00  0.00    -0.343 N 
ATOM     27  N   UNL     1      34.868 -22.897 -17.964  0.00  0.00    -0.285 NA
ATOM     28  C   UNL     1      33.842 -22.308 -18.553  0.00  0.00    +0.117 C 
ATOM     29  H   UNL     1      32.419 -23.354 -17.473  0.00  0.00    +0.144 HD
ATOM     30  H   UNL     1      31.774 -22.240 -18.592  0.00  0.00    +0.144 HD
ATOM     31  H   UNL     1      34.714 -23.578 -17.271  0.00  0.00    +0.188 HD
ENDBRANCH  25  28
ENDBRANCH  19  20
ENDBRANCH   2  19
TORSDOF 7
ENDMDL
MODEL 4
REMARK VINA RESULT:     -10.4      1.471      2.395
REMARK  Name = 24963035
REMARK  7 active torsions:
REMARK  status: ('A' for Active; 'I' for Inactive)
REMARK    1  A    between atoms: N_2  and  C_19
REMARK    2  A    between atoms: C_3  and  C_7
REMARK    3  A    between atoms: C_11  and  C_12
REMARK    4  A    between atoms: C_12  and  O_13
REMARK    5  A    between atoms: O_13  and  C_14
REMARK    6  A    between atoms: C_19  and  C_20
REMARK    7  A    between atoms: C_25  and  C_28
REMARK                            x       y       z     vdW  Elec       q    Type
REMARK                         _______ _______ _______ _____ _____    ______ ____
ROOT
ATOM      1  O   UNL     1      35.635 -15.656 -23.692  0.00  0.00    -0.273 OA
ATOM      2  N   UNL     1      34.327 -17.236 -22.593  0.00  0.00    -0.299 N 
ATOM      3  C   UNL     1      34.549 -16.180 -23.460  0.00  0.00    +0.241 C 
ATOM      4  H   UNL     1      33.407 -17.572 -22.489  0.00  0.00    +0.150 HD
ENDROOT
BRANCH   3   7
ATOM      5  O   UNL     1      32.355 -14.678 -21.634  0.00  0.00    -0.272 OA
ATOM      6  N   UNL     1      33.099 -14.325 -23.797  0.00  0.00    -0.271 N 
ATOM      7  C   UNL     1      33.291 -15.728 -24.138  0.00  0.00    +0.152 C 
ATOM      8  C   UNL     1      33.430 -15.742 -25.656  0.00  0.00    +0.031 C 
ATOM      9  C   UNL     1      34.027 -14.372 -25.969  0.00  0.00    +0.024 C 
ATOM     10  C   UNL     1      33.373 -13.462 -24.942  0.00  0.00    +0.094 C 
ATOM     11  C   UNL     1      32.572 -13.919 -22.580  0.00  0.00    +0.256 C 
BRANCH  11  12
ATOM     12  C   UNL     1      32.276 -12.446 -22.458  0.00  0.00    +0.227 C 
BRANCH  12  13
ATOM     13  O   UNL     1      31.960 -12.208 -21.109  0.00  0.00    -0.347 OA
BRANCH  13  14
ATOM     14  C   UNL     1      30.896 -11.276 -20.964  0.00  0.00    +0.116 C 
ATOM     15  C   UNL     1      31.184 -10.044 -21.807  0.00  0.00    +0.030 C 
ATOM     16  C   UNL     1      30.866 -10.723 -19.547  0.00  0.00    +0.030 C 
ATOM     17  C   UNL     1      32.172  -9.231 -20.972  0.00  0.00    +0.003 C 
ATOM     18  C   UNL     1      31.988  -9.689 -19.526  0.00  0.00    +0.003 C 
ENDBRANCH  13  14
ENDBRANCH  12  13
ENDBRANCH  11  12
ENDBRANCH   3   7
BRANCH   2  19
ATOM     19  C   UNL     1      35.380 -17.871 -21.834  0.00  0.00    +0.116 C 
BRANCH  19  20
ATOM     20  C   UNL     1      34.892 -19.088 -21.104  0.00  0.00    -0.003 C 
ATOM     21  C   UNL     1      35.804 -19.970 -20.526  0.00  0.00    -0.003 C 
ATOM     22  C   UNL     1      33.522 -19.338 -21.007  0.00  0.00    -0.003 C 
ATOM     23  C   UNL     1      35.349 -21.100 -19.849  0.00  0.00    +0.002 C 
ATOM     24  C   UNL     1      33.067 -20.470 -20.330  0.00  0.00    +0.002 C 
ATOM     25  C   UNL     1      33.980 -21.351 -19.750  0.00  0.00    +0.031 C 
BRANCH  25  28
ATOM     26  N   UNL     1      32.517 -22.443 -18.067  0.00  0.00    -0.343 N 
ATOM     27  N   UNL     1      34.016 -23.717 -19.329  0.00  0.00    -0.285 NA
ATOM     28  C   UNL     1      33.506 -22.531 -19.047  0.00  0.00    +0.117 C 
ATOM     29  H   UNL     1      32.210 -23.256 -17.604  0.00  0.00    +0.144 HD
ATOM     30  H   UNL     1      32.126 -21.569 -17.840  0.00  0.00    +0.144 HD
ATOM     31  H   UNL     1      33.695 -24.517 -18.854  0.00  0.00    +0.188 HD
ENDBRANCH  25  28
ENDBRANCH  19  20
ENDBRANCH   2  19
TORSDOF 7
ENDMDL
MODEL 5
REMARK VINA RESULT:     -10.4      2.912      9.783
REMARK  Name = 24963035
REMARK  7 active torsions:
REMARK  status: ('A' for Active; 'I' for Inactive)
REMARK    1  A    between atoms: N_2  and  C_19
REMARK    2  A    between atoms: C_3  and  C_7
REMARK    3  A    between atoms: C_11  and  C_12
REMARK    4  A    between atoms: C_12  and  O_13
REMARK    5  A    between atoms: O_13  and  C_14
REMARK    6  A    between atoms: C_19  and  C_20
REMARK    7  A    between atoms: C_25  and  C_28
REMARK                            x       y       z     vdW  Elec       q    Type
REMARK                         _______ _______ _______ _____ _____    ______ ____
ROOT
ATOM      1  O   UNL     1      32.157 -14.795 -21.780  0.00  0.00    -0.273 OA
ATOM      2  N   UNL     1      32.646 -12.611 -22.420  0.00  0.00    -0.299 N 
ATOM      3  C   UNL     1      32.909 -13.963 -22.282  0.00  0.00    +0.241 C 
ATOM      4  H   UNL     1      33.330 -12.042 -22.841  0.00  0.00    +0.150 HD
ENDROOT
BRANCH   3   7
ATOM      5  O   UNL     1      34.991 -15.409 -20.288  0.00  0.00    -0.272 OA
ATOM      6  N   UNL     1      34.468 -15.744 -22.518  0.00  0.00    -0.271 N 
ATOM      7  C   UNL     1      34.244 -14.343 -22.848  0.00  0.00    +0.152 C 
ATOM      8  C   UNL     1      34.247 -14.299 -24.372  0.00  0.00    +0.031 C 
ATOM      9  C   UNL     1      33.745 -15.686 -24.767  0.00  0.00    +0.024 C 
ATOM     10  C   UNL     1      34.342 -16.591 -23.700  0.00  0.00    +0.094 C 
ATOM     11  C   UNL     1      34.898 -16.154 -21.265  0.00  0.00    +0.256 C 
BRANCH  11  12
ATOM     12  C   UNL     1      35.249 -17.616 -21.145  0.00  0.00    +0.227 C 
BRANCH  12  13
ATOM     13  O   UNL     1      34.067 -18.285 -20.780  0.00  0.00    -0.347 OA
BRANCH  13  14
ATOM     14  C   UNL     1      33.916 -19.519 -21.471  0.00  0.00    +0.116 C 
ATOM     15  C   UNL     1      32.742 -20.287 -20.884  0.00  0.00    +0.030 C 
ATOM     16  C   UNL     1      35.100 -20.433 -21.188  0.00  0.00    +0.030 C 
ATOM     17  C   UNL     1      33.300 -20.927 -19.613  0.00  0.00    +0.003 C 
ATOM     18  C   UNL     1      34.816 -20.992 -19.797  0.00  0.00    +0.003 C 
ENDBRANCH  13  14
ENDBRANCH  12  13
ENDBRANCH  11  12
ENDBRANCH   3   7
BRANCH   2  19
ATOM     19  C   UNL     1      31.416 -11.995 -21.977  0.00  0.00    +0.116 C 
BRANCH  19  20
ATOM     20  C   UNL     1      31.610 -10.552 -21.614  0.00  0.00    -0.003 C 
ATOM     21  C   UNL     1      31.762 -10.181 -20.277  0.00  0.00    -0.003 C 
ATOM     22  C   UNL     1      31.638  -9.580 -22.614  0.00  0.00    -0.003 C 
ATOM     23  C   UNL     1      31.941  -8.840 -19.941  0.00  0.00    +0.002 C 
ATOM     24  C   UNL     1      31.817  -8.238 -22.278  0.00  0.00    +0.002 C 
ATOM     25  C   UNL     1      31.970  -7.868 -20.941  0.00  0.00    +0.031 C 
BRANCH  25  28
ATOM     26  N   UNL     1      31.734  -5.447 -21.439  0.00  0.00    -0.343 N 
ATOM     27  N   UNL     1      32.736  -6.148 -19.448  0.00  0.00    -0.285 NA
ATOM     28  C   UNL     1      32.155  -6.470 -20.590  0.00  0.00    +0.117 C 
ATOM     29  H   UNL     1      31.869  -4.506 -21.181  0.00  0.00    +0.144 HD
ATOM     30  H   UNL     1      31.302  -5.666 -22.296  0.00  0.00    +0.144 HD
ATOM     31  H   UNL     1      32.862  -5.201 -19.209  0.00  0.00    +0.188 HD
ENDBRANCH  25  28
ENDBRANCH  19  20
ENDBRANCH   2  19
TORSDOF 7
ENDMDL
MODEL 6
REMARK VINA RESULT:     -10.2      2.343      4.098
REMARK  Name = 24963035
REMARK  7 active torsions:
REMARK  status: ('A' for Active; 'I' for Inactive)
REMARK    1  A    between atoms: N_2  and  C_19
REMARK    2  A    between atoms: C_3  and  C_7
REMARK    3  A    between atoms: C_11  and  C_12
REMARK    4  A    between atoms: C_12  and  O_13
REMARK    5  A    between atoms: O_13  and  C_14
REMARK    6  A    between atoms: C_19  and  C_20
REMARK    7  A    between atoms: C_25  and  C_28
REMARK                            x       y       z     vdW  Elec       q    Type
REMARK                         _______ _______ _______ _____ _____    ______ ____
ROOT
ATOM      1  O   UNL     1      36.876 -18.682 -21.363  0.00  0.00    -0.273 OA
ATOM      2  N   UNL     1      35.547 -20.254 -20.276  0.00  0.00    -0.299 N 
ATOM      3  C   UNL     1      35.779 -19.175 -21.112  0.00  0.00    +0.241 C 
ATOM      4  H   UNL     1      34.620 -20.560 -20.153  0.00  0.00    +0.150 HD
ENDROOT
BRANCH   3   7
ATOM      5  O   UNL     1      34.735 -16.292 -20.111  0.00  0.00    -0.272 OA
ATOM      6  N   UNL     1      34.792 -17.301 -22.193  0.00  0.00    -0.271 N 
ATOM      7  C   UNL     1      34.517 -18.654 -21.730  0.00  0.00    +0.152 C 
ATOM      8  C   UNL     1      34.143 -19.426 -22.991  0.00  0.00    +0.031 C 
ATOM      9  C   UNL     1      34.917 -18.703 -24.091  0.00  0.00    +0.024 C 
ATOM     10  C   UNL     1      34.875 -17.249 -23.650  0.00  0.00    +0.094 C 
ATOM     11  C   UNL     1      34.807 -16.209 -21.338  0.00  0.00    +0.256 C 
BRANCH  11  12
ATOM     12  C   UNL     1      34.932 -14.863 -22.004  0.00  0.00    +0.227 C 
BRANCH  12  13
ATOM     13  O   UNL     1      33.882 -14.069 -21.510  0.00  0.00    -0.347 OA
BRANCH  13  14
ATOM     14  C   UNL     1      32.758 -14.066 -22.381  0.00  0.00    +0.116 C 
ATOM     15  C   UNL     1      33.229 -13.889 -23.815  0.00  0.00    +0.030 C 
ATOM     16  C   UNL     1      31.908 -12.826 -22.144  0.00  0.00    +0.030 C 
ATOM     17  C   UNL     1      33.491 -12.390 -23.951  0.00  0.00    +0.003 C 
ATOM     18  C   UNL     1      32.667 -11.711 -22.858  0.00  0.00    +0.003 C 
ENDBRANCH  13  14
ENDBRANCH  12  13
ENDBRANCH  11  12
ENDBRANCH   3   7
BRANCH   2  19
ATOM     19  C   UNL     1      36.601 -20.953 -19.576  0.00  0.00    +0.116 C 
BRANCH  19  20
ATOM     20  C   UNL     1      36.081 -21.706 -18.386  0.00  0.00    -0.003 C 
ATOM     21  C   UNL     1      34.796 -22.247 -18.408  0.00  0.00    -0.003 C 
ATOM     22  C   UNL     1      36.885 -21.863 -17.256  0.00  0.00    -0.003 C 
ATOM     23  C   UNL     1      34.314 -22.945 -17.302  0.00  0.00    +0.002 C 
ATOM     24  C   UNL     1      36.402 -22.561 -16.150  0.00  0.00    +0.002 C 
ATOM     25  C   UNL     1      35.117 -23.103 -16.173  0.00  0.00    +0.031 C 
BRANCH  25  28
ATOM     26  N   UNL     1      35.032 -25.130 -14.741  0.00  0.00    -0.343 N 
ATOM     27  N   UNL     1      33.738 -23.258 -14.210  0.00  0.00    -0.285 NA
ATOM     28  C   UNL     1      34.614 -23.830 -15.019  0.00  0.00    +0.117 C 
ATOM     29  H   UNL     1      34.679 -25.604 -13.953  0.00  0.00    +0.144 HD
ATOM     30  H   UNL     1      35.681 -25.575 -15.332  0.00  0.00    +0.144 HD
ATOM     31  H   UNL     1      33.397 -23.749 -13.428  0.00  0.00    +0.188 HD
ENDBRANCH  25  28
ENDBRANCH  19  20
ENDBRANCH   2  19
TORSDOF 7
ENDMDL
MODEL 7
REMARK VINA RESULT:     -10.1      3.597     10.657
REMARK  Name = 24963035
REMARK  7 active torsions:
REMARK  status: ('A' for Active; 'I' for Inactive)
REMARK    1  A    between atoms: N_2  and  C_19
REMARK    2  A    between atoms: C_3  and  C_7
REMARK    3  A    between atoms: C_11  and  C_12
REMARK    4  A    between atoms: C_12  and  O_13
REMARK    5  A    between atoms: O_13  and  C_14
REMARK    6  A    between atoms: C_19  and  C_20
REMARK    7  A    between atoms: C_25  and  C_28
REMARK                            x       y       z     vdW  Elec       q    Type
REMARK                         _______ _______ _______ _____ _____    ______ ____
ROOT
ATOM      1  O   UNL     1      31.916 -13.192 -22.814  0.00  0.00    -0.273 OA
ATOM      2  N   UNL     1      32.778 -11.031 -22.882  0.00  0.00    -0.299 N 
ATOM      3  C   UNL     1      32.754 -12.379 -23.197  0.00  0.00    +0.241 C 
ATOM      4  H   UNL     1      33.504 -10.477 -23.252  0.00  0.00    +0.150 HD
ENDROOT
BRANCH   3   7
ATOM      5  O   UNL     1      34.923 -14.467 -22.042  0.00  0.00    -0.272 OA
ATOM      6  N   UNL     1      33.934 -14.225 -24.121  0.00  0.00    -0.271 N 
ATOM      7  C   UNL     1      33.876 -12.770 -24.109  0.00  0.00    +0.152 C 
ATOM      8  C   UNL     1      33.593 -12.382 -25.556  0.00  0.00    +0.031 C 
ATOM      9  C   UNL     1      32.810 -13.577 -26.096  0.00  0.00    +0.024 C 
ATOM     10  C   UNL     1      33.450 -14.762 -25.390  0.00  0.00    +0.094 C 
ATOM     11  C   UNL     1      34.526 -14.956 -23.102  0.00  0.00    +0.256 C 
BRANCH  11  12
ATOM     12  C   UNL     1      34.656 -16.437 -23.354  0.00  0.00    +0.227 C 
BRANCH  12  13
ATOM     13  O   UNL     1      35.346 -16.974 -22.252  0.00  0.00    -0.347 OA
BRANCH  13  14
ATOM     14  C   UNL     1      35.936 -18.233 -22.551  0.00  0.00    +0.116 C 
ATOM     15  C   UNL     1      34.870 -19.179 -23.078  0.00  0.00    +0.030 C 
ATOM     16  C   UNL     1      36.402 -18.916 -21.274  0.00  0.00    +0.030 C 
ATOM     17  C   UNL     1      34.149 -19.678 -21.827  0.00  0.00    +0.003 C 
ATOM     18  C   UNL     1      35.121 -19.481 -20.665  0.00  0.00    +0.003 C 
ENDBRANCH  13  14
ENDBRANCH  12  13
ENDBRANCH  11  12
ENDBRANCH   3   7
BRANCH   2  19
ATOM     19  C   UNL     1      31.791 -10.398 -22.038  0.00  0.00    +0.116 C 
BRANCH  19  20
ATOM     20  C   UNL     1      31.659  -8.932 -22.331  0.00  0.00    -0.003 C 
ATOM     21  C   UNL     1      31.120  -8.508 -23.546  0.00  0.00    -0.003 C 
ATOM     22  C   UNL     1      32.077  -7.992 -21.388  0.00  0.00    -0.003 C 
ATOM     23  C   UNL     1      30.998  -7.146 -23.818  0.00  0.00    +0.002 C 
ATOM     24  C   UNL     1      31.955  -6.630 -21.660  0.00  0.00    +0.002 C 
ATOM     25  C   UNL     1      31.415  -6.206 -22.875  0.00  0.00    +0.031 C 
BRANCH  25  28
ATOM     26  N   UNL     1      30.544  -3.945 -22.336  0.00  0.00    -0.343 N 
ATOM     27  N   UNL     1      31.888  -4.271 -24.219  0.00  0.00    -0.285 NA
ATOM     28  C   UNL     1      31.290  -4.786 -23.159  0.00  0.00    +0.117 C 
ATOM     29  H   UNL     1      30.473  -2.985 -22.546  0.00  0.00    +0.144 HD
ATOM     30  H   UNL     1      30.088  -4.309 -21.543  0.00  0.00    +0.144 HD
ATOM     31  H   UNL     1      31.804  -3.309 -24.412  0.00  0.00    +0.188 HD
ENDBRANCH  25  28
ENDBRANCH  19  20
ENDBRANCH   2  19
TORSDOF 7
ENDMDL
MODEL 8
REMARK VINA RESULT:     -10.0      3.639      9.960
REMARK  Name = 24963035
REMARK  7 active torsions:
REMARK  status: ('A' for Active; 'I' for Inactive)
REMARK    1  A    between atoms: N_2  and  C_19
REMARK    2  A    between atoms: C_3  and  C_7
REMARK    3  A    between atoms: C_11  and  C_12
REMARK    4  A    between atoms: C_12  and  O_13
REMARK    5  A    between atoms: O_13  and  C_14
REMARK    6  A    between atoms: C_19  and  C_20
REMARK    7  A    between atoms: C_25  and  C_28
REMARK                            x       y       z     vdW  Elec       q    Type
REMARK                         _______ _______ _______ _____ _____    ______ ____
ROOT
ATOM      1  O   UNL     1      33.483 -12.799 -26.107  0.00  0.00    -0.273 OA
ATOM      2  N   UNL     1      33.950 -11.922 -24.002  0.00  0.00    -0.299 N 
ATOM      3  C   UNL     1      33.426 -12.855 -24.881  0.00  0.00    +0.241 C 
ATOM      4  H   UNL     1      33.842 -12.077 -23.036  0.00  0.00    +0.150 HD
ENDROOT
BRANCH   3   7
ATOM      5  O   UNL     1      33.698 -15.767 -26.241  0.00  0.00    -0.272 OA
ATOM      6  N   UNL     1      33.779 -15.052 -24.042  0.00  0.00    -0.271 N 
ATOM      7  C   UNL     1      32.777 -14.003 -24.170  0.00  0.00    +0.152 C 
ATOM      8  C   UNL     1      32.406 -13.644 -22.736  0.00  0.00    +0.031 C 
ATOM      9  C   UNL     1      33.680 -13.950 -21.953  0.00  0.00    +0.024 C 
ATOM     10  C   UNL     1      34.240 -15.174 -22.661  0.00  0.00    +0.094 C 
ATOM     11  C   UNL     1      34.106 -15.902 -25.087  0.00  0.00    +0.256 C 
BRANCH  11  12
ATOM     12  C   UNL     1      35.031 -17.040 -24.734  0.00  0.00    +0.227 C 
BRANCH  12  13
ATOM     13  O   UNL     1      34.298 -17.915 -23.912  0.00  0.00    -0.347 OA
BRANCH  13  14
ATOM     14  C   UNL     1      35.121 -18.920 -23.333  0.00  0.00    +0.116 C 
ATOM     15  C   UNL     1      34.313 -19.713 -22.318  0.00  0.00    +0.030 C 
ATOM     16  C   UNL     1      36.213 -18.287 -22.484  0.00  0.00    +0.030 C 
ATOM     17  C   UNL     1      34.300 -18.834 -21.069  0.00  0.00    +0.003 C 
ATOM     18  C   UNL     1      35.502 -17.898 -21.191  0.00  0.00    +0.003 C 
ENDBRANCH  13  14
ENDBRANCH  12  13
ENDBRANCH  11  12
ENDBRANCH   3   7
BRANCH   2  19
ATOM     19  C   UNL     1      34.649 -10.733 -24.435  0.00  0.00    +0.116 C 
BRANCH  19  20
ATOM     20  C   UNL     1      33.971  -9.481 -23.960  0.00  0.00    -0.003 C 
ATOM     21  C   UNL     1      32.655  -9.528 -23.502  0.00  0.00    -0.003 C 
ATOM     22  C   UNL     1      34.659  -8.267 -23.980  0.00  0.00    -0.003 C 
ATOM     23  C   UNL     1      32.027  -8.364 -23.062  0.00  0.00    +0.002 C 
ATOM     24  C   UNL     1      34.030  -7.102 -23.540  0.00  0.00    +0.002 C 
ATOM     25  C   UNL     1      32.714  -7.151 -23.081  0.00  0.00    +0.031 C 
BRANCH  25  28
ATOM     26  N   UNL     1      32.033  -5.589 -21.275  0.00  0.00    -0.343 N 
ATOM     27  N   UNL     1      31.467  -5.139 -23.496  0.00  0.00    -0.285 NA
ATOM     28  C   UNL     1      32.058  -5.936 -22.624  0.00  0.00    +0.117 C 
ATOM     29  H   UNL     1      31.583  -4.761 -20.987  0.00  0.00    +0.144 HD
ATOM     30  H   UNL     1      32.464  -6.171 -20.608  0.00  0.00    +0.144 HD
ATOM     31  H   UNL     1      31.022  -4.316 -23.189  0.00  0.00    +0.188 HD
ENDBRANCH  25  28
ENDBRANCH  19  20
ENDBRANCH   2  19
TORSDOF 7
ENDMDL
MODEL 9
REMARK VINA RESULT:      -9.9      7.018     11.067
REMARK  Name = 24963035
REMARK  7 active torsions:
REMARK  status: ('A' for Active; 'I' for Inactive)
REMARK    1  A    between atoms: N_2  and  C_19
REMARK    2  A    between atoms: C_3  and  C_7
REMARK    3  A    between atoms: C_11  and  C_12
REMARK    4  A    between atoms: C_12  and  O_13
REMARK    5  A    between atoms: O_13  and  C_14
REMARK    6  A    between atoms: C_19  and  C_20
REMARK    7  A    between atoms: C_25  and  C_28
REMARK                            x       y       z     vdW  Elec       q    Type
REMARK                         _______ _______ _______ _____ _____    ______ ____
ROOT
ATOM      1  O   UNL     1      37.708 -24.269 -15.108  0.00  0.00    -0.273 OA
ATOM      2  N   UNL     1      36.756 -22.300 -15.906  0.00  0.00    -0.299 N 
ATOM      3  C   UNL     1      37.005 -23.273 -14.953  0.00  0.00    +0.241 C 
ATOM      4  H   UNL     1      36.173 -21.545 -15.662  0.00  0.00    +0.150 HD
ENDROOT
BRANCH   3   7
ATOM      5  O   UNL     1      33.807 -22.861 -15.015  0.00  0.00    -0.272 OA
ATOM      6  N   UNL     1      35.222 -23.912 -13.516  0.00  0.00    -0.271 N 
ATOM      7  C   UNL     1      36.330 -22.977 -13.648  0.00  0.00    +0.152 C 
ATOM      8  C   UNL     1      37.236 -23.279 -12.460  0.00  0.00    +0.031 C 
ATOM      9  C   UNL     1      36.986 -24.762 -12.192  0.00  0.00    +0.024 C 
ATOM     10  C   UNL     1      35.507 -24.928 -12.506  0.00  0.00    +0.094 C 
ATOM     11  C   UNL     1      34.011 -23.730 -14.167  0.00  0.00    +0.256 C 
BRANCH  11  12
ATOM     12  C   UNL     1      32.915 -24.692 -13.783  0.00  0.00    +0.227 C 
BRANCH  12  13
ATOM     13  O   UNL     1      31.898 -24.547 -14.743  0.00  0.00    -0.347 OA
BRANCH  13  14
ATOM     14  C   UNL     1      30.665 -24.145 -14.160  0.00  0.00    +0.116 C 
ATOM     15  C   UNL     1      29.553 -25.064 -14.642  0.00  0.00    +0.030 C 
ATOM     16  C   UNL     1      30.243 -22.785 -14.696  0.00  0.00    +0.030 C 
ATOM     17  C   UNL     1      29.203 -24.544 -16.035  0.00  0.00    +0.003 C 
ATOM     18  C   UNL     1      29.673 -23.090 -16.080  0.00  0.00    +0.003 C 
ENDBRANCH  13  14
ENDBRANCH  12  13
ENDBRANCH  11  12
ENDBRANCH   3   7
BRANCH   2  19
ATOM     19  C   UNL     1      37.310 -22.340 -17.240  0.00  0.00    +0.116 C 
BRANCH  19  20
ATOM     20  C   UNL     1      36.373 -21.750 -18.254  0.00  0.00    -0.003 C 
ATOM     21  C   UNL     1      35.026 -22.113 -18.255  0.00  0.00    -0.003 C 
ATOM     22  C   UNL     1      36.852 -20.841 -19.198  0.00  0.00    -0.003 C 
ATOM     23  C   UNL     1      34.158 -21.565 -19.198  0.00  0.00    +0.002 C 
ATOM     24  C   UNL     1      35.982 -20.293 -20.142  0.00  0.00    +0.002 C 
ATOM     25  C   UNL     1      34.635 -20.655 -20.141  0.00  0.00    +0.031 C 
BRANCH  25  28
ATOM     26  N   UNL     1      34.209 -19.420 -22.253  0.00  0.00    -0.343 N 
ATOM     27  N   UNL     1      32.423 -20.192 -20.959  0.00  0.00    -0.285 NA
ATOM     28  C   UNL     1      33.729 -20.086 -21.126  0.00  0.00    +0.117 C 
ATOM     29  H   UNL     1      33.577 -19.042 -22.907  0.00  0.00    +0.144 HD
ATOM     30  H   UNL     1      35.178 -19.327 -22.394  0.00  0.00    +0.144 HD
ATOM     31  H   UNL     1      31.808 -19.807 -21.624  0.00  0.00    +0.188 HD
ENDBRANCH  25  28
ENDBRANCH  19  20
ENDBRANCH   2  19
TORSDOF 7
ENDMDL
