MODEL 1
REMARK VINA RESULT:      -5.4      0.000      0.000
REMARK  Name = 1103
REMARK  13 active torsions:
REMARK  status: ('A' for Active; 'I' for Inactive)
REMARK    1  A    between atoms: C_1  and  C_2
REMARK    2  A    between atoms: C_1  and  C_14
REMARK    3  A    between atoms: C_2  and  C_3
REMARK    4  A    between atoms: C_3  and  N_4
REMARK    5  A    between atoms: N_4  and  C_7
REMARK    6  A    between atoms: C_7  and  C_8
REMARK    7  A    between atoms: C_8  and  C_9
REMARK    8  A    between atoms: C_9  and  N_10
REMARK    9  A    between atoms: C_14  and  N_15
REMARK   10  A    between atoms: N_15  and  C_18
REMARK   11  A    between atoms: C_18  and  C_19
REMARK   12  A    between atoms: C_19  and  C_20
REMARK   13  A    between atoms: C_20  and  N_21
REMARK                            x       y       z     vdW  Elec       q    Type
REMARK                         _______ _______ _______ _____ _____    ______ ____
ROOT
ATOM      1  C   UNL     1      34.471 -21.217 -19.697  0.00  0.00    -0.026 C 
ENDROOT
BRANCH   1   2
ATOM      2  C   UNL     1      33.304 -20.428 -20.302  0.00  0.00    -0.026 C 
BRANCH   2   3
ATOM      3  C   UNL     1      33.743 -19.178 -21.066  0.00  0.00    -0.082 C 
BRANCH   3   4
ATOM      4  N   UNL     1      35.134 -18.829 -20.804  0.00  0.00    +0.384 N 
ATOM      5  H   UNL     1      35.605 -19.627 -20.377  0.00  0.00    -0.085 HD
ATOM      6  H   UNL     1      35.156 -18.025 -20.176  0.00  0.00    -0.085 HD
BRANCH   4   7
ATOM      7  C   UNL     1      35.822 -18.474 -22.037  0.00  0.00    -0.084 C 
BRANCH   7   8
ATOM      8  C   UNL     1      35.030 -18.893 -23.277  0.00  0.00    -0.047 C 
BRANCH   8   9
ATOM      9  C   UNL     1      34.943 -17.790 -24.332  0.00  0.00    -0.088 C 
BRANCH   9  10
ATOM     10  N   UNL     1      35.431 -16.529 -23.785  0.00  0.00    +0.380 N 
ATOM     11  H   UNL     1      36.406 -16.633 -23.505  0.00  0.00    -0.089 HD
ATOM     12  H   UNL     1      34.870 -16.271 -22.973  0.00  0.00    -0.089 HD
ATOM     13  H   UNL     1      35.357 -15.800 -24.494  0.00  0.00    -0.089 HD
ENDBRANCH   9  10
ENDBRANCH   8   9
ENDBRANCH   7   8
ENDBRANCH   4   7
ENDBRANCH   3   4
ENDBRANCH   2   3
ENDBRANCH   1   2
BRANCH   1  14
ATOM     14  C   UNL     1      34.013 -22.595 -19.218  0.00  0.00    -0.082 C 
BRANCH  14  15
ATOM     15  N   UNL     1      32.776 -22.482 -18.455  0.00  0.00    +0.384 N 
ATOM     16  H   UNL     1      32.012 -22.889 -18.996  0.00  0.00    -0.085 HD
ATOM     17  H   UNL     1      32.596 -21.496 -18.271  0.00  0.00    -0.085 HD
BRANCH  15  18
ATOM     18  C   UNL     1      32.885 -23.182 -17.183  0.00  0.00    -0.084 C 
BRANCH  18  19
ATOM     19  C   UNL     1      31.578 -23.131 -16.388  0.00  0.00    -0.047 C 
BRANCH  19  20
ATOM     20  C   UNL     1      31.719 -23.693 -14.973  0.00  0.00    -0.088 C 
BRANCH  20  21
ATOM     21  N   UNL     1      32.274 -22.679 -14.082  0.00  0.00    +0.380 N 
ATOM     22  H   UNL     1      32.137 -22.967 -13.113  0.00  0.00    -0.089 HD
ATOM     23  H   UNL     1      31.802 -21.789 -14.242  0.00  0.00    -0.089 HD
ATOM     24  H   UNL     1      33.271 -22.572 -14.267  0.00  0.00    -0.089 HD
ENDBRANCH  20  21
ENDBRANCH  19  20
ENDBRANCH  18  19
ENDBRANCH  15  18
ENDBRANCH  14  15
ENDBRANCH   1  14
TORSDOF 13
ENDMDL
MODEL 2
REMARK VINA RESULT:      -5.3      2.488      4.467
REMARK  Name = 1103
REMARK  13 active torsions:
REMARK  status: ('A' for Active; 'I' for Inactive)
REMARK    1  A    between atoms: C_1  and  C_2
REMARK    2  A    between atoms: C_1  and  C_14
REMARK    3  A    between atoms: C_2  and  C_3
REMARK    4  A    between atoms: C_3  and  N_4
REMARK    5  A    between atoms: N_4  and  C_7
REMARK    6  A    between atoms: C_7  and  C_8
REMARK    7  A    between atoms: C_8  and  C_9
REMARK    8  A    between atoms: C_9  and  N_10
REMARK    9  A    between atoms: C_14  and  N_15
REMARK   10  A    between atoms: N_15  and  C_18
REMARK   11  A    between atoms: C_18  and  C_19
REMARK   12  A    between atoms: C_19  and  C_20
REMARK   13  A    between atoms: C_20  and  N_21
REMARK                            x       y       z     vdW  Elec       q    Type
REMARK                         _______ _______ _______ _____ _____    ______ ____
ROOT
ATOM      1  C   UNL     1      34.642 -18.900 -22.291  0.00  0.00    -0.026 C 
ENDROOT
BRANCH   1   2
ATOM      2  C   UNL     1      35.126 -19.022 -23.739  0.00  0.00    -0.026 C 
BRANCH   2   3
ATOM      3  C   UNL     1      34.561 -17.943 -24.665  0.00  0.00    -0.082 C 
BRANCH   3   4
ATOM      4  N   UNL     1      35.198 -16.647 -24.459  0.00  0.00    +0.384 N 
ATOM      5  H   UNL     1      35.709 -16.388 -25.304  0.00  0.00    -0.085 HD
ATOM      6  H   UNL     1      35.835 -16.719 -23.666  0.00  0.00    -0.085 HD
BRANCH   4   7
ATOM      7  C   UNL     1      34.207 -15.621 -24.168  0.00  0.00    -0.084 C 
BRANCH   7   8
ATOM      8  C   UNL     1      34.313 -15.113 -22.729  0.00  0.00    -0.047 C 
BRANCH   8   9
ATOM      9  C   UNL     1      32.951 -14.870 -22.079  0.00  0.00    -0.088 C 
BRANCH   9  10
ATOM     10  N   UNL     1      32.757 -15.782 -20.957  0.00  0.00    +0.380 N 
ATOM     11  H   UNL     1      33.518 -15.666 -20.288  0.00  0.00    -0.089 HD
ATOM     12  H   UNL     1      32.749 -16.743 -21.299  0.00  0.00    -0.089 HD
ATOM     13  H   UNL     1      31.868 -15.576 -20.501  0.00  0.00    -0.089 HD
ENDBRANCH   9  10
ENDBRANCH   8   9
ENDBRANCH   7   8
ENDBRANCH   4   7
ENDBRANCH   3   4
ENDBRANCH   2   3
ENDBRANCH   1   2
BRANCH   1  14
ATOM     14  C   UNL     1      35.762 -18.408 -21.375  0.00  0.00    -0.082 C 
BRANCH  14  15
ATOM     15  N   UNL     1      36.102 -19.431 -20.394  0.00  0.00    +0.384 N 
ATOM     16  H   UNL     1      36.143 -19.005 -19.468  0.00  0.00    -0.085 HD
ATOM     17  H   UNL     1      37.006 -19.832 -20.641  0.00  0.00    -0.085 HD
BRANCH  15  18
ATOM     18  C   UNL     1      35.107 -20.495 -20.386  0.00  0.00    -0.084 C 
BRANCH  18  19
ATOM     19  C   UNL     1      35.403 -21.547 -19.316  0.00  0.00    -0.047 C 
BRANCH  19  20
ATOM     20  C   UNL     1      34.180 -22.393 -18.958  0.00  0.00    -0.088 C 
BRANCH  20  21
ATOM     21  N   UNL     1      32.995 -21.876 -19.634  0.00  0.00    +0.380 N 
ATOM     22  H   UNL     1      32.446 -21.319 -18.979  0.00  0.00    -0.089 HD
ATOM     23  H   UNL     1      32.430 -22.654 -19.976  0.00  0.00    -0.089 HD
ATOM     24  H   UNL     1      33.279 -21.292 -20.421  0.00  0.00    -0.089 HD
ENDBRANCH  20  21
ENDBRANCH  19  20
ENDBRANCH  18  19
ENDBRANCH  15  18
ENDBRANCH  14  15
ENDBRANCH   1  14
TORSDOF 13
ENDMDL
MODEL 3
REMARK VINA RESULT:      -5.3      2.502      7.953
REMARK  Name = 1103
REMARK  13 active torsions:
REMARK  status: ('A' for Active; 'I' for Inactive)
REMARK    1  A    between atoms: C_1  and  C_2
REMARK    2  A    between atoms: C_1  and  C_14
REMARK    3  A    between atoms: C_2  and  C_3
REMARK    4  A    between atoms: C_3  and  N_4
REMARK    5  A    between atoms: N_4  and  C_7
REMARK    6  A    between atoms: C_7  and  C_8
REMARK    7  A    between atoms: C_8  and  C_9
REMARK    8  A    between atoms: C_9  and  N_10
REMARK    9  A    between atoms: C_14  and  N_15
REMARK   10  A    between atoms: N_15  and  C_18
REMARK   11  A    between atoms: C_18  and  C_19
REMARK   12  A    between atoms: C_19  and  C_20
REMARK   13  A    between atoms: C_20  and  N_21
REMARK                            x       y       z     vdW  Elec       q    Type
REMARK                         _______ _______ _______ _____ _____    ______ ____
ROOT
ATOM      1  C   UNL     1      35.323 -18.780 -23.671  0.00  0.00    -0.026 C 
ENDROOT
BRANCH   1   2
ATOM      2  C   UNL     1      34.885 -18.994 -22.219  0.00  0.00    -0.026 C 
BRANCH   2   3
ATOM      3  C   UNL     1      35.931 -18.552 -21.194  0.00  0.00    -0.082 C 
BRANCH   3   4
ATOM      4  N   UNL     1      36.263 -19.612 -20.249  0.00  0.00    +0.384 N 
ATOM      5  H   UNL     1      36.221 -19.238 -19.300  0.00  0.00    -0.085 HD
ATOM      6  H   UNL     1      37.202 -19.952 -20.456  0.00  0.00    -0.085 HD
BRANCH   4   7
ATOM      7  C   UNL     1      35.330 -20.723 -20.366  0.00  0.00    -0.084 C 
BRANCH   7   8
ATOM      8  C   UNL     1      35.410 -21.669 -19.165  0.00  0.00    -0.047 C 
BRANCH   8   9
ATOM      9  C   UNL     1      34.125 -22.468 -18.947  0.00  0.00    -0.088 C 
BRANCH   9  10
ATOM     10  N   UNL     1      33.014 -21.840 -19.653  0.00  0.00    +0.380 N 
ATOM     11  H   UNL     1      32.721 -22.436 -20.427  0.00  0.00    -0.089 HD
ATOM     12  H   UNL     1      33.311 -20.934 -20.016  0.00  0.00    -0.089 HD
ATOM     13  H   UNL     1      32.234 -21.708 -19.010  0.00  0.00    -0.089 HD
ENDBRANCH   9  10
ENDBRANCH   8   9
ENDBRANCH   7   8
ENDBRANCH   4   7
ENDBRANCH   3   4
ENDBRANCH   2   3
ENDBRANCH   1   2
BRANCH   1  14
ATOM     14  C   UNL     1      34.641 -17.553 -24.277  0.00  0.00    -0.082 C 
BRANCH  14  15
ATOM     15  N   UNL     1      35.413 -16.350 -23.990  0.00  0.00    +0.384 N 
ATOM     16  H   UNL     1      35.703 -15.922 -24.869  0.00  0.00    -0.085 HD
ATOM     17  H   UNL     1      36.227 -16.611 -23.435  0.00  0.00    -0.085 HD
BRANCH  15  18
ATOM     18  C   UNL     1      34.620 -15.393 -23.232  0.00  0.00    -0.084 C 
BRANCH  18  19
ATOM     19  C   UNL     1      33.594 -14.675 -24.112  0.00  0.00    -0.047 C 
BRANCH  19  20
ATOM     20  C   UNL     1      33.264 -13.267 -23.616  0.00  0.00    -0.088 C 
BRANCH  20  21
ATOM     21  N   UNL     1      32.058 -13.292 -22.795  0.00  0.00    +0.380 N 
ATOM     22  H   UNL     1      32.267 -13.730 -21.897  0.00  0.00    -0.089 HD
ATOM     23  H   UNL     1      31.332 -13.827 -23.272  0.00  0.00    -0.089 HD
ATOM     24  H   UNL     1      31.731 -12.339 -22.640  0.00  0.00    -0.089 HD
ENDBRANCH  20  21
ENDBRANCH  19  20
ENDBRANCH  18  19
ENDBRANCH  15  18
ENDBRANCH  14  15
ENDBRANCH   1  14
TORSDOF 13
ENDMDL
MODEL 4
REMARK VINA RESULT:      -5.3      5.142      6.751
REMARK  Name = 1103
REMARK  13 active torsions:
REMARK  status: ('A' for Active; 'I' for Inactive)
REMARK    1  A    between atoms: C_1  and  C_2
REMARK    2  A    between atoms: C_1  and  C_14
REMARK    3  A    between atoms: C_2  and  C_3
REMARK    4  A    between atoms: C_3  and  N_4
REMARK    5  A    between atoms: N_4  and  C_7
REMARK    6  A    between atoms: C_7  and  C_8
REMARK    7  A    between atoms: C_8  and  C_9
REMARK    8  A    between atoms: C_9  and  N_10
REMARK    9  A    between atoms: C_14  and  N_15
REMARK   10  A    between atoms: N_15  and  C_18
REMARK   11  A    between atoms: C_18  and  C_19
REMARK   12  A    between atoms: C_19  and  C_20
REMARK   13  A    between atoms: C_20  and  N_21
REMARK                            x       y       z     vdW  Elec       q    Type
REMARK                         _______ _______ _______ _____ _____    ______ ____
ROOT
ATOM      1  C   UNL     1      34.508 -15.642 -21.031  0.00  0.00    -0.026 C 
ENDROOT
BRANCH   1   2
ATOM      2  C   UNL     1      32.999 -15.380 -21.084  0.00  0.00    -0.026 C 
BRANCH   2   3
ATOM      3  C   UNL     1      32.614 -13.951 -20.698  0.00  0.00    -0.082 C 
BRANCH   3   4
ATOM      4  N   UNL     1      31.973 -13.234 -21.794  0.00  0.00    +0.384 N 
ATOM      5  H   UNL     1      31.143 -13.749 -22.089  0.00  0.00    -0.085 HD
ATOM      6  H   UNL     1      32.637 -13.156 -22.565  0.00  0.00    -0.085 HD
BRANCH   4   7
ATOM      7  C   UNL     1      31.582 -11.894 -21.380  0.00  0.00    -0.084 C 
BRANCH   7   8
ATOM      8  C   UNL     1      31.662 -11.716 -19.862  0.00  0.00    -0.047 C 
BRANCH   8   9
ATOM      9  C   UNL     1      31.298 -10.303 -19.406  0.00  0.00    -0.088 C 
BRANCH   9  10
ATOM     10  N   UNL     1      32.507  -9.510 -19.207  0.00  0.00    +0.380 N 
ATOM     11  H   UNL     1      33.221  -9.804 -19.874  0.00  0.00    -0.089 HD
ATOM     12  H   UNL     1      32.851  -9.649 -18.257  0.00  0.00    -0.089 HD
ATOM     13  H   UNL     1      32.293  -8.524 -19.350  0.00  0.00    -0.089 HD
ENDBRANCH   9  10
ENDBRANCH   8   9
ENDBRANCH   7   8
ENDBRANCH   4   7
ENDBRANCH   3   4
ENDBRANCH   2   3
ENDBRANCH   1   2
BRANCH   1  14
ATOM     14  C   UNL     1      34.872 -16.916 -21.795  0.00  0.00    -0.082 C 
BRANCH  14  15
ATOM     15  N   UNL     1      34.952 -18.050 -20.881  0.00  0.00    +0.384 N 
ATOM     16  H   UNL     1      34.423 -17.836 -20.036  0.00  0.00    -0.085 HD
ATOM     17  H   UNL     1      35.932 -18.216 -20.655  0.00  0.00    -0.085 HD
BRANCH  15  18
ATOM     18  C   UNL     1      34.405 -19.251 -21.496  0.00  0.00    -0.084 C 
BRANCH  18  19
ATOM     19  C   UNL     1      33.335 -19.905 -20.621  0.00  0.00    -0.047 C 
BRANCH  19  20
ATOM     20  C   UNL     1      33.864 -21.099 -19.823  0.00  0.00    -0.088 C 
BRANCH  20  21
ATOM     21  N   UNL     1      32.762 -21.796 -19.169  0.00  0.00    +0.380 N 
ATOM     22  H   UNL     1      32.236 -22.327 -19.864  0.00  0.00    -0.089 HD
ATOM     23  H   UNL     1      32.145 -21.116 -18.723  0.00  0.00    -0.089 HD
ATOM     24  H   UNL     1      33.132 -22.432 -18.464  0.00  0.00    -0.089 HD
ENDBRANCH  20  21
ENDBRANCH  19  20
ENDBRANCH  18  19
ENDBRANCH  15  18
ENDBRANCH  14  15
ENDBRANCH   1  14
TORSDOF 13
ENDMDL
MODEL 5
REMARK VINA RESULT:      -5.3      2.343      4.327
REMARK  Name = 1103
REMARK  13 active torsions:
REMARK  status: ('A' for Active; 'I' for Inactive)
REMARK    1  A    between atoms: C_1  and  C_2
REMARK    2  A    between atoms: C_1  and  C_14
REMARK    3  A    between atoms: C_2  and  C_3
REMARK    4  A    between atoms: C_3  and  N_4
REMARK    5  A    between atoms: N_4  and  C_7
REMARK    6  A    between atoms: C_7  and  C_8
REMARK    7  A    between atoms: C_8  and  C_9
REMARK    8  A    between atoms: C_9  and  N_10
REMARK    9  A    between atoms: C_14  and  N_15
REMARK   10  A    between atoms: N_15  and  C_18
REMARK   11  A    between atoms: C_18  and  C_19
REMARK   12  A    between atoms: C_19  and  C_20
REMARK   13  A    between atoms: C_20  and  N_21
REMARK                            x       y       z     vdW  Elec       q    Type
REMARK                         _______ _______ _______ _____ _____    ______ ____
ROOT
ATOM      1  C   UNL     1      35.765 -18.443 -22.679  0.00  0.00    -0.026 C 
ENDROOT
BRANCH   1   2
ATOM      2  C   UNL     1      34.945 -19.090 -23.800  0.00  0.00    -0.026 C 
BRANCH   2   3
ATOM      3  C   UNL     1      34.525 -18.106 -24.894  0.00  0.00    -0.082 C 
BRANCH   3   4
ATOM      4  N   UNL     1      35.043 -16.764 -24.661  0.00  0.00    +0.384 N 
ATOM      5  H   UNL     1      35.769 -16.562 -25.349  0.00  0.00    -0.085 HD
ATOM      6  H   UNL     1      35.426 -16.721 -23.717  0.00  0.00    -0.085 HD
BRANCH   4   7
ATOM      7  C   UNL     1      33.985 -15.771 -24.779  0.00  0.00    -0.084 C 
BRANCH   7   8
ATOM      8  C   UNL     1      33.954 -14.821 -23.580  0.00  0.00    -0.047 C 
BRANCH   8   9
ATOM      9  C   UNL     1      33.539 -15.512 -22.281  0.00  0.00    -0.088 C 
BRANCH   9  10
ATOM     10  N   UNL     1      34.575 -15.347 -21.268  0.00  0.00    +0.380 N 
ATOM     11  H   UNL     1      35.163 -14.550 -21.508  0.00  0.00    -0.089 HD
ATOM     12  H   UNL     1      35.147 -16.191 -21.227  0.00  0.00    -0.089 HD
ATOM     13  H   UNL     1      34.140 -15.188 -20.360  0.00  0.00    -0.089 HD
ENDBRANCH   9  10
ENDBRANCH   8   9
ENDBRANCH   7   8
ENDBRANCH   4   7
ENDBRANCH   3   4
ENDBRANCH   2   3
ENDBRANCH   1   2
BRANCH   1  14
ATOM     14  C   UNL     1      35.305 -18.937 -21.307  0.00  0.00    -0.082 C 
BRANCH  14  15
ATOM     15  N   UNL     1      33.852 -19.063 -21.274  0.00  0.00    +0.384 N 
ATOM     16  H   UNL     1      33.511 -19.233 -22.219  0.00  0.00    -0.085 HD
ATOM     17  H   UNL     1      33.459 -18.198 -20.903  0.00  0.00    -0.085 HD
BRANCH  15  18
ATOM     18  C   UNL     1      33.447 -20.165 -20.413  0.00  0.00    -0.084 C 
BRANCH  18  19
ATOM     19  C   UNL     1      34.634 -21.040 -20.005  0.00  0.00    -0.047 C 
BRANCH  19  20
ATOM     20  C   UNL     1      34.237 -22.190 -19.079  0.00  0.00    -0.088 C 
BRANCH  20  21
ATOM     21  N   UNL     1      32.794 -22.184 -18.860  0.00  0.00    +0.380 N 
ATOM     22  H   UNL     1      32.314 -22.149 -19.759  0.00  0.00    -0.089 HD
ATOM     23  H   UNL     1      32.537 -21.368 -18.305  0.00  0.00    -0.089 HD
ATOM     24  H   UNL     1      32.522 -23.032 -18.363  0.00  0.00    -0.089 HD
ENDBRANCH  20  21
ENDBRANCH  19  20
ENDBRANCH  18  19
ENDBRANCH  15  18
ENDBRANCH  14  15
ENDBRANCH   1  14
TORSDOF 13
ENDMDL
MODEL 6
REMARK VINA RESULT:      -5.3      1.192      7.833
REMARK  Name = 1103
REMARK  13 active torsions:
REMARK  status: ('A' for Active; 'I' for Inactive)
REMARK    1  A    between atoms: C_1  and  C_2
REMARK    2  A    between atoms: C_1  and  C_14
REMARK    3  A    between atoms: C_2  and  C_3
REMARK    4  A    between atoms: C_3  and  N_4
REMARK    5  A    between atoms: N_4  and  C_7
REMARK    6  A    between atoms: C_7  and  C_8
REMARK    7  A    between atoms: C_8  and  C_9
REMARK    8  A    between atoms: C_9  and  N_10
REMARK    9  A    between atoms: C_14  and  N_15
REMARK   10  A    between atoms: N_15  and  C_18
REMARK   11  A    between atoms: C_18  and  C_19
REMARK   12  A    between atoms: C_19  and  C_20
REMARK   13  A    between atoms: C_20  and  N_21
REMARK                            x       y       z     vdW  Elec       q    Type
REMARK                         _______ _______ _______ _____ _____    ______ ____
ROOT
ATOM      1  C   UNL     1      35.977 -21.075 -19.980  0.00  0.00    -0.026 C 
ENDROOT
BRANCH   1   2
ATOM      2  C   UNL     1      35.042 -21.938 -19.126  0.00  0.00    -0.026 C 
BRANCH   2   3
ATOM      3  C   UNL     1      33.558 -21.683 -19.396  0.00  0.00    -0.082 C 
BRANCH   3   4
ATOM      4  N   UNL     1      32.694 -22.413 -18.476  0.00  0.00    +0.384 N 
ATOM      5  H   UNL     1      32.125 -23.074 -19.006  0.00  0.00    -0.085 HD
ATOM      6  H   UNL     1      32.100 -21.745 -17.986  0.00  0.00    -0.085 HD
BRANCH   4   7
ATOM      7  C   UNL     1      33.481 -23.144 -17.493  0.00  0.00    -0.084 C 
BRANCH   7   8
ATOM      8  C   UNL     1      32.716 -23.351 -16.184  0.00  0.00    -0.047 C 
BRANCH   8   9
ATOM      9  C   UNL     1      33.614 -23.799 -15.031  0.00  0.00    -0.088 C 
BRANCH   9  10
ATOM     10  N   UNL     1      34.578 -22.753 -14.706  0.00  0.00    +0.380 N 
ATOM     11  H   UNL     1      35.520 -23.079 -14.922  0.00  0.00    -0.089 HD
ATOM     12  H   UNL     1      34.514 -22.529 -13.713  0.00  0.00    -0.089 HD
ATOM     13  H   UNL     1      34.372 -21.920 -15.256  0.00  0.00    -0.089 HD
ENDBRANCH   9  10
ENDBRANCH   8   9
ENDBRANCH   7   8
ENDBRANCH   4   7
ENDBRANCH   3   4
ENDBRANCH   2   3
ENDBRANCH   1   2
BRANCH   1  14
ATOM     14  C   UNL     1      35.198 -19.984 -20.716  0.00  0.00    -0.082 C 
BRANCH  14  15
ATOM     15  N   UNL     1      35.975 -18.751 -20.765  0.00  0.00    +0.384 N 
ATOM     16  H   UNL     1      36.949 -18.962 -20.547  0.00  0.00    -0.085 HD
ATOM     17  H   UNL     1      35.591 -18.097 -20.083  0.00  0.00    -0.085 HD
BRANCH  15  18
ATOM     18  C   UNL     1      35.902 -18.143 -22.086  0.00  0.00    -0.084 C 
BRANCH  18  19
ATOM     19  C   UNL     1      35.017 -18.950 -23.038  0.00  0.00    -0.047 C 
BRANCH  19  20
ATOM     20  C   UNL     1      34.746 -18.225 -24.358  0.00  0.00    -0.088 C 
BRANCH  20  21
ATOM     21  N   UNL     1      35.318 -16.883 -24.321  0.00  0.00    +0.380 N 
ATOM     22  H   UNL     1      35.105 -16.399 -25.194  0.00  0.00    -0.089 HD
ATOM     23  H   UNL     1      36.330 -16.947 -24.207  0.00  0.00    -0.089 HD
ATOM     24  H   UNL     1      34.920 -16.365 -23.539  0.00  0.00    -0.089 HD
ENDBRANCH  20  21
ENDBRANCH  19  20
ENDBRANCH  18  19
ENDBRANCH  15  18
ENDBRANCH  14  15
ENDBRANCH   1  14
TORSDOF 13
ENDMDL
MODEL 7
REMARK VINA RESULT:      -5.3      4.051      9.043
REMARK  Name = 1103
REMARK  13 active torsions:
REMARK  status: ('A' for Active; 'I' for Inactive)
REMARK    1  A    between atoms: C_1  and  C_2
REMARK    2  A    between atoms: C_1  and  C_14
REMARK    3  A    between atoms: C_2  and  C_3
REMARK    4  A    between atoms: C_3  and  N_4
REMARK    5  A    between atoms: N_4  and  C_7
REMARK    6  A    between atoms: C_7  and  C_8
REMARK    7  A    between atoms: C_8  and  C_9
REMARK    8  A    between atoms: C_9  and  N_10
REMARK    9  A    between atoms: C_14  and  N_15
REMARK   10  A    between atoms: N_15  and  C_18
REMARK   11  A    between atoms: C_18  and  C_19
REMARK   12  A    between atoms: C_19  and  C_20
REMARK   13  A    between atoms: C_20  and  N_21
REMARK                            x       y       z     vdW  Elec       q    Type
REMARK                         _______ _______ _______ _____ _____    ______ ____
ROOT
ATOM      1  C   UNL     1      32.778 -15.062 -21.190  0.00  0.00    -0.026 C 
ENDROOT
BRANCH   1   2
ATOM      2  C   UNL     1      34.203 -15.412 -20.748  0.00  0.00    -0.026 C 
BRANCH   2   3
ATOM      3  C   UNL     1      34.837 -16.539 -21.565  0.00  0.00    -0.082 C 
BRANCH   3   4
ATOM      4  N   UNL     1      35.341 -17.618 -20.723  0.00  0.00    +0.384 N 
ATOM      5  H   UNL     1      34.714 -17.741 -19.927  0.00  0.00    -0.085 HD
ATOM      6  H   UNL     1      36.278 -17.372 -20.404  0.00  0.00    -0.085 HD
BRANCH   4   7
ATOM      7  C   UNL     1      35.417 -18.866 -21.468  0.00  0.00    -0.084 C 
BRANCH   7   8
ATOM      8  C   UNL     1      34.754 -20.023 -20.717  0.00  0.00    -0.047 C 
BRANCH   8   9
ATOM      9  C   UNL     1      33.227 -19.935 -20.711  0.00  0.00    -0.088 C 
BRANCH   9  10
ATOM     10  N   UNL     1      32.680 -20.740 -19.625  0.00  0.00    +0.380 N 
ATOM     11  H   UNL     1      32.257 -21.586 -20.006  0.00  0.00    -0.089 HD
ATOM     12  H   UNL     1      31.971 -20.201 -19.127  0.00  0.00    -0.089 HD
ATOM     13  H   UNL     1      33.428 -20.994 -18.980  0.00  0.00    -0.089 HD
ENDBRANCH   9  10
ENDBRANCH   8   9
ENDBRANCH   7   8
ENDBRANCH   4   7
ENDBRANCH   3   4
ENDBRANCH   2   3
ENDBRANCH   1   2
BRANCH   1  14
ATOM     14  C   UNL     1      32.516 -13.562 -21.066  0.00  0.00    -0.082 C 
BRANCH  14  15
ATOM     15  N   UNL     1      31.859 -13.060 -22.267  0.00  0.00    +0.384 N 
ATOM     16  H   UNL     1      31.858 -12.040 -22.246  0.00  0.00    -0.085 HD
ATOM     17  H   UNL     1      30.905 -13.417 -22.289  0.00  0.00    -0.085 HD
BRANCH  15  18
ATOM     18  C   UNL     1      32.553 -13.511 -23.465  0.00  0.00    -0.084 C 
BRANCH  18  19
ATOM     19  C   UNL     1      33.878 -12.774 -23.671  0.00  0.00    -0.047 C 
BRANCH  19  20
ATOM     20  C   UNL     1      33.792 -11.683 -24.741  0.00  0.00    -0.088 C 
BRANCH  20  21
ATOM     21  N   UNL     1      34.935 -10.782 -24.633  0.00  0.00    +0.380 N 
ATOM     22  H   UNL     1      35.651 -11.210 -24.045  0.00  0.00    -0.089 HD
ATOM     23  H   UNL     1      34.636  -9.900 -24.216  0.00  0.00    -0.089 HD
ATOM     24  H   UNL     1      35.318 -10.606 -25.561  0.00  0.00    -0.089 HD
ENDBRANCH  20  21
ENDBRANCH  19  20
ENDBRANCH  18  19
ENDBRANCH  15  18
ENDBRANCH  14  15
ENDBRANCH   1  14
TORSDOF 13
ENDMDL
MODEL 8
REMARK VINA RESULT:      -5.2      3.344      4.746
REMARK  Name = 1103
REMARK  13 active torsions:
REMARK  status: ('A' for Active; 'I' for Inactive)
REMARK    1  A    between atoms: C_1  and  C_2
REMARK    2  A    between atoms: C_1  and  C_14
REMARK    3  A    between atoms: C_2  and  C_3
REMARK    4  A    between atoms: C_3  and  N_4
REMARK    5  A    between atoms: N_4  and  C_7
REMARK    6  A    between atoms: C_7  and  C_8
REMARK    7  A    between atoms: C_8  and  C_9
REMARK    8  A    between atoms: C_9  and  N_10
REMARK    9  A    between atoms: C_14  and  N_15
REMARK   10  A    between atoms: N_15  and  C_18
REMARK   11  A    between atoms: C_18  and  C_19
REMARK   12  A    between atoms: C_19  and  C_20
REMARK   13  A    between atoms: C_20  and  N_21
REMARK                            x       y       z     vdW  Elec       q    Type
REMARK                         _______ _______ _______ _____ _____    ______ ____
ROOT
ATOM      1  C   UNL     1      35.311 -19.041 -23.069  0.00  0.00    -0.026 C 
ENDROOT
BRANCH   1   2
ATOM      2  C   UNL     1      34.573 -18.747 -24.380  0.00  0.00    -0.026 C 
BRANCH   2   3
ATOM      3  C   UNL     1      34.712 -17.297 -24.847  0.00  0.00    -0.082 C 
BRANCH   3   4
ATOM      4  N   UNL     1      35.462 -16.480 -23.901  0.00  0.00    +0.384 N 
ATOM      5  H   UNL     1      36.298 -16.118 -24.362  0.00  0.00    -0.085 HD
ATOM      6  H   UNL     1      35.718 -17.058 -23.102  0.00  0.00    -0.085 HD
BRANCH   4   7
ATOM      7  C   UNL     1      34.657 -15.363 -23.428  0.00  0.00    -0.084 C 
BRANCH   7   8
ATOM      8  C   UNL     1      34.255 -15.527 -21.961  0.00  0.00    -0.047 C 
BRANCH   8   9
ATOM      9  C   UNL     1      32.808 -15.115 -21.688  0.00  0.00    -0.088 C 
BRANCH   9  10
ATOM     10  N   UNL     1      32.756 -14.136 -20.608  0.00  0.00    +0.380 N 
ATOM     11  H   UNL     1      33.594 -14.219 -20.033  0.00  0.00    -0.089 HD
ATOM     12  H   UNL     1      31.931 -14.307 -20.034  0.00  0.00    -0.089 HD
ATOM     13  H   UNL     1      32.706 -13.198 -21.004  0.00  0.00    -0.089 HD
ENDBRANCH   9  10
ENDBRANCH   8   9
ENDBRANCH   7   8
ENDBRANCH   4   7
ENDBRANCH   3   4
ENDBRANCH   2   3
ENDBRANCH   1   2
BRANCH   1  14
ATOM     14  C   UNL     1      34.326 -19.260 -21.921  0.00  0.00    -0.082 C 
BRANCH  14  15
ATOM     15  N   UNL     1      35.037 -19.345 -20.651  0.00  0.00    +0.384 N 
ATOM     16  H   UNL     1      34.469 -18.915 -19.921  0.00  0.00    -0.085 HD
ATOM     17  H   UNL     1      35.927 -18.857 -20.744  0.00  0.00    -0.085 HD
BRANCH  15  18
ATOM     18  C   UNL     1      35.301 -20.732 -20.296  0.00  0.00    -0.084 C 
BRANCH  18  19
ATOM     19  C   UNL     1      36.644 -20.894 -19.581  0.00  0.00    -0.047 C 
BRANCH  19  20
ATOM     20  C   UNL     1      36.527 -21.655 -18.259  0.00  0.00    -0.088 C 
BRANCH  20  21
ATOM     21  N   UNL     1      37.131 -20.881 -17.178  0.00  0.00    +0.380 N 
ATOM     22  H   UNL     1      36.501 -20.867 -16.377  0.00  0.00    -0.089 HD
ATOM     23  H   UNL     1      37.300 -19.926 -17.496  0.00  0.00    -0.089 HD
ATOM     24  H   UNL     1      38.016 -21.310 -16.907  0.00  0.00    -0.089 HD
ENDBRANCH  20  21
ENDBRANCH  19  20
ENDBRANCH  18  19
ENDBRANCH  15  18
ENDBRANCH  14  15
ENDBRANCH   1  14
TORSDOF 13
ENDMDL
MODEL 9
REMARK VINA RESULT:      -5.2      2.783      5.017
REMARK  Name = 1103
REMARK  13 active torsions:
REMARK  status: ('A' for Active; 'I' for Inactive)
REMARK    1  A    between atoms: C_1  and  C_2
REMARK    2  A    between atoms: C_1  and  C_14
REMARK    3  A    between atoms: C_2  and  C_3
REMARK    4  A    between atoms: C_3  and  N_4
REMARK    5  A    between atoms: N_4  and  C_7
REMARK    6  A    between atoms: C_7  and  C_8
REMARK    7  A    between atoms: C_8  and  C_9
REMARK    8  A    between atoms: C_9  and  N_10
REMARK    9  A    between atoms: C_14  and  N_15
REMARK   10  A    between atoms: N_15  and  C_18
REMARK   11  A    between atoms: C_18  and  C_19
REMARK   12  A    between atoms: C_19  and  C_20
REMARK   13  A    between atoms: C_20  and  N_21
REMARK                            x       y       z     vdW  Elec       q    Type
REMARK                         _______ _______ _______ _____ _____    ______ ____
ROOT
ATOM      1  C   UNL     1      34.789 -16.210 -20.881  0.00  0.00    -0.026 C 
ENDROOT
BRANCH   1   2
ATOM      2  C   UNL     1      33.328 -15.876 -21.200  0.00  0.00    -0.026 C 
BRANCH   2   3
ATOM      3  C   UNL     1      33.059 -14.375 -21.324  0.00  0.00    -0.082 C 
BRANCH   3   4
ATOM      4  N   UNL     1      32.537 -14.013 -22.637  0.00  0.00    +0.384 N 
ATOM      5  H   UNL     1      32.109 -13.088 -22.583  0.00  0.00    -0.085 HD
ATOM      6  H   UNL     1      31.846 -14.709 -22.917  0.00  0.00    -0.085 HD
BRANCH   4   7
ATOM      7  C   UNL     1      33.601 -13.989 -23.630  0.00  0.00    -0.084 C 
BRANCH   7   8
ATOM      8  C   UNL     1      33.056 -14.084 -25.057  0.00  0.00    -0.047 C 
BRANCH   8   9
ATOM      9  C   UNL     1      33.403 -15.406 -25.743  0.00  0.00    -0.088 C 
BRANCH   9  10
ATOM     10  N   UNL     1      34.251 -16.217 -24.876  0.00  0.00    +0.380 N 
ATOM     11  H   UNL     1      33.674 -16.875 -24.353  0.00  0.00    -0.089 HD
ATOM     12  H   UNL     1      34.749 -15.610 -24.224  0.00  0.00    -0.089 HD
ATOM     13  H   UNL     1      34.924 -16.730 -25.444  0.00  0.00    -0.089 HD
ENDBRANCH   9  10
ENDBRANCH   8   9
ENDBRANCH   7   8
ENDBRANCH   4   7
ENDBRANCH   3   4
ENDBRANCH   2   3
ENDBRANCH   1   2
BRANCH   1  14
ATOM     14  C   UNL     1      35.243 -17.462 -21.631  0.00  0.00    -0.082 C 
BRANCH  14  15
ATOM     15  N   UNL     1      34.983 -18.654 -20.832  0.00  0.00    +0.384 N 
ATOM     16  H   UNL     1      34.658 -18.372 -19.907  0.00  0.00    -0.085 HD
ATOM     17  H   UNL     1      35.848 -19.190 -20.757  0.00  0.00    -0.085 HD
BRANCH  15  18
ATOM     18  C   UNL     1      33.970 -19.490 -21.460  0.00  0.00    -0.084 C 
BRANCH  18  19
ATOM     19  C   UNL     1      33.082 -20.187 -20.427  0.00  0.00    -0.047 C 
BRANCH  19  20
ATOM     20  C   UNL     1      33.831 -21.245 -19.614  0.00  0.00    -0.088 C 
BRANCH  20  21
ATOM     21  N   UNL     1      32.896 -22.238 -19.097  0.00  0.00    +0.380 N 
ATOM     22  H   UNL     1      32.858 -22.172 -18.080  0.00  0.00    -0.089 HD
ATOM     23  H   UNL     1      33.207 -23.172 -19.366  0.00  0.00    -0.089 HD
ATOM     24  H   UNL     1      31.968 -22.065 -19.484  0.00  0.00    -0.089 HD
ENDBRANCH  20  21
ENDBRANCH  19  20
ENDBRANCH  18  19
ENDBRANCH  15  18
ENDBRANCH  14  15
ENDBRANCH   1  14
TORSDOF 13
ENDMDL
