MODEL 1
REMARK VINA RESULT:     -10.1      0.000      0.000
REMARK  Name = 1989
REMARK  4 active torsions:
REMARK  status: ('A' for Active; 'I' for Inactive)
REMARK    1  A    between atoms: S_1  and  N_6
REMARK    2  A    between atoms: S_1  and  C_16
REMARK    3  A    between atoms: N_5  and  C_10
REMARK    4  A    between atoms: C_19  and  C_23
REMARK                            x       y       z     vdW  Elec       q    Type
REMARK                         _______ _______ _______ _____ _____    ______ ____
ROOT
ATOM      1  S   UNL     1      34.388 -22.578 -18.979  0.00  0.00    +0.077 S 
ATOM      2  O   UNL     1      35.407 -22.515 -17.949  0.00  0.00    -0.150 OA
ATOM      3  O   UNL     1      34.382 -23.663 -19.941  0.00  0.00    -0.150 OA
ENDROOT
BRANCH   1   6
ATOM      4  O   UNL     1      33.153 -23.921 -16.465  0.00  0.00    -0.251 OA
ATOM      5  N   UNL     1      31.119 -22.854 -16.728  0.00  0.00    -0.289 N 
ATOM      6  N   UNL     1      32.844 -22.454 -18.256  0.00  0.00    -0.169 N 
ATOM      7  C   UNL     1      32.421 -23.150 -17.081  0.00  0.00    +0.319 C 
ATOM      8  H   UNL     1      30.612 -22.222 -17.288  0.00  0.00    +0.151 HD
ATOM      9  H   UNL     1      32.193 -21.852 -18.685  0.00  0.00    +0.178 HD
BRANCH   5  10
ATOM     10  C   UNL     1      30.466 -23.430 -15.574  0.00  0.00    +0.073 C 
ATOM     11  C   UNL     1      29.623 -22.383 -14.838  0.00  0.00    +0.020 C 
ATOM     12  C   UNL     1      29.621 -24.646 -15.968  0.00  0.00    +0.020 C 
ATOM     13  C   UNL     1      28.362 -21.998 -15.612  0.00  0.00    +0.002 C 
ATOM     14  C   UNL     1      28.361 -24.258 -16.741  0.00  0.00    +0.002 C 
ATOM     15  C   UNL     1      27.533 -23.223 -15.984  0.00  0.00    +0.000 C 
ENDBRANCH   5  10
ENDBRANCH   1   6
BRANCH   1  16
ATOM     16  C   UNL     1      34.451 -21.073 -19.906  0.00  0.00    +0.125 C 
ATOM     17  C   UNL     1      35.680 -20.560 -20.279  0.00  0.00    +0.020 C 
ATOM     18  C   UNL     1      33.267 -20.437 -20.239  0.00  0.00    +0.020 C 
ATOM     19  C   UNL     1      34.547 -18.717 -21.353  0.00  0.00    +0.035 C 
ATOM     20  C   UNL     1      35.729 -19.372 -21.008  0.00  0.00    +0.004 C 
ATOM     21  C   UNL     1      33.316 -19.249 -20.968  0.00  0.00    +0.004 C 
BRANCH  19  23
ATOM     22  O   UNL     1      34.620 -17.483 -23.362  0.00  0.00    -0.291 OA
ATOM     23  C   UNL     1      34.598 -17.478 -22.115  0.00  0.00    +0.173 C 
ATOM     24  C   UNL     1      34.626 -16.134 -21.395  0.00  0.00    +0.077 C 
ENDBRANCH  19  23
ENDBRANCH   1  16
TORSDOF 4
ENDMDL
MODEL 2
REMARK VINA RESULT:      -9.6      3.428      4.874
REMARK  Name = 1989
REMARK  4 active torsions:
REMARK  status: ('A' for Active; 'I' for Inactive)
REMARK    1  A    between atoms: S_1  and  N_6
REMARK    2  A    between atoms: S_1  and  C_16
REMARK    3  A    between atoms: N_5  and  C_10
REMARK    4  A    between atoms: C_19  and  C_23
REMARK                            x       y       z     vdW  Elec       q    Type
REMARK                         _______ _______ _______ _____ _____    ______ ____
ROOT
ATOM      1  S   UNL     1      33.652 -22.703 -18.714  0.00  0.00    +0.077 S 
ATOM      2  O   UNL     1      33.841 -23.889 -19.528  0.00  0.00    -0.150 OA
ATOM      3  O   UNL     1      32.362 -22.419 -18.117  0.00  0.00    -0.150 OA
ENDROOT
BRANCH   1   6
ATOM      4  O   UNL     1      33.785 -23.908 -15.854  0.00  0.00    -0.251 OA
ATOM      5  N   UNL     1      35.896 -23.056 -15.447  0.00  0.00    -0.289 N 
ATOM      6  N   UNL     1      34.859 -22.651 -17.504  0.00  0.00    -0.169 N 
ATOM      7  C   UNL     1      34.768 -23.266 -16.216  0.00  0.00    +0.319 C 
ATOM      8  H   UNL     1      36.633 -22.526 -15.828  0.00  0.00    +0.151 HD
ATOM      9  H   UNL     1      35.686 -22.158 -17.713  0.00  0.00    +0.178 HD
BRANCH   5  10
ATOM     10  C   UNL     1      36.044 -23.582 -14.108  0.00  0.00    +0.073 C 
ATOM     11  C   UNL     1      35.574 -25.039 -14.033  0.00  0.00    +0.020 C 
ATOM     12  C   UNL     1      37.488 -23.439 -13.617  0.00  0.00    +0.020 C 
ATOM     13  C   UNL     1      36.533 -26.000 -14.736  0.00  0.00    +0.002 C 
ATOM     14  C   UNL     1      38.444 -24.402 -14.320  0.00  0.00    +0.002 C 
ATOM     15  C   UNL     1      37.961 -25.846 -14.223  0.00  0.00    +0.000 C 
ENDBRANCH   5  10
ENDBRANCH   1   6
BRANCH   1  16
ATOM     16  C   UNL     1      34.088 -21.293 -19.688  0.00  0.00    +0.125 C 
ATOM     17  C   UNL     1      35.425 -20.985 -19.870  0.00  0.00    +0.020 C 
ATOM     18  C   UNL     1      33.083 -20.524 -20.249  0.00  0.00    +0.020 C 
ATOM     19  C   UNL     1      34.769 -19.085 -21.209  0.00  0.00    +0.035 C 
ATOM     20  C   UNL     1      35.768 -19.871 -20.636  0.00  0.00    +0.004 C 
ATOM     21  C   UNL     1      33.427 -19.411 -21.016  0.00  0.00    +0.004 C 
BRANCH  19  23
ATOM     22  O   UNL     1      35.281 -16.799 -21.493  0.00  0.00    -0.291 OA
ATOM     23  C   UNL     1      35.128 -17.924 -22.010  0.00  0.00    +0.173 C 
ATOM     24  C   UNL     1      35.325 -18.060 -23.516  0.00  0.00    +0.077 C 
ENDBRANCH  19  23
ENDBRANCH   1  16
TORSDOF 4
ENDMDL
MODEL 3
REMARK VINA RESULT:      -9.4      3.888      5.350
REMARK  Name = 1989
REMARK  4 active torsions:
REMARK  status: ('A' for Active; 'I' for Inactive)
REMARK    1  A    between atoms: S_1  and  N_6
REMARK    2  A    between atoms: S_1  and  C_16
REMARK    3  A    between atoms: N_5  and  C_10
REMARK    4  A    between atoms: C_19  and  C_23
REMARK                            x       y       z     vdW  Elec       q    Type
REMARK                         _______ _______ _______ _____ _____    ______ ____
ROOT
ATOM      1  S   UNL     1      33.386 -23.204 -17.744  0.00  0.00    +0.077 S 
ATOM      2  O   UNL     1      33.484 -24.510 -18.367  0.00  0.00    -0.150 OA
ATOM      3  O   UNL     1      32.102 -22.694 -17.304  0.00  0.00    -0.150 OA
ENDROOT
BRANCH   1   6
ATOM      4  O   UNL     1      33.532 -24.660 -15.003  0.00  0.00    -0.251 OA
ATOM      5  N   UNL     1      35.472 -23.571 -14.375  0.00  0.00    -0.289 N 
ATOM      6  N   UNL     1      34.504 -23.108 -16.454  0.00  0.00    -0.169 N 
ATOM      7  C   UNL     1      34.430 -23.856 -15.236  0.00  0.00    +0.319 C 
ATOM      8  H   UNL     1      36.146 -22.909 -14.654  0.00  0.00    +0.151 HD
ATOM      9  H   UNL     1      35.261 -22.487 -16.559  0.00  0.00    +0.178 HD
BRANCH   5  10
ATOM     10  C   UNL     1      35.620 -24.203 -13.083  0.00  0.00    +0.073 C 
ATOM     11  C   UNL     1      36.461 -25.481 -13.187  0.00  0.00    +0.020 C 
ATOM     12  C   UNL     1      36.213 -23.230 -12.059  0.00  0.00    +0.020 C 
ATOM     13  C   UNL     1      37.939 -25.188 -13.440  0.00  0.00    +0.002 C 
ATOM     14  C   UNL     1      37.692 -22.941 -12.314  0.00  0.00    +0.002 C 
ATOM     15  C   UNL     1      38.510 -24.227 -12.402  0.00  0.00    +0.000 C 
ENDBRANCH   5  10
ENDBRANCH   1   6
BRANCH   1  16
ATOM     16  C   UNL     1      34.056 -22.010 -18.862  0.00  0.00    +0.125 C 
ATOM     17  C   UNL     1      33.196 -21.185 -19.565  0.00  0.00    +0.020 C 
ATOM     18  C   UNL     1      35.429 -21.922 -19.013  0.00  0.00    +0.020 C 
ATOM     19  C   UNL     1      35.106 -20.142 -20.613  0.00  0.00    +0.035 C 
ATOM     20  C   UNL     1      33.724 -20.244 -20.448  0.00  0.00    +0.004 C 
ATOM     21  C   UNL     1      35.958 -20.982 -19.896  0.00  0.00    +0.004 C 
BRANCH  19  23
ATOM     22  O   UNL     1      36.641 -18.459 -21.224  0.00  0.00    -0.291 OA
ATOM     23  C   UNL     1      35.657 -19.159 -21.534  0.00  0.00    +0.173 C 
ATOM     24  C   UNL     1      35.035 -18.964 -22.912  0.00  0.00    +0.077 C 
ENDBRANCH  19  23
ENDBRANCH   1  16
TORSDOF 4
ENDMDL
MODEL 4
REMARK VINA RESULT:      -8.6      8.447     11.688
REMARK  Name = 1989
REMARK  4 active torsions:
REMARK  status: ('A' for Active; 'I' for Inactive)
REMARK    1  A    between atoms: S_1  and  N_6
REMARK    2  A    between atoms: S_1  and  C_16
REMARK    3  A    between atoms: N_5  and  C_10
REMARK    4  A    between atoms: C_19  and  C_23
REMARK                            x       y       z     vdW  Elec       q    Type
REMARK                         _______ _______ _______ _____ _____    ______ ____
ROOT
ATOM      1  S   UNL     1      34.253 -10.974 -25.003  0.00  0.00    +0.077 S 
ATOM      2  O   UNL     1      35.513 -10.497 -25.541  0.00  0.00    -0.150 OA
ATOM      3  O   UNL     1      33.137 -11.254 -25.884  0.00  0.00    -0.150 OA
ENDROOT
BRANCH   1   6
ATOM      4  O   UNL     1      32.648 -13.593 -24.538  0.00  0.00    -0.251 OA
ATOM      5  N   UNL     1      34.181 -14.424 -23.020  0.00  0.00    -0.289 N 
ATOM      6  N   UNL     1      34.543 -12.335 -24.008  0.00  0.00    -0.169 N 
ATOM      7  C   UNL     1      33.692 -13.480 -23.902  0.00  0.00    +0.319 C 
ATOM      8  H   UNL     1      35.031 -14.240 -22.557  0.00  0.00    +0.151 HD
ATOM      9  H   UNL     1      35.364 -12.329 -23.465  0.00  0.00    +0.178 HD
BRANCH   5  10
ATOM     10  C   UNL     1      33.502 -15.670 -22.746  0.00  0.00    +0.073 C 
ATOM     11  C   UNL     1      34.226 -16.849 -23.406  0.00  0.00    +0.020 C 
ATOM     12  C   UNL     1      33.341 -15.890 -21.238  0.00  0.00    +0.020 C 
ATOM     13  C   UNL     1      35.548 -17.183 -22.715  0.00  0.00    +0.002 C 
ATOM     14  C   UNL     1      34.666 -16.226 -20.552  0.00  0.00    +0.002 C 
ATOM     15  C   UNL     1      35.362 -17.408 -21.219  0.00  0.00    +0.000 C 
ENDBRANCH   5  10
ENDBRANCH   1   6
BRANCH   1  16
ATOM     16  C   UNL     1      33.684  -9.799 -23.811  0.00  0.00    +0.125 C 
ATOM     17  C   UNL     1      34.354  -8.596 -23.675  0.00  0.00    +0.020 C 
ATOM     18  C   UNL     1      32.578 -10.105 -23.037  0.00  0.00    +0.020 C 
ATOM     19  C   UNL     1      32.793  -7.961 -21.945  0.00  0.00    +0.035 C 
ATOM     20  C   UNL     1      33.905  -7.670 -22.734  0.00  0.00    +0.004 C 
ATOM     21  C   UNL     1      32.129  -9.179 -22.096  0.00  0.00    +0.004 C 
BRANCH  19  23
ATOM     22  O   UNL     1      32.664  -7.066 -19.766  0.00  0.00    -0.291 OA
ATOM     23  C   UNL     1      32.324  -6.994 -20.964  0.00  0.00    +0.173 C 
ATOM     24  C   UNL     1      31.397  -5.859 -21.386  0.00  0.00    +0.077 C 
ENDBRANCH  19  23
ENDBRANCH   1  16
TORSDOF 4
ENDMDL
MODEL 5
REMARK VINA RESULT:      -8.5      7.059      9.773
REMARK  Name = 1989
REMARK  4 active torsions:
REMARK  status: ('A' for Active; 'I' for Inactive)
REMARK    1  A    between atoms: S_1  and  N_6
REMARK    2  A    between atoms: S_1  and  C_16
REMARK    3  A    between atoms: N_5  and  C_10
REMARK    4  A    between atoms: C_19  and  C_23
REMARK                            x       y       z     vdW  Elec       q    Type
REMARK                         _______ _______ _______ _____ _____    ______ ____
ROOT
ATOM      1  S   UNL     1      33.391 -13.586 -24.354  0.00  0.00    +0.077 S 
ATOM      2  O   UNL     1      34.341 -12.814 -25.132  0.00  0.00    -0.150 OA
ATOM      3  O   UNL     1      32.233 -14.182 -24.989  0.00  0.00    -0.150 OA
ENDROOT
BRANCH   1   6
ATOM      4  O   UNL     1      34.383 -16.429 -25.119  0.00  0.00    -0.251 OA
ATOM      5  N   UNL     1      35.284 -16.826 -23.028  0.00  0.00    -0.289 N 
ATOM      6  N   UNL     1      34.229 -14.784 -23.468  0.00  0.00    -0.169 N 
ATOM      7  C   UNL     1      34.620 -16.065 -23.971  0.00  0.00    +0.319 C 
ATOM      8  H   UNL     1      35.426 -16.444 -22.131  0.00  0.00    +0.151 HD
ATOM      9  H   UNL     1      34.463 -14.574 -22.534  0.00  0.00    +0.178 HD
BRANCH   5  10
ATOM     10  C   UNL     1      35.782 -18.156 -23.299  0.00  0.00    +0.073 C 
ATOM     11  C   UNL     1      36.876 -18.549 -22.299  0.00  0.00    +0.020 C 
ATOM     12  C   UNL     1      34.642 -19.180 -23.306  0.00  0.00    +0.020 C 
ATOM     13  C   UNL     1      36.320 -18.821 -20.902  0.00  0.00    +0.002 C 
ATOM     14  C   UNL     1      34.090 -19.451 -21.906  0.00  0.00    +0.002 C 
ATOM     15  C   UNL     1      35.196 -19.851 -20.933  0.00  0.00    +0.000 C 
ENDBRANCH   5  10
ENDBRANCH   1   6
BRANCH   1  16
ATOM     16  C   UNL     1      32.787 -12.559 -23.047  0.00  0.00    +0.125 C 
ATOM     17  C   UNL     1      32.316 -13.149 -21.887  0.00  0.00    +0.020 C 
ATOM     18  C   UNL     1      32.796 -11.185 -23.210  0.00  0.00    +0.020 C 
ATOM     19  C   UNL     1      31.839 -10.952 -21.004  0.00  0.00    +0.035 C 
ATOM     20  C   UNL     1      31.838 -12.340 -20.858  0.00  0.00    +0.004 C 
ATOM     21  C   UNL     1      32.318 -10.375 -22.180  0.00  0.00    +0.004 C 
BRANCH  19  23
ATOM     22  O   UNL     1      30.491 -10.523 -19.117  0.00  0.00    -0.291 OA
ATOM     23  C   UNL     1      31.341 -10.108 -19.929  0.00  0.00    +0.173 C 
ATOM     24  C   UNL     1      31.856  -8.681 -19.772  0.00  0.00    +0.077 C 
ENDBRANCH  19  23
ENDBRANCH   1  16
TORSDOF 4
ENDMDL
MODEL 6
REMARK VINA RESULT:      -8.3      7.127     10.099
REMARK  Name = 1989
REMARK  4 active torsions:
REMARK  status: ('A' for Active; 'I' for Inactive)
REMARK    1  A    between atoms: S_1  and  N_6
REMARK    2  A    between atoms: S_1  and  C_16
REMARK    3  A    between atoms: N_5  and  C_10
REMARK    4  A    between atoms: C_19  and  C_23
REMARK                            x       y       z     vdW  Elec       q    Type
REMARK                         _______ _______ _______ _____ _____    ______ ____
ROOT
ATOM      1  S   UNL     1      33.481 -14.152 -25.754  0.00  0.00    +0.077 S 
ATOM      2  O   UNL     1      34.376 -14.147 -26.895  0.00  0.00    -0.150 OA
ATOM      3  O   UNL     1      32.076 -14.464 -25.923  0.00  0.00    -0.150 OA
ENDROOT
BRANCH   1   6
ATOM      4  O   UNL     1      34.706 -17.006 -25.818  0.00  0.00    -0.251 OA
ATOM      5  N   UNL     1      35.127 -17.024 -23.545  0.00  0.00    -0.289 N 
ATOM      6  N   UNL     1      34.136 -15.146 -24.526  0.00  0.00    -0.169 N 
ATOM      7  C   UNL     1      34.668 -16.459 -24.719  0.00  0.00    +0.319 C 
ATOM      8  H   UNL     1      35.053 -16.503 -22.712  0.00  0.00    +0.151 HD
ATOM      9  H   UNL     1      34.148 -14.782 -23.610  0.00  0.00    +0.178 HD
BRANCH   5  10
ATOM     10  C   UNL     1      35.715 -18.343 -23.483  0.00  0.00    +0.073 C 
ATOM     11  C   UNL     1      36.719 -18.447 -22.331  0.00  0.00    +0.020 C 
ATOM     12  C   UNL     1      34.632 -19.423 -23.375  0.00  0.00    +0.020 C 
ATOM     13  C   UNL     1      36.039 -18.463 -20.962  0.00  0.00    +0.002 C 
ATOM     14  C   UNL     1      33.956 -19.438 -22.004  0.00  0.00    +0.002 C 
ATOM     15  C   UNL     1      34.975 -19.552 -20.874  0.00  0.00    +0.000 C 
ENDBRANCH   5  10
ENDBRANCH   1   6
BRANCH   1  16
ATOM     16  C   UNL     1      33.564 -12.563 -24.983  0.00  0.00    +0.125 C 
ATOM     17  C   UNL     1      32.936 -12.369 -23.765  0.00  0.00    +0.020 C 
ATOM     18  C   UNL     1      34.256 -11.543 -25.614  0.00  0.00    +0.020 C 
ATOM     19  C   UNL     1      33.693 -10.075 -23.780  0.00  0.00    +0.035 C 
ATOM     20  C   UNL     1      33.001 -11.115 -23.159  0.00  0.00    +0.004 C 
ATOM     21  C   UNL     1      34.320 -10.289 -25.007  0.00  0.00    +0.004 C 
BRANCH  19  23
ATOM     22  O   UNL     1      32.946  -8.429 -22.264  0.00  0.00    -0.291 OA
ATOM     23  C   UNL     1      33.761  -8.766 -23.146  0.00  0.00    +0.173 C 
ATOM     24  C   UNL     1      34.841  -7.771 -23.553  0.00  0.00    +0.077 C 
ENDBRANCH  19  23
ENDBRANCH   1  16
TORSDOF 4
ENDMDL
MODEL 7
REMARK VINA RESULT:      -8.2      8.802     13.367
REMARK  Name = 1989
REMARK  4 active torsions:
REMARK  status: ('A' for Active; 'I' for Inactive)
REMARK    1  A    between atoms: S_1  and  N_6
REMARK    2  A    between atoms: S_1  and  C_16
REMARK    3  A    between atoms: N_5  and  C_10
REMARK    4  A    between atoms: C_19  and  C_23
REMARK                            x       y       z     vdW  Elec       q    Type
REMARK                         _______ _______ _______ _____ _____    ______ ____
ROOT
ATOM      1  S   UNL     1      31.405 -11.378 -20.928  0.00  0.00    +0.077 S 
ATOM      2  O   UNL     1      32.054 -11.059 -19.671  0.00  0.00    -0.150 OA
ATOM      3  O   UNL     1      29.997 -11.720 -20.961  0.00  0.00    -0.150 OA
ENDROOT
BRANCH   1   6
ATOM      4  O   UNL     1      32.623  -8.538 -20.609  0.00  0.00    -0.251 OA
ATOM      5  N   UNL     1      32.413  -8.048 -22.858  0.00  0.00    -0.289 N 
ATOM      6  N   UNL     1      31.711 -10.129 -22.055  0.00  0.00    -0.169 N 
ATOM      7  C   UNL     1      32.285  -8.856 -21.746  0.00  0.00    +0.319 C 
ATOM      8  H   UNL     1      32.113  -8.395 -23.729  0.00  0.00    +0.151 HD
ATOM      9  H   UNL     1      31.472 -10.302 -22.995  0.00  0.00    +0.178 HD
BRANCH   5  10
ATOM     10  C   UNL     1      32.972  -6.715 -22.802  0.00  0.00    +0.073 C 
ATOM     11  C   UNL     1      33.264  -6.180 -24.208  0.00  0.00    +0.020 C 
ATOM     12  C   UNL     1      32.053  -5.766 -22.026  0.00  0.00    +0.020 C 
ATOM     13  C   UNL     1      31.990  -5.834 -24.978  0.00  0.00    +0.002 C 
ATOM     14  C   UNL     1      30.781  -5.420 -22.800  0.00  0.00    +0.002 C 
ATOM     15  C   UNL     1      31.097  -4.880 -24.192  0.00  0.00    +0.000 C 
ENDBRANCH   5  10
ENDBRANCH   1   6
BRANCH   1  16
ATOM     16  C   UNL     1      32.277 -12.725 -21.670  0.00  0.00    +0.125 C 
ATOM     17  C   UNL     1      32.637 -12.644 -23.004  0.00  0.00    +0.020 C 
ATOM     18  C   UNL     1      32.582 -13.836 -20.903  0.00  0.00    +0.020 C 
ATOM     19  C   UNL     1      33.639 -14.835 -22.832  0.00  0.00    +0.035 C 
ATOM     20  C   UNL     1      33.323 -13.707 -23.589  0.00  0.00    +0.004 C 
ATOM     21  C   UNL     1      33.268 -14.899 -21.488  0.00  0.00    +0.004 C 
BRANCH  19  23
ATOM     22  O   UNL     1      35.182 -16.619 -22.796  0.00  0.00    -0.291 OA
ATOM     23  C   UNL     1      34.356 -15.944 -23.443  0.00  0.00    +0.173 C 
ATOM     24  C   UNL     1      34.111 -16.306 -24.903  0.00  0.00    +0.077 C 
ENDBRANCH  19  23
ENDBRANCH   1  16
TORSDOF 4
ENDMDL
MODEL 8
REMARK VINA RESULT:      -8.2      2.764      3.792
REMARK  Name = 1989
REMARK  4 active torsions:
REMARK  status: ('A' for Active; 'I' for Inactive)
REMARK    1  A    between atoms: S_1  and  N_6
REMARK    2  A    between atoms: S_1  and  C_16
REMARK    3  A    between atoms: N_5  and  C_10
REMARK    4  A    between atoms: C_19  and  C_23
REMARK                            x       y       z     vdW  Elec       q    Type
REMARK                         _______ _______ _______ _____ _____    ______ ____
ROOT
ATOM      1  S   UNL     1      35.498 -24.226 -14.645  0.00  0.00    +0.077 S 
ATOM      2  O   UNL     1      35.659 -23.328 -13.518  0.00  0.00    -0.150 OA
ATOM      3  O   UNL     1      36.400 -25.346 -14.827  0.00  0.00    -0.150 OA
ENDROOT
BRANCH   1   6
ATOM      4  O   UNL     1      32.803 -22.884 -13.878  0.00  0.00    -0.251 OA
ATOM      5  N   UNL     1      31.558 -24.746 -14.450  0.00  0.00    -0.289 N 
ATOM      6  N   UNL     1      33.884 -24.787 -14.696  0.00  0.00    -0.169 N 
ATOM      7  C   UNL     1      32.733 -24.035 -14.300  0.00  0.00    +0.319 C 
ATOM      8  H   UNL     1      31.606 -25.666 -14.798  0.00  0.00    +0.151 HD
ATOM      9  H   UNL     1      33.735 -25.703 -15.027  0.00  0.00    +0.178 HD
BRANCH   5  10
ATOM     10  C   UNL     1      30.260 -24.199 -14.122  0.00  0.00    +0.073 C 
ATOM     11  C   UNL     1      30.092 -22.791 -14.704  0.00  0.00    +0.020 C 
ATOM     12  C   UNL     1      29.136 -25.131 -14.586  0.00  0.00    +0.020 C 
ATOM     13  C   UNL     1      29.928 -22.804 -16.224  0.00  0.00    +0.002 C 
ATOM     14  C   UNL     1      28.974 -25.139 -16.106  0.00  0.00    +0.002 C 
ATOM     15  C   UNL     1      28.797 -23.729 -16.661  0.00  0.00    +0.000 C 
ENDBRANCH   5  10
ENDBRANCH   1   6
BRANCH   1  16
ATOM     16  C   UNL     1      35.570 -23.265 -16.128  0.00  0.00    +0.125 C 
ATOM     17  C   UNL     1      36.718 -22.546 -16.412  0.00  0.00    +0.020 C 
ATOM     18  C   UNL     1      34.476 -23.251 -16.976  0.00  0.00    +0.020 C 
ATOM     19  C   UNL     1      35.680 -21.760 -18.446  0.00  0.00    +0.035 C 
ATOM     20  C   UNL     1      36.773 -21.787 -17.580  0.00  0.00    +0.004 C 
ATOM     21  C   UNL     1      34.532 -22.491 -18.144  0.00  0.00    +0.004 C 
BRANCH  19  23
ATOM     22  O   UNL     1      36.829 -20.650 -20.182  0.00  0.00    -0.291 OA
ATOM     23  C   UNL     1      35.739 -20.968 -19.666  0.00  0.00    +0.173 C 
ATOM     24  C   UNL     1      34.455 -20.508 -20.346  0.00  0.00    +0.077 C 
ENDBRANCH  19  23
ENDBRANCH   1  16
TORSDOF 4
ENDMDL
MODEL 9
REMARK VINA RESULT:      -8.1     10.039     13.773
REMARK  Name = 1989
REMARK  4 active torsions:
REMARK  status: ('A' for Active; 'I' for Inactive)
REMARK    1  A    between atoms: S_1  and  N_6
REMARK    2  A    between atoms: S_1  and  C_16
REMARK    3  A    between atoms: N_5  and  C_10
REMARK    4  A    between atoms: C_19  and  C_23
REMARK                            x       y       z     vdW  Elec       q    Type
REMARK                         _______ _______ _______ _____ _____    ______ ____
ROOT
ATOM      1  S   UNL     1      32.523  -8.046 -22.343  0.00  0.00    +0.077 S 
ATOM      2  O   UNL     1      31.075  -7.969 -22.299  0.00  0.00    -0.150 OA
ATOM      3  O   UNL     1      33.315  -7.632 -21.202  0.00  0.00    -0.150 OA
ENDROOT
BRANCH   1   6
ATOM      4  O   UNL     1      31.125 -10.806 -22.057  0.00  0.00    -0.251 OA
ATOM      5  N   UNL     1      32.854 -11.940 -23.092  0.00  0.00    -0.289 N 
ATOM      6  N   UNL     1      32.991  -9.621 -22.814  0.00  0.00    -0.169 N 
ATOM      7  C   UNL     1      32.224 -10.811 -22.606  0.00  0.00    +0.319 C 
ATOM      8  H   UNL     1      33.736 -11.840 -23.518  0.00  0.00    +0.151 HD
ATOM      9  H   UNL     1      33.861  -9.717 -23.266  0.00  0.00    +0.178 HD
BRANCH   5  10
ATOM     10  C   UNL     1      32.275 -13.262 -23.005  0.00  0.00    +0.073 C 
ATOM     11  C   UNL     1      32.947 -14.224 -23.990  0.00  0.00    +0.020 C 
ATOM     12  C   UNL     1      32.342 -13.799 -21.571  0.00  0.00    +0.020 C 
ATOM     13  C   UNL     1      34.368 -14.596 -23.567  0.00  0.00    +0.002 C 
ATOM     14  C   UNL     1      33.764 -14.172 -21.152  0.00  0.00    +0.002 C 
ATOM     15  C   UNL     1      34.408 -15.138 -22.142  0.00  0.00    +0.000 C 
ENDBRANCH   5  10
ENDBRANCH   1   6
BRANCH   1  16
ATOM     16  C   UNL     1      33.083  -7.098 -23.726  0.00  0.00    +0.125 C 
ATOM     17  C   UNL     1      34.377  -7.272 -24.185  0.00  0.00    +0.020 C 
ATOM     18  C   UNL     1      32.215  -6.200 -24.324  0.00  0.00    +0.020 C 
ATOM     19  C   UNL     1      33.959  -5.613 -25.890  0.00  0.00    +0.035 C 
ATOM     20  C   UNL     1      34.819  -6.523 -25.275  0.00  0.00    +0.004 C 
ATOM     21  C   UNL     1      32.657  -5.452 -25.415  0.00  0.00    +0.004 C 
BRANCH  19  23
ATOM     22  O   UNL     1      35.635  -4.698 -27.275  0.00  0.00    -0.291 OA
ATOM     23  C   UNL     1      34.420  -4.833 -27.029  0.00  0.00    +0.173 C 
ATOM     24  C   UNL     1      33.415  -4.156 -27.954  0.00  0.00    +0.077 C 
ENDBRANCH  19  23
ENDBRANCH   1  16
TORSDOF 4
ENDMDL
