MODEL 1
REMARK VINA RESULT:     -10.1      0.000      0.000
REMARK  Name = 71329
REMARK  11 active torsions:
REMARK  status: ('A' for Active; 'I' for Inactive)
REMARK    1  A    between atoms: N_1  and  C_4
REMARK    2  A    between atoms: N_1  and  C_18
REMARK    3  A    between atoms: C_4  and  C_5
REMARK    4  A    between atoms: C_5  and  C_6
REMARK    5  A    between atoms: C_9  and  N_12
REMARK    6  A    between atoms: N_12  and  S_14
REMARK    7  A    between atoms: C_18  and  C_19
REMARK    8  A    between atoms: C_19  and  O_20
REMARK    9  A    between atoms: O_20  and  C_21
REMARK   10  A    between atoms: C_22  and  N_27
REMARK   11  A    between atoms: N_27  and  S_29
REMARK                            x       y       z     vdW  Elec       q    Type
REMARK                         _______ _______ _______ _____ _____    ______ ____
ROOT
ATOM      1  N   UNL     1      36.380 -23.518 -14.270  0.00  0.00    +0.388 N 
ATOM      2  C   UNL     1      37.328 -23.832 -13.201  0.00  0.00    -0.101 C 
ATOM      3  H   UNL     1      35.970 -22.603 -14.080  0.00  0.00    -0.080 HD
ENDROOT
BRANCH   1   4
ATOM      4  C   UNL     1      35.306 -24.509 -14.309  0.00  0.00    -0.073 C 
BRANCH   4   5
ATOM      5  C   UNL     1      34.106 -24.048 -13.481  0.00  0.00    +0.004 C 
BRANCH   5   6
ATOM      6  C   UNL     1      32.952 -23.636 -14.360  0.00  0.00    -0.024 C 
ATOM      7  C   UNL     1      33.092 -23.655 -15.748  0.00  0.00    -0.003 C 
ATOM      8  C   UNL     1      31.747 -23.235 -13.785  0.00  0.00    -0.003 C 
ATOM      9  C   UNL     1      30.820 -22.870 -15.986  0.00  0.00    +0.064 C 
ATOM     10  C   UNL     1      32.026 -23.271 -16.561  0.00  0.00    +0.016 C 
ATOM     11  C   UNL     1      30.680 -22.851 -14.599  0.00  0.00    +0.016 C 
BRANCH   9  12
ATOM     12  N   UNL     1      29.728 -22.478 -16.819  0.00  0.00    -0.219 N 
ATOM     13  H   UNL     1      29.805 -21.705 -17.423  0.00  0.00    +0.173 HD
BRANCH  12  14
ATOM     14  S   UNL     1      28.272 -23.395 -16.736  0.00  0.00    +0.056 S 
ATOM     15  O   UNL     1      27.648 -23.385 -18.046  0.00  0.00    -0.154 OA
ATOM     16  O   UNL     1      28.486 -24.645 -16.032  0.00  0.00    -0.154 OA
ATOM     17  C   UNL     1      27.295 -22.340 -15.689  0.00  0.00    +0.200 C 
ENDBRANCH  12  14
ENDBRANCH   9  12
ENDBRANCH   5   6
ENDBRANCH   4   5
ENDBRANCH   1   4
BRANCH   1  18
ATOM     18  C   UNL     1      37.067 -23.458 -15.560  0.00  0.00    -0.029 C 
BRANCH  18  19
ATOM     19  C   UNL     1      36.549 -22.295 -16.392  0.00  0.00    +0.183 C 
BRANCH  19  20
ATOM     20  O   UNL     1      35.672 -22.802 -17.388  0.00  0.00    -0.478 OA
BRANCH  20  21
ATOM     21  C   UNL     1      35.432 -21.994 -18.469  0.00  0.00    +0.139 C 
ATOM     22  C   UNL     1      34.946 -20.348 -20.669  0.00  0.00    +0.065 C 
ATOM     23  C   UNL     1      36.495 -21.358 -19.112  0.00  0.00    +0.038 C 
ATOM     24  C   UNL     1      34.128 -21.808 -18.925  0.00  0.00    +0.038 C 
ATOM     25  C   UNL     1      36.251 -20.535 -20.212  0.00  0.00    +0.019 C 
ATOM     26  C   UNL     1      33.885 -20.984 -20.025  0.00  0.00    +0.019 C 
BRANCH  22  27
ATOM     27  N   UNL     1      34.697 -19.505 -21.793  0.00  0.00    -0.219 N 
ATOM     28  H   UNL     1      34.049 -19.767 -22.486  0.00  0.00    +0.173 HD
BRANCH  27  29
ATOM     29  S   UNL     1      35.560 -18.019 -21.904  0.00  0.00    +0.056 S 
ATOM     30  O   UNL     1      35.341 -17.269 -20.682  0.00  0.00    -0.154 OA
ATOM     31  O   UNL     1      36.903 -18.235 -22.406  0.00  0.00    -0.154 OA
ATOM     32  C   UNL     1      34.625 -17.207 -23.182  0.00  0.00    +0.200 C 
ENDBRANCH  27  29
ENDBRANCH  22  27
ENDBRANCH  20  21
ENDBRANCH  19  20
ENDBRANCH  18  19
ENDBRANCH   1  18
TORSDOF 11
ENDMDL
MODEL 2
REMARK VINA RESULT:      -9.9      5.648      9.616
REMARK  Name = 71329
REMARK  11 active torsions:
REMARK  status: ('A' for Active; 'I' for Inactive)
REMARK    1  A    between atoms: N_1  and  C_4
REMARK    2  A    between atoms: N_1  and  C_18
REMARK    3  A    between atoms: C_4  and  C_5
REMARK    4  A    between atoms: C_5  and  C_6
REMARK    5  A    between atoms: C_9  and  N_12
REMARK    6  A    between atoms: N_12  and  S_14
REMARK    7  A    between atoms: C_18  and  C_19
REMARK    8  A    between atoms: C_19  and  O_20
REMARK    9  A    between atoms: O_20  and  C_21
REMARK   10  A    between atoms: C_22  and  N_27
REMARK   11  A    between atoms: N_27  and  S_29
REMARK                            x       y       z     vdW  Elec       q    Type
REMARK                         _______ _______ _______ _____ _____    ______ ____
ROOT
ATOM      1  N   UNL     1      35.023 -16.582 -24.168  0.00  0.00    +0.388 N 
ATOM      2  C   UNL     1      34.692 -17.725 -25.018  0.00  0.00    -0.101 C 
ATOM      3  H   UNL     1      35.899 -16.175 -24.500  0.00  0.00    -0.080 HD
ENDROOT
BRANCH   1   4
ATOM      4  C   UNL     1      35.207 -17.011 -22.783  0.00  0.00    -0.073 C 
BRANCH   4   5
ATOM      5  C   UNL     1      35.774 -18.430 -22.719  0.00  0.00    +0.004 C 
BRANCH   5   6
ATOM      6  C   UNL     1      35.029 -19.280 -21.721  0.00  0.00    -0.024 C 
ATOM      7  C   UNL     1      35.732 -20.132 -20.869  0.00  0.00    -0.003 C 
ATOM      8  C   UNL     1      33.638 -19.215 -21.650  0.00  0.00    -0.003 C 
ATOM      9  C   UNL     1      33.652 -20.855 -19.877  0.00  0.00    +0.064 C 
ATOM     10  C   UNL     1      35.044 -20.920 -19.947  0.00  0.00    +0.016 C 
ATOM     11  C   UNL     1      32.949 -20.003 -20.728  0.00  0.00    +0.016 C 
BRANCH   9  12
ATOM     12  N   UNL     1      32.947 -21.662 -18.932  0.00  0.00    -0.219 N 
ATOM     13  H   UNL     1      32.008 -21.471 -18.707  0.00  0.00    +0.173 HD
BRANCH  12  14
ATOM     14  S   UNL     1      33.785 -22.975 -18.199  0.00  0.00    +0.056 S 
ATOM     15  O   UNL     1      33.783 -24.094 -19.124  0.00  0.00    -0.154 OA
ATOM     16  O   UNL     1      35.021 -22.526 -17.589  0.00  0.00    -0.154 OA
ATOM     17  C   UNL     1      32.649 -23.383 -16.892  0.00  0.00    +0.200 C 
ENDBRANCH  12  14
ENDBRANCH   9  12
ENDBRANCH   5   6
ENDBRANCH   4   5
ENDBRANCH   1   4
BRANCH   1  18
ATOM     18  C   UNL     1      33.978 -15.563 -24.253  0.00  0.00    -0.029 C 
BRANCH  18  19
ATOM     19  C   UNL     1      34.172 -14.502 -23.181  0.00  0.00    +0.183 C 
BRANCH  19  20
ATOM     20  O   UNL     1      32.907 -14.187 -22.616  0.00  0.00    -0.478 OA
BRANCH  20  21
ATOM     21  C   UNL     1      32.587 -12.858 -22.519  0.00  0.00    +0.139 C 
ATOM     22  C   UNL     1      31.938 -10.152 -22.323  0.00  0.00    +0.065 C 
ATOM     23  C   UNL     1      33.142 -11.941 -23.413  0.00  0.00    +0.038 C 
ATOM     24  C   UNL     1      31.709 -12.422 -21.528  0.00  0.00    +0.038 C 
ATOM     25  C   UNL     1      32.817 -10.588 -23.315  0.00  0.00    +0.019 C 
ATOM     26  C   UNL     1      31.385 -11.068 -21.430  0.00  0.00    +0.019 C 
BRANCH  22  27
ATOM     27  N   UNL     1      31.607  -8.767 -22.222  0.00  0.00    -0.219 N 
ATOM     28  H   UNL     1      30.768  -8.419 -22.601  0.00  0.00    +0.173 HD
BRANCH  27  29
ATOM     29  S   UNL     1      32.714  -7.721 -21.417  0.00  0.00    +0.056 S 
ATOM     30  O   UNL     1      32.836  -8.156 -20.038  0.00  0.00    -0.154 OA
ATOM     31  O   UNL     1      33.895  -7.495 -22.226  0.00  0.00    -0.154 OA
ATOM     32  C   UNL     1      31.767  -6.214 -21.400  0.00  0.00    +0.200 C 
ENDBRANCH  27  29
ENDBRANCH  22  27
ENDBRANCH  20  21
ENDBRANCH  19  20
ENDBRANCH  18  19
ENDBRANCH   1  18
TORSDOF 11
ENDMDL
MODEL 3
REMARK VINA RESULT:      -9.8      1.427      7.680
REMARK  Name = 71329
REMARK  11 active torsions:
REMARK  status: ('A' for Active; 'I' for Inactive)
REMARK    1  A    between atoms: N_1  and  C_4
REMARK    2  A    between atoms: N_1  and  C_18
REMARK    3  A    between atoms: C_4  and  C_5
REMARK    4  A    between atoms: C_5  and  C_6
REMARK    5  A    between atoms: C_9  and  N_12
REMARK    6  A    between atoms: N_12  and  S_14
REMARK    7  A    between atoms: C_18  and  C_19
REMARK    8  A    between atoms: C_19  and  O_20
REMARK    9  A    between atoms: O_20  and  C_21
REMARK   10  A    between atoms: C_22  and  N_27
REMARK   11  A    between atoms: N_27  and  S_29
REMARK                            x       y       z     vdW  Elec       q    Type
REMARK                         _______ _______ _______ _____ _____    ______ ____
ROOT
ATOM      1  N   UNL     1      36.252 -23.483 -16.076  0.00  0.00    +0.388 N 
ATOM      2  C   UNL     1      37.495 -22.808 -15.705  0.00  0.00    -0.101 C 
ATOM      3  H   UNL     1      36.432 -24.066 -16.893  0.00  0.00    -0.080 HD
ENDROOT
BRANCH   1   4
ATOM      4  C   UNL     1      35.223 -22.503 -16.423  0.00  0.00    -0.073 C 
BRANCH   4   5
ATOM      5  C   UNL     1      34.363 -23.001 -17.585  0.00  0.00    +0.004 C 
BRANCH   5   6
ATOM      6  C   UNL     1      34.404 -22.047 -18.752  0.00  0.00    -0.024 C 
ATOM      7  C   UNL     1      35.622 -21.746 -19.363  0.00  0.00    -0.003 C 
ATOM      8  C   UNL     1      33.226 -21.465 -19.220  0.00  0.00    -0.003 C 
ATOM      9  C   UNL     1      34.482 -20.280 -20.909  0.00  0.00    +0.064 C 
ATOM     10  C   UNL     1      35.661 -20.862 -20.442  0.00  0.00    +0.016 C 
ATOM     11  C   UNL     1      33.265 -20.581 -20.298  0.00  0.00    +0.016 C 
BRANCH   9  12
ATOM     12  N   UNL     1      34.522 -19.376 -22.014  0.00  0.00    -0.219 N 
ATOM     13  H   UNL     1      34.010 -19.558 -22.835  0.00  0.00    +0.173 HD
BRANCH  12  14
ATOM     14  S   UNL     1      35.489 -17.958 -21.870  0.00  0.00    +0.056 S 
ATOM     15  O   UNL     1      35.239 -17.363 -20.569  0.00  0.00    -0.154 OA
ATOM     16  O   UNL     1      36.845 -18.208 -22.317  0.00  0.00    -0.154 OA
ATOM     17  C   UNL     1      34.699 -16.915 -23.075  0.00  0.00    +0.200 C 
ENDBRANCH  12  14
ENDBRANCH   9  12
ENDBRANCH   5   6
ENDBRANCH   4   5
ENDBRANCH   1   4
BRANCH   1  18
ATOM     18  C   UNL     1      35.792 -24.342 -14.985  0.00  0.00    -0.029 C 
BRANCH  18  19
ATOM     19  C   UNL     1      34.841 -23.586 -14.070  0.00  0.00    +0.183 C 
BRANCH  19  20
ATOM     20  O   UNL     1      33.856 -24.491 -13.588  0.00  0.00    -0.478 OA
BRANCH  20  21
ATOM     21  C   UNL     1      32.559 -24.245 -13.956  0.00  0.00    +0.139 C 
ATOM     22  C   UNL     1      29.919 -23.746 -14.707  0.00  0.00    +0.065 C 
ATOM     23  C   UNL     1      31.622 -25.279 -13.940  0.00  0.00    +0.038 C 
ATOM     24  C   UNL     1      32.176 -22.963 -14.347  0.00  0.00    +0.038 C 
ATOM     25  C   UNL     1      30.303 -25.029 -14.315  0.00  0.00    +0.019 C 
ATOM     26  C   UNL     1      30.856 -22.713 -14.723  0.00  0.00    +0.019 C 
BRANCH  22  27
ATOM     27  N   UNL     1      28.568 -23.491 -15.091  0.00  0.00    -0.219 N 
ATOM     28  H   UNL     1      27.840 -23.524 -14.430  0.00  0.00    +0.173 HD
BRANCH  27  29
ATOM     29  S   UNL     1      28.248 -23.122 -16.743  0.00  0.00    +0.056 S 
ATOM     30  O   UNL     1      29.336 -22.308 -17.251  0.00  0.00    -0.154 OA
ATOM     31  O   UNL     1      27.812 -24.302 -17.463  0.00  0.00    -0.154 OA
ATOM     32  C   UNL     1      26.842 -22.046 -16.558  0.00  0.00    +0.200 C 
ENDBRANCH  27  29
ENDBRANCH  22  27
ENDBRANCH  20  21
ENDBRANCH  19  20
ENDBRANCH  18  19
ENDBRANCH   1  18
TORSDOF 11
ENDMDL
MODEL 4
REMARK VINA RESULT:      -9.6      5.699     11.606
REMARK  Name = 71329
REMARK  11 active torsions:
REMARK  status: ('A' for Active; 'I' for Inactive)
REMARK    1  A    between atoms: N_1  and  C_4
REMARK    2  A    between atoms: N_1  and  C_18
REMARK    3  A    between atoms: C_4  and  C_5
REMARK    4  A    between atoms: C_5  and  C_6
REMARK    5  A    between atoms: C_9  and  N_12
REMARK    6  A    between atoms: N_12  and  S_14
REMARK    7  A    between atoms: C_18  and  C_19
REMARK    8  A    between atoms: C_19  and  O_20
REMARK    9  A    between atoms: O_20  and  C_21
REMARK   10  A    between atoms: C_22  and  N_27
REMARK   11  A    between atoms: N_27  and  S_29
REMARK                            x       y       z     vdW  Elec       q    Type
REMARK                         _______ _______ _______ _____ _____    ______ ____
ROOT
ATOM      1  N   UNL     1      34.059 -15.897 -23.829  0.00  0.00    +0.388 N 
ATOM      2  C   UNL     1      34.029 -16.135 -25.272  0.00  0.00    -0.101 C 
ATOM      3  H   UNL     1      33.266 -16.380 -23.405  0.00  0.00    -0.080 HD
ENDROOT
BRANCH   1   4
ATOM      4  C   UNL     1      33.939 -14.468 -23.544  0.00  0.00    -0.073 C 
BRANCH   4   5
ATOM      5  C   UNL     1      32.803 -14.200 -22.556  0.00  0.00    +0.004 C 
BRANCH   5   6
ATOM      6  C   UNL     1      32.481 -12.730 -22.468  0.00  0.00    -0.024 C 
ATOM      7  C   UNL     1      31.626 -12.262 -21.469  0.00  0.00    -0.003 C 
ATOM      8  C   UNL     1      33.036 -11.838 -23.384  0.00  0.00    -0.003 C 
ATOM      9  C   UNL     1      31.882 -10.010 -22.305  0.00  0.00    +0.064 C 
ATOM     10  C   UNL     1      31.327 -10.902 -21.388  0.00  0.00    +0.016 C 
ATOM     11  C   UNL     1      32.736 -10.478 -23.303  0.00  0.00    +0.016 C 
BRANCH   9  12
ATOM     12  N   UNL     1      31.576  -8.618 -22.222  0.00  0.00    -0.219 N 
ATOM     13  H   UNL     1      30.749  -8.258 -22.616  0.00  0.00    +0.173 HD
BRANCH  12  14
ATOM     14  S   UNL     1      32.694  -7.587 -21.414  0.00  0.00    +0.056 S 
ATOM     15  O   UNL     1      32.760  -7.985 -20.020  0.00  0.00    -0.154 OA
ATOM     16  O   UNL     1      33.907  -7.426 -22.192  0.00  0.00    -0.154 OA
ATOM     17  C   UNL     1      31.802  -6.049 -21.470  0.00  0.00    +0.200 C 
ENDBRANCH  12  14
ENDBRANCH   9  12
ENDBRANCH   5   6
ENDBRANCH   4   5
ENDBRANCH   1   4
BRANCH   1  18
ATOM     18  C   UNL     1      35.291 -16.432 -23.249  0.00  0.00    -0.029 C 
BRANCH  18  19
ATOM     19  C   UNL     1      35.275 -17.952 -23.263  0.00  0.00    +0.183 C 
BRANCH  19  20
ATOM     20  O   UNL     1      35.866 -18.426 -22.060  0.00  0.00    -0.478 OA
BRANCH  20  21
ATOM     21  C   UNL     1      35.116 -19.286 -21.300  0.00  0.00    +0.139 C 
ATOM     22  C   UNL     1      33.591 -21.038 -19.755  0.00  0.00    +0.065 C 
ATOM     23  C   UNL     1      35.734 -20.342 -20.629  0.00  0.00    +0.038 C 
ATOM     24  C   UNL     1      33.737 -19.106 -21.199  0.00  0.00    +0.038 C 
ATOM     25  C   UNL     1      34.971 -21.217 -19.857  0.00  0.00    +0.019 C 
ATOM     26  C   UNL     1      32.975 -19.983 -20.427  0.00  0.00    +0.019 C 
BRANCH  22  27
ATOM     27  N   UNL     1      32.810 -21.935 -18.965  0.00  0.00    -0.219 N 
ATOM     28  H   UNL     1      31.828 -21.876 -18.957  0.00  0.00    +0.173 HD
BRANCH  27  29
ATOM     29  S   UNL     1      33.634 -23.123 -18.029  0.00  0.00    +0.056 S 
ATOM     30  O   UNL     1      33.657 -24.364 -18.780  0.00  0.00    -0.154 OA
ATOM     31  O   UNL     1      34.853 -22.583 -17.461  0.00  0.00    -0.154 OA
ATOM     32  C   UNL     1      32.466 -23.343 -16.704  0.00  0.00    +0.200 C 
ENDBRANCH  27  29
ENDBRANCH  22  27
ENDBRANCH  20  21
ENDBRANCH  19  20
ENDBRANCH  18  19
ENDBRANCH   1  18
TORSDOF 11
ENDMDL
MODEL 5
REMARK VINA RESULT:      -9.5      1.568      7.727
REMARK  Name = 71329
REMARK  11 active torsions:
REMARK  status: ('A' for Active; 'I' for Inactive)
REMARK    1  A    between atoms: N_1  and  C_4
REMARK    2  A    between atoms: N_1  and  C_18
REMARK    3  A    between atoms: C_4  and  C_5
REMARK    4  A    between atoms: C_5  and  C_6
REMARK    5  A    between atoms: C_9  and  N_12
REMARK    6  A    between atoms: N_12  and  S_14
REMARK    7  A    between atoms: C_18  and  C_19
REMARK    8  A    between atoms: C_19  and  O_20
REMARK    9  A    between atoms: O_20  and  C_21
REMARK   10  A    between atoms: C_22  and  N_27
REMARK   11  A    between atoms: N_27  and  S_29
REMARK                            x       y       z     vdW  Elec       q    Type
REMARK                         _______ _______ _______ _____ _____    ______ ____
ROOT
ATOM      1  N   UNL     1      36.586 -22.651 -16.732  0.00  0.00    +0.388 N 
ATOM      2  C   UNL     1      37.891 -22.761 -16.081  0.00  0.00    -0.101 C 
ATOM      3  H   UNL     1      36.352 -23.556 -17.142  0.00  0.00    -0.080 HD
ENDROOT
BRANCH   1   4
ATOM      4  C   UNL     1      36.630 -21.656 -17.802  0.00  0.00    -0.073 C 
BRANCH   4   5
ATOM      5  C   UNL     1      35.669 -22.023 -18.933  0.00  0.00    +0.004 C 
BRANCH   5   6
ATOM      6  C   UNL     1      35.347 -20.829 -19.795  0.00  0.00    -0.024 C 
ATOM      7  C   UNL     1      34.019 -20.524 -20.094  0.00  0.00    -0.003 C 
ATOM      8  C   UNL     1      36.375 -20.032 -20.296  0.00  0.00    -0.003 C 
ATOM      9  C   UNL     1      34.749 -18.623 -21.395  0.00  0.00    +0.064 C 
ATOM     10  C   UNL     1      33.720 -19.421 -20.894  0.00  0.00    +0.016 C 
ATOM     11  C   UNL     1      36.076 -18.929 -21.096  0.00  0.00    +0.016 C 
BRANCH   9  12
ATOM     12  N   UNL     1      34.443 -17.493 -22.213  0.00  0.00    -0.219 N 
ATOM     13  H   UNL     1      34.432 -17.569 -23.194  0.00  0.00    +0.173 HD
BRANCH  12  14
ATOM     14  S   UNL     1      34.094 -15.997 -21.435  0.00  0.00    +0.056 S 
ATOM     15  O   UNL     1      32.662 -15.920 -21.211  0.00  0.00    -0.154 OA
ATOM     16  O   UNL     1      35.023 -15.747 -20.350  0.00  0.00    -0.154 OA
ATOM     17  C   UNL     1      34.474 -14.863 -22.751  0.00  0.00    +0.200 C 
ENDBRANCH  12  14
ENDBRANCH   9  12
ENDBRANCH   5   6
ENDBRANCH   4   5
ENDBRANCH   1   4
BRANCH   1  18
ATOM     18  C   UNL     1      35.555 -22.305 -15.754  0.00  0.00    -0.029 C 
BRANCH  18  19
ATOM     19  C   UNL     1      35.636 -23.219 -14.541  0.00  0.00    +0.183 C 
BRANCH  19  20
ATOM     20  O   UNL     1      34.566 -24.153 -14.601  0.00  0.00    -0.478 OA
BRANCH  20  21
ATOM     21  C   UNL     1      33.394 -23.714 -15.160  0.00  0.00    +0.139 C 
ATOM     22  C   UNL     1      31.009 -22.821 -16.299  0.00  0.00    +0.065 C 
ATOM     23  C   UNL     1      33.230 -23.740 -16.546  0.00  0.00    +0.038 C 
ATOM     24  C   UNL     1      32.367 -23.242 -14.344  0.00  0.00    +0.038 C 
ATOM     25  C   UNL     1      32.038 -23.293 -17.114  0.00  0.00    +0.019 C 
ATOM     26  C   UNL     1      31.174 -22.795 -14.914  0.00  0.00    +0.019 C 
BRANCH  22  27
ATOM     27  N   UNL     1      29.789 -22.363 -16.881  0.00  0.00    -0.219 N 
ATOM     28  H   UNL     1      29.745 -21.496 -17.344  0.00  0.00    +0.173 HD
BRANCH  27  29
ATOM     29  S   UNL     1      28.397 -23.369 -16.752  0.00  0.00    +0.056 S 
ATOM     30  O   UNL     1      27.678 -23.322 -18.011  0.00  0.00    -0.154 OA
ATOM     31  O   UNL     1      28.731 -24.640 -16.140  0.00  0.00    -0.154 OA
ATOM     32  C   UNL     1      27.441 -22.433 -15.577  0.00  0.00    +0.200 C 
ENDBRANCH  27  29
ENDBRANCH  22  27
ENDBRANCH  20  21
ENDBRANCH  19  20
ENDBRANCH  18  19
ENDBRANCH   1  18
TORSDOF 11
ENDMDL
MODEL 6
REMARK VINA RESULT:      -9.4      4.077      9.727
REMARK  Name = 71329
REMARK  11 active torsions:
REMARK  status: ('A' for Active; 'I' for Inactive)
REMARK    1  A    between atoms: N_1  and  C_4
REMARK    2  A    between atoms: N_1  and  C_18
REMARK    3  A    between atoms: C_4  and  C_5
REMARK    4  A    between atoms: C_5  and  C_6
REMARK    5  A    between atoms: C_9  and  N_12
REMARK    6  A    between atoms: N_12  and  S_14
REMARK    7  A    between atoms: C_18  and  C_19
REMARK    8  A    between atoms: C_19  and  O_20
REMARK    9  A    between atoms: O_20  and  C_21
REMARK   10  A    between atoms: C_22  and  N_27
REMARK   11  A    between atoms: N_27  and  S_29
REMARK                            x       y       z     vdW  Elec       q    Type
REMARK                         _______ _______ _______ _____ _____    ______ ____
ROOT
ATOM      1  N   UNL     1      34.159 -20.536 -19.854  0.00  0.00    +0.388 N 
ATOM      2  C   UNL     1      33.446 -21.794 -19.629  0.00  0.00    -0.101 C 
ATOM      3  H   UNL     1      33.957 -19.907 -19.076  0.00  0.00    -0.080 HD
ENDROOT
BRANCH   1   4
ATOM      4  C   UNL     1      33.704 -19.905 -21.091  0.00  0.00    -0.073 C 
BRANCH   4   5
ATOM      5  C   UNL     1      34.889 -19.460 -21.948  0.00  0.00    +0.004 C 
BRANCH   5   6
ATOM      6  C   UNL     1      34.817 -17.989 -22.272  0.00  0.00    -0.024 C 
ATOM      7  C   UNL     1      34.916 -17.562 -23.597  0.00  0.00    -0.003 C 
ATOM      8  C   UNL     1      34.652 -17.056 -21.249  0.00  0.00    -0.003 C 
ATOM      9  C   UNL     1      34.686 -15.268 -22.873  0.00  0.00    +0.064 C 
ATOM     10  C   UNL     1      34.851 -16.201 -23.897  0.00  0.00    +0.016 C 
ATOM     11  C   UNL     1      34.587 -15.695 -21.550  0.00  0.00    +0.016 C 
BRANCH   9  12
ATOM     12  N   UNL     1      34.619 -13.875 -23.181  0.00  0.00    -0.219 N 
ATOM     13  H   UNL     1      35.386 -13.282 -23.009  0.00  0.00    +0.173 HD
BRANCH  12  14
ATOM     14  S   UNL     1      33.160 -13.262 -23.860  0.00  0.00    +0.056 S 
ATOM     15  O   UNL     1      33.067 -13.718 -25.234  0.00  0.00    -0.154 OA
ATOM     16  O   UNL     1      32.048 -13.442 -22.947  0.00  0.00    -0.154 OA
ATOM     17  C   UNL     1      33.544 -11.526 -23.916  0.00  0.00    +0.200 C 
ENDBRANCH  12  14
ENDBRANCH   9  12
ENDBRANCH   5   6
ENDBRANCH   4   5
ENDBRANCH   1   4
BRANCH   1  18
ATOM     18  C   UNL     1      35.602 -20.769 -19.899  0.00  0.00    -0.029 C 
BRANCH  18  19
ATOM     19  C   UNL     1      35.983 -21.956 -19.029  0.00  0.00    +0.183 C 
BRANCH  19  20
ATOM     20  O   UNL     1      36.448 -21.474 -17.776  0.00  0.00    -0.478 OA
BRANCH  20  21
ATOM     21  C   UNL     1      36.395 -22.346 -16.720  0.00  0.00    +0.139 C 
ATOM     22  C   UNL     1      36.286 -24.120 -14.570  0.00  0.00    +0.065 C 
ATOM     23  C   UNL     1      35.163 -22.820 -16.269  0.00  0.00    +0.038 C 
ATOM     24  C   UNL     1      37.572 -22.758 -16.097  0.00  0.00    +0.038 C 
ATOM     25  C   UNL     1      35.109 -23.707 -15.194  0.00  0.00    +0.019 C 
ATOM     26  C   UNL     1      37.517 -23.645 -15.021  0.00  0.00    +0.019 C 
BRANCH  22  27
ATOM     27  N   UNL     1      36.231 -25.027 -13.469  0.00  0.00    -0.219 N 
ATOM     28  H   UNL     1      36.537 -25.958 -13.566  0.00  0.00    +0.173 HD
BRANCH  27  29
ATOM     29  S   UNL     1      35.617 -24.449 -11.967  0.00  0.00    +0.056 S 
ATOM     30  O   UNL     1      34.333 -23.818 -12.209  0.00  0.00    -0.154 OA
ATOM     31  O   UNL     1      35.763 -25.448 -10.928  0.00  0.00    -0.154 OA
ATOM     32  C   UNL     1      36.779 -23.142 -11.635  0.00  0.00    +0.200 C 
ENDBRANCH  27  29
ENDBRANCH  22  27
ENDBRANCH  20  21
ENDBRANCH  19  20
ENDBRANCH  18  19
ENDBRANCH   1  18
TORSDOF 11
ENDMDL
MODEL 7
REMARK VINA RESULT:      -9.3      6.308     10.156
REMARK  Name = 71329
REMARK  11 active torsions:
REMARK  status: ('A' for Active; 'I' for Inactive)
REMARK    1  A    between atoms: N_1  and  C_4
REMARK    2  A    between atoms: N_1  and  C_18
REMARK    3  A    between atoms: C_4  and  C_5
REMARK    4  A    between atoms: C_5  and  C_6
REMARK    5  A    between atoms: C_9  and  N_12
REMARK    6  A    between atoms: N_12  and  S_14
REMARK    7  A    between atoms: C_18  and  C_19
REMARK    8  A    between atoms: C_19  and  O_20
REMARK    9  A    between atoms: O_20  and  C_21
REMARK   10  A    between atoms: C_22  and  N_27
REMARK   11  A    between atoms: N_27  and  S_29
REMARK                            x       y       z     vdW  Elec       q    Type
REMARK                         _______ _______ _______ _____ _____    ______ ____
ROOT
ATOM      1  N   UNL     1      34.966 -16.118 -23.546  0.00  0.00    +0.388 N 
ATOM      2  C   UNL     1      34.925 -17.060 -24.664  0.00  0.00    -0.101 C 
ATOM      3  H   UNL     1      35.729 -15.459 -23.707  0.00  0.00    -0.080 HD
ENDROOT
BRANCH   1   4
ATOM      4  C   UNL     1      35.220 -16.824 -22.292  0.00  0.00    -0.073 C 
BRANCH   4   5
ATOM      5  C   UNL     1      35.567 -18.291 -22.550  0.00  0.00    +0.004 C 
BRANCH   5   6
ATOM      6  C   UNL     1      34.850 -19.206 -21.589  0.00  0.00    -0.024 C 
ATOM      7  C   UNL     1      33.460 -19.148 -21.477  0.00  0.00    -0.003 C 
ATOM      8  C   UNL     1      35.575 -20.109 -20.813  0.00  0.00    -0.003 C 
ATOM      9  C   UNL     1      33.523 -20.896 -19.811  0.00  0.00    +0.064 C 
ATOM     10  C   UNL     1      32.797 -19.993 -20.588  0.00  0.00    +0.016 C 
ATOM     11  C   UNL     1      34.911 -20.954 -19.923  0.00  0.00    +0.016 C 
BRANCH   9  12
ATOM     12  N   UNL     1      32.844 -21.762 -18.900  0.00  0.00    -0.219 N 
ATOM     13  H   UNL     1      31.889 -21.634 -18.699  0.00  0.00    +0.173 HD
BRANCH  12  14
ATOM     14  S   UNL     1      33.742 -23.034 -18.165  0.00  0.00    +0.056 S 
ATOM     15  O   UNL     1      33.772 -24.162 -19.079  0.00  0.00    -0.154 OA
ATOM     16  O   UNL     1      34.967 -22.531 -17.576  0.00  0.00    -0.154 OA
ATOM     17  C   UNL     1      32.639 -23.472 -16.840  0.00  0.00    +0.200 C 
ENDBRANCH  12  14
ENDBRANCH   9  12
ENDBRANCH   5   6
ENDBRANCH   4   5
ENDBRANCH   1   4
BRANCH   1  18
ATOM     18  C   UNL     1      33.714 -15.366 -23.465  0.00  0.00    -0.029 C 
BRANCH  18  19
ATOM     19  C   UNL     1      33.972 -13.875 -23.620  0.00  0.00    +0.183 C 
BRANCH  19  20
ATOM     20  O   UNL     1      32.739 -13.182 -23.477  0.00  0.00    -0.478 OA
BRANCH  20  21
ATOM     21  C   UNL     1      32.811 -11.829 -23.273  0.00  0.00    +0.139 C 
ATOM     22  C   UNL     1      32.961  -9.074 -22.857  0.00  0.00    +0.065 C 
ATOM     23  C   UNL     1      33.706 -11.058 -24.018  0.00  0.00    +0.038 C 
ATOM     24  C   UNL     1      31.993 -11.222 -22.322  0.00  0.00    +0.038 C 
ATOM     25  C   UNL     1      33.780  -9.682 -23.809  0.00  0.00    +0.019 C 
ATOM     26  C   UNL     1      32.068  -9.845 -22.113  0.00  0.00    +0.019 C 
BRANCH  22  27
ATOM     27  N   UNL     1      33.038  -7.665 -22.644  0.00  0.00    -0.219 N 
ATOM     28  H   UNL     1      33.600  -7.293 -21.927  0.00  0.00    +0.173 HD
BRANCH  27  29
ATOM     29  S   UNL     1      32.121  -6.634 -23.675  0.00  0.00    +0.056 S 
ATOM     30  O   UNL     1      33.040  -5.897 -24.522  0.00  0.00    -0.154 OA
ATOM     31  O   UNL     1      30.996  -7.344 -24.251  0.00  0.00    -0.154 OA
ATOM     32  C   UNL     1      31.483  -5.480 -22.479  0.00  0.00    +0.200 C 
ENDBRANCH  27  29
ENDBRANCH  22  27
ENDBRANCH  20  21
ENDBRANCH  19  20
ENDBRANCH  18  19
ENDBRANCH   1  18
TORSDOF 11
ENDMDL
MODEL 8
REMARK VINA RESULT:      -9.3      4.591      7.968
REMARK  Name = 71329
REMARK  11 active torsions:
REMARK  status: ('A' for Active; 'I' for Inactive)
REMARK    1  A    between atoms: N_1  and  C_4
REMARK    2  A    between atoms: N_1  and  C_18
REMARK    3  A    between atoms: C_4  and  C_5
REMARK    4  A    between atoms: C_5  and  C_6
REMARK    5  A    between atoms: C_9  and  N_12
REMARK    6  A    between atoms: N_12  and  S_14
REMARK    7  A    between atoms: C_18  and  C_19
REMARK    8  A    between atoms: C_19  and  O_20
REMARK    9  A    between atoms: O_20  and  C_21
REMARK   10  A    between atoms: C_22  and  N_27
REMARK   11  A    between atoms: N_27  and  S_29
REMARK                            x       y       z     vdW  Elec       q    Type
REMARK                         _______ _______ _______ _____ _____    ______ ____
ROOT
ATOM      1  N   UNL     1      34.999 -19.743 -21.298  0.00  0.00    +0.388 N 
ATOM      2  C   UNL     1      33.561 -19.752 -21.032  0.00  0.00    -0.101 C 
ATOM      3  H   UNL     1      35.162 -20.173 -22.209  0.00  0.00    -0.080 HD
ENDROOT
BRANCH   1   4
ATOM      4  C   UNL     1      35.711 -20.519 -20.284  0.00  0.00    -0.073 C 
BRANCH   4   5
ATOM      5  C   UNL     1      34.779 -21.526 -19.610  0.00  0.00    +0.004 C 
BRANCH   5   6
ATOM      6  C   UNL     1      35.332 -21.994 -18.288  0.00  0.00    -0.024 C 
ATOM      7  C   UNL     1      36.646 -21.685 -17.934  0.00  0.00    -0.003 C 
ATOM      8  C   UNL     1      34.532 -22.736 -17.420  0.00  0.00    -0.003 C 
ATOM      9  C   UNL     1      36.359 -22.863 -15.844  0.00  0.00    +0.064 C 
ATOM     10  C   UNL     1      37.160 -22.120 -16.712  0.00  0.00    +0.016 C 
ATOM     11  C   UNL     1      35.046 -23.171 -16.198  0.00  0.00    +0.016 C 
BRANCH   9  12
ATOM     12  N   UNL     1      36.884 -23.307 -14.593  0.00  0.00    -0.219 N 
ATOM     13  H   UNL     1      36.747 -22.782 -13.772  0.00  0.00    +0.173 HD
BRANCH  12  14
ATOM     14  S   UNL     1      37.763 -24.788 -14.560  0.00  0.00    +0.056 S 
ATOM     15  O   UNL     1      37.070 -25.751 -15.397  0.00  0.00    -0.154 OA
ATOM     16  O   UNL     1      39.183 -24.552 -14.730  0.00  0.00    -0.154 OA
ATOM     17  C   UNL     1      37.490 -25.278 -12.872  0.00  0.00    +0.200 C 
ENDBRANCH  12  14
ENDBRANCH   9  12
ENDBRANCH   5   6
ENDBRANCH   4   5
ENDBRANCH   1   4
BRANCH   1  18
ATOM     18  C   UNL     1      35.502 -18.370 -21.338  0.00  0.00    -0.029 C 
BRANCH  18  19
ATOM     19  C   UNL     1      34.352 -17.378 -21.403  0.00  0.00    +0.183 C 
BRANCH  19  20
ATOM     20  O   UNL     1      34.875 -16.092 -21.708  0.00  0.00    -0.478 OA
BRANCH  20  21
ATOM     21  C   UNL     1      33.970 -15.070 -21.829  0.00  0.00    +0.139 C 
ATOM     22  C   UNL     1      32.126 -12.990 -22.073  0.00  0.00    +0.065 C 
ATOM     23  C   UNL     1      33.363 -14.539 -20.690  0.00  0.00    +0.038 C 
ATOM     24  C   UNL     1      33.656 -14.562 -23.089  0.00  0.00    +0.038 C 
ATOM     25  C   UNL     1      32.441 -13.499 -20.813  0.00  0.00    +0.019 C 
ATOM     26  C   UNL     1      32.733 -13.522 -23.211  0.00  0.00    +0.019 C 
BRANCH  22  27
ATOM     27  N   UNL     1      31.182 -11.927 -22.199  0.00  0.00    -0.219 N 
ATOM     28  H   UNL     1      30.216 -12.110 -22.224  0.00  0.00    +0.173 HD
BRANCH  27  29
ATOM     29  S   UNL     1      31.781 -10.315 -22.303  0.00  0.00    +0.056 S 
ATOM     30  O   UNL     1      33.154 -10.364 -22.767  0.00  0.00    -0.154 OA
ATOM     31  O   UNL     1      30.817  -9.444 -22.945  0.00  0.00    -0.154 OA
ATOM     32  C   UNL     1      31.836  -9.888 -20.576  0.00  0.00    +0.200 C 
ENDBRANCH  27  29
ENDBRANCH  22  27
ENDBRANCH  20  21
ENDBRANCH  19  20
ENDBRANCH  18  19
ENDBRANCH   1  18
TORSDOF 11
ENDMDL
MODEL 9
REMARK VINA RESULT:      -9.3      3.095      6.033
REMARK  Name = 71329
REMARK  11 active torsions:
REMARK  status: ('A' for Active; 'I' for Inactive)
REMARK    1  A    between atoms: N_1  and  C_4
REMARK    2  A    between atoms: N_1  and  C_18
REMARK    3  A    between atoms: C_4  and  C_5
REMARK    4  A    between atoms: C_5  and  C_6
REMARK    5  A    between atoms: C_9  and  N_12
REMARK    6  A    between atoms: N_12  and  S_14
REMARK    7  A    between atoms: C_18  and  C_19
REMARK    8  A    between atoms: C_19  and  O_20
REMARK    9  A    between atoms: O_20  and  C_21
REMARK   10  A    between atoms: C_22  and  N_27
REMARK   11  A    between atoms: N_27  and  S_29
REMARK                            x       y       z     vdW  Elec       q    Type
REMARK                         _______ _______ _______ _____ _____    ______ ____
ROOT
ATOM      1  N   UNL     1      31.862 -23.808 -15.555  0.00  0.00    +0.388 N 
ATOM      2  C   UNL     1      30.448 -23.790 -15.181  0.00  0.00    -0.101 C 
ATOM      3  H   UNL     1      32.180 -24.777 -15.571  0.00  0.00    -0.080 HD
ENDROOT
BRANCH   1   4
ATOM      4  C   UNL     1      32.660 -23.074 -14.573  0.00  0.00    -0.073 C 
BRANCH   4   5
ATOM      5  C   UNL     1      33.425 -24.034 -13.662  0.00  0.00    +0.004 C 
BRANCH   5   6
ATOM      6  C   UNL     1      34.842 -24.237 -14.137  0.00  0.00    -0.024 C 
ATOM      7  C   UNL     1      35.236 -25.475 -14.645  0.00  0.00    -0.003 C 
ATOM      8  C   UNL     1      35.758 -23.188 -14.067  0.00  0.00    -0.003 C 
ATOM      9  C   UNL     1      37.463 -24.615 -15.012  0.00  0.00    +0.064 C 
ATOM     10  C   UNL     1      36.547 -25.664 -15.083  0.00  0.00    +0.016 C 
ATOM     11  C   UNL     1      37.069 -23.377 -14.504  0.00  0.00    +0.016 C 
BRANCH   9  12
ATOM     12  N   UNL     1      38.805 -24.808 -15.461  0.00  0.00    -0.219 N 
ATOM     13  H   UNL     1      39.069 -24.573 -16.380  0.00  0.00    +0.173 HD
BRANCH  12  14
ATOM     14  S   UNL     1      39.948 -25.462 -14.351  0.00  0.00    +0.056 S 
ATOM     15  O   UNL     1      40.207 -26.842 -14.720  0.00  0.00    -0.154 OA
ATOM     16  O   UNL     1      41.045 -24.540 -14.131  0.00  0.00    -0.154 OA
ATOM     17  C   UNL     1      38.962 -25.499 -12.871  0.00  0.00    +0.200 C 
ENDBRANCH  12  14
ENDBRANCH   9  12
ENDBRANCH   5   6
ENDBRANCH   4   5
ENDBRANCH   1   4
BRANCH   1  18
ATOM     18  C   UNL     1      32.045 -23.238 -16.890  0.00  0.00    -0.029 C 
BRANCH  18  19
ATOM     19  C   UNL     1      33.521 -23.172 -17.249  0.00  0.00    +0.183 C 
BRANCH  19  20
ATOM     20  O   UNL     1      33.651 -23.248 -18.662  0.00  0.00    -0.478 OA
BRANCH  20  21
ATOM     21  C   UNL     1      33.835 -22.065 -19.330  0.00  0.00    +0.139 C 
ATOM     22  C   UNL     1      34.209 -19.659 -20.691  0.00  0.00    +0.065 C 
ATOM     23  C   UNL     1      32.736 -21.269 -19.654  0.00  0.00    +0.038 C 
ATOM     24  C   UNL     1      35.120 -21.659 -19.685  0.00  0.00    +0.038 C 
ATOM     25  C   UNL     1      32.924 -20.066 -20.335  0.00  0.00    +0.019 C 
ATOM     26  C   UNL     1      35.307 -20.455 -20.367  0.00  0.00    +0.019 C 
BRANCH  22  27
ATOM     27  N   UNL     1      34.401 -18.428 -21.388  0.00  0.00    -0.219 N 
ATOM     28  H   UNL     1      33.972 -17.599 -21.077  0.00  0.00    +0.173 HD
BRANCH  27  29
ATOM     29  S   UNL     1      35.406 -18.433 -22.787  0.00  0.00    +0.056 S 
ATOM     30  O   UNL     1      36.791 -18.409 -22.358  0.00  0.00    -0.154 OA
ATOM     31  O   UNL     1      34.949 -19.415 -23.750  0.00  0.00    -0.154 OA
ATOM     32  C   UNL     1      35.041 -16.818 -23.441  0.00  0.00    +0.200 C 
ENDBRANCH  27  29
ENDBRANCH  22  27
ENDBRANCH  20  21
ENDBRANCH  19  20
ENDBRANCH  18  19
ENDBRANCH   1  18
TORSDOF 11
ENDMDL
