MODEL 1
REMARK VINA RESULT:      -8.1      0.000      0.000
REMARK  Name = 447742
REMARK  12 active torsions:
REMARK  status: ('A' for Active; 'I' for Inactive)
REMARK    1  A    between atoms: C_2  and  C_10
REMARK    2  A    between atoms: C_3  and  C_19
REMARK    3  A    between atoms: C_4  and  O_8
REMARK    4  A    between atoms: C_10  and  N_11
REMARK    5  A    between atoms: N_11  and  O_13
REMARK    6  A    between atoms: O_13  and  C_14
REMARK    7  A    between atoms: C_14  and  C_16
REMARK    8  A    between atoms: C_16  and  O_17
REMARK    9  A    between atoms: C_19  and  O_20
REMARK   10  A    between atoms: O_20  and  P_21
REMARK   11  A    between atoms: P_21  and  O_23
REMARK   12  A    between atoms: P_21  and  O_25
REMARK                            x       y       z     vdW  Elec       q    Type
REMARK                         _______ _______ _______ _____ _____    ______ ____
ROOT
ATOM      1  N   UNL     1      35.177 -23.277 -16.880  0.00  0.00    -0.245 NA
ATOM      2  C   UNL     1      32.904 -23.423 -15.260  0.00  0.00    +0.031 C 
ATOM      3  C   UNL     1      34.158 -23.708 -14.730  0.00  0.00    +0.027 C 
ATOM      4  C   UNL     1      32.785 -23.067 -16.598  0.00  0.00    +0.144 C 
ATOM      5  C   UNL     1      33.942 -23.009 -17.359  0.00  0.00    +0.093 C 
ATOM      6  C   UNL     1      35.253 -23.621 -15.575  0.00  0.00    +0.097 C 
ATOM      7  C   UNL     1      33.870 -22.632 -18.802  0.00  0.00    +0.055 C 
ENDROOT
BRANCH   4   8
ATOM      8  O   UNL     1      31.573 -22.785 -17.143  0.00  0.00    -0.505 OA
ATOM      9  H   UNL     1      31.343 -23.135 -17.982  0.00  0.00    +0.292 HD
ENDBRANCH   4   8
BRANCH   2  10
ATOM     10  C   UNL     1      31.686 -23.501 -14.397  0.00  0.00    +0.126 C 
BRANCH  10  11
ATOM     11  N   UNL     1      30.634 -24.321 -14.995  0.00  0.00    -0.185 NA
ATOM     12  H   UNL     1      30.914 -24.653 -15.919  0.00  0.00    +0.155 HD
BRANCH  11  13
ATOM     13  O   UNL     1      29.492 -23.426 -15.095  0.00  0.00    -0.273 OA
BRANCH  13  14
ATOM     14  C   UNL     1      28.513 -24.070 -15.897  0.00  0.00    +0.275 C 
BRANCH  14  16
ATOM     15  O   UNL     1      27.288 -23.433 -17.898  0.00  0.00    -0.247 OA
ATOM     16  C   UNL     1      28.107 -23.167 -17.029  0.00  0.00    +0.347 C 
BRANCH  16  17
ATOM     17  O   UNL     1      28.781 -21.992 -16.957  0.00  0.00    -0.478 OA
ATOM     18  H   UNL     1      28.701 -21.363 -17.646  0.00  0.00    +0.295 HD
ENDBRANCH  16  17
ENDBRANCH  14  16
ENDBRANCH  13  14
ENDBRANCH  11  13
ENDBRANCH  10  11
ENDBRANCH   2  10
BRANCH   3  19
ATOM     19  C   UNL     1      34.345 -24.095 -13.304  0.00  0.00    +0.181 C 
BRANCH  19  20
ATOM     20  O   UNL     1      35.674 -23.789 -12.899  0.00  0.00    -0.268 OA
BRANCH  20  21
ATOM     21  P   UNL     1      36.409 -24.786 -11.863  0.00  0.00    +0.473 P 
ATOM     22  O   UNL     1      37.685 -24.265 -11.272  0.00  0.00    -0.227 OA
BRANCH  21  23
ATOM     23  O   UNL     1      35.242 -25.109 -10.791  0.00  0.00    -0.303 OA
ATOM     24  H   UNL     1      34.678 -24.327 -10.680  0.00  0.00    +0.222 HD
ENDBRANCH  21  23
BRANCH  21  25
ATOM     25  O   UNL     1      36.545 -26.169 -12.690  0.00  0.00    -0.303 OA
ATOM     26  H   UNL     1      37.172 -26.049 -13.421  0.00  0.00    +0.222 HD
ENDBRANCH  21  25
ENDBRANCH  20  21
ENDBRANCH  19  20
ENDBRANCH   3  19
TORSDOF 12
ENDMDL
MODEL 2
REMARK VINA RESULT:      -7.9      1.739      4.094
REMARK  Name = 447742
REMARK  12 active torsions:
REMARK  status: ('A' for Active; 'I' for Inactive)
REMARK    1  A    between atoms: C_2  and  C_10
REMARK    2  A    between atoms: C_3  and  C_19
REMARK    3  A    between atoms: C_4  and  O_8
REMARK    4  A    between atoms: C_10  and  N_11
REMARK    5  A    between atoms: N_11  and  O_13
REMARK    6  A    between atoms: O_13  and  C_14
REMARK    7  A    between atoms: C_14  and  C_16
REMARK    8  A    between atoms: C_16  and  O_17
REMARK    9  A    between atoms: C_19  and  O_20
REMARK   10  A    between atoms: O_20  and  P_21
REMARK   11  A    between atoms: P_21  and  O_23
REMARK   12  A    between atoms: P_21  and  O_25
REMARK                            x       y       z     vdW  Elec       q    Type
REMARK                         _______ _______ _______ _____ _____    ______ ____
ROOT
ATOM      1  N   UNL     1      31.069 -24.905 -13.872  0.00  0.00    -0.245 NA
ATOM      2  C   UNL     1      33.210 -23.604 -15.112  0.00  0.00    +0.031 C 
ATOM      3  C   UNL     1      33.423 -24.361 -13.965  0.00  0.00    +0.027 C 
ATOM      4  C   UNL     1      31.928 -23.496 -15.639  0.00  0.00    +0.144 C 
ATOM      5  C   UNL     1      30.901 -24.160 -14.987  0.00  0.00    +0.093 C 
ATOM      6  C   UNL     1      32.329 -24.986 -13.388  0.00  0.00    +0.097 C 
ATOM      7  C   UNL     1      29.505 -24.078 -15.510  0.00  0.00    +0.055 C 
ENDROOT
BRANCH   4   8
ATOM      8  O   UNL     1      31.690 -22.763 -16.757  0.00  0.00    -0.505 OA
ATOM      9  H   UNL     1      31.965 -23.083 -17.595  0.00  0.00    +0.292 HD
ENDBRANCH   4   8
BRANCH   2  10
ATOM     10  C   UNL     1      34.352 -22.906 -15.778  0.00  0.00    +0.126 C 
BRANCH  10  11
ATOM     11  N   UNL     1      34.512 -23.313 -17.173  0.00  0.00    -0.185 NA
ATOM     12  H   UNL     1      34.748 -24.304 -17.237  0.00  0.00    +0.155 HD
BRANCH  11  13
ATOM     13  O   UNL     1      35.607 -22.491 -17.664  0.00  0.00    -0.273 OA
BRANCH  13  14
ATOM     14  C   UNL     1      35.251 -22.038 -18.963  0.00  0.00    +0.275 C 
BRANCH  14  16
ATOM     15  O   UNL     1      32.839 -22.096 -19.257  0.00  0.00    -0.247 OA
ATOM     16  C   UNL     1      33.931 -22.634 -19.368  0.00  0.00    +0.347 C 
BRANCH  16  17
ATOM     17  O   UNL     1      34.116 -23.874 -19.887  0.00  0.00    -0.478 OA
ATOM     18  H   UNL     1      34.522 -23.975 -20.725  0.00  0.00    +0.295 HD
ENDBRANCH  16  17
ENDBRANCH  14  16
ENDBRANCH  13  14
ENDBRANCH  11  13
ENDBRANCH  10  11
ENDBRANCH   2  10
BRANCH   3  19
ATOM     19  C   UNL     1      34.774 -24.511 -13.357  0.00  0.00    +0.181 C 
BRANCH  19  20
ATOM     20  O   UNL     1      34.801 -23.861 -12.092  0.00  0.00    -0.268 OA
BRANCH  20  21
ATOM     21  P   UNL     1      36.029 -24.178 -11.092  0.00  0.00    +0.473 P 
ATOM     22  O   UNL     1      37.052 -23.086 -10.973  0.00  0.00    -0.227 OA
BRANCH  21  23
ATOM     23  O   UNL     1      35.277 -24.561  -9.713  0.00  0.00    -0.303 OA
ATOM     24  H   UNL     1      34.339 -24.733  -9.892  0.00  0.00    +0.222 HD
ENDBRANCH  21  23
BRANCH  21  25
ATOM     25  O   UNL     1      36.595 -25.600 -11.615  0.00  0.00    -0.303 OA
ATOM     26  H   UNL     1      36.100 -25.875 -12.403  0.00  0.00    +0.222 HD
ENDBRANCH  21  25
ENDBRANCH  20  21
ENDBRANCH  19  20
ENDBRANCH   3  19
TORSDOF 12
ENDMDL
MODEL 3
REMARK VINA RESULT:      -7.8      3.202      5.273
REMARK  Name = 447742
REMARK  12 active torsions:
REMARK  status: ('A' for Active; 'I' for Inactive)
REMARK    1  A    between atoms: C_2  and  C_10
REMARK    2  A    between atoms: C_3  and  C_19
REMARK    3  A    between atoms: C_4  and  O_8
REMARK    4  A    between atoms: C_10  and  N_11
REMARK    5  A    between atoms: N_11  and  O_13
REMARK    6  A    between atoms: O_13  and  C_14
REMARK    7  A    between atoms: C_14  and  C_16
REMARK    8  A    between atoms: C_16  and  O_17
REMARK    9  A    between atoms: C_19  and  O_20
REMARK   10  A    between atoms: O_20  and  P_21
REMARK   11  A    between atoms: P_21  and  O_23
REMARK   12  A    between atoms: P_21  and  O_25
REMARK                            x       y       z     vdW  Elec       q    Type
REMARK                         _______ _______ _______ _____ _____    ______ ____
ROOT
ATOM      1  N   UNL     1      36.166 -22.031 -17.902  0.00  0.00    -0.245 NA
ATOM      2  C   UNL     1      35.293 -23.441 -15.652  0.00  0.00    +0.031 C 
ATOM      3  C   UNL     1      36.618 -23.024 -15.744  0.00  0.00    +0.027 C 
ATOM      4  C   UNL     1      34.406 -23.154 -16.682  0.00  0.00    +0.144 C 
ATOM      5  C   UNL     1      34.888 -22.453 -17.776  0.00  0.00    +0.093 C 
ATOM      6  C   UNL     1      37.000 -22.329 -16.880  0.00  0.00    +0.097 C 
ATOM      7  C   UNL     1      33.977 -22.118 -18.912  0.00  0.00    +0.055 C 
ENDROOT
BRANCH   4   8
ATOM      8  O   UNL     1      33.108 -23.549 -16.619  0.00  0.00    -0.505 OA
ATOM      9  H   UNL     1      32.820 -24.294 -17.110  0.00  0.00    +0.292 HD
ENDBRANCH   4   8
BRANCH   2  10
ATOM     10  C   UNL     1      34.823 -24.195 -14.450  0.00  0.00    +0.126 C 
BRANCH  10  11
ATOM     11  N   UNL     1      33.799 -23.465 -13.704  0.00  0.00    -0.185 NA
ATOM     12  H   UNL     1      33.885 -22.460 -13.859  0.00  0.00    +0.155 HD
BRANCH  11  13
ATOM     13  O   UNL     1      34.063 -23.796 -12.313  0.00  0.00    -0.273 OA
BRANCH  13  14
ATOM     14  C   UNL     1      35.244 -24.586 -12.278  0.00  0.00    +0.275 C 
BRANCH  14  16
ATOM     15  O   UNL     1      35.331 -24.537  -9.850  0.00  0.00    -0.247 OA
ATOM     16  C   UNL     1      35.899 -24.466 -10.930  0.00  0.00    +0.347 C 
BRANCH  16  17
ATOM     17  O   UNL     1      37.234 -24.268 -11.073  0.00  0.00    -0.478 OA
ATOM     18  H   UNL     1      37.835 -24.953 -10.857  0.00  0.00    +0.295 HD
ENDBRANCH  16  17
ENDBRANCH  14  16
ENDBRANCH  13  14
ENDBRANCH  11  13
ENDBRANCH  10  11
ENDBRANCH   2  10
BRANCH   3  19
ATOM     19  C   UNL     1      37.611 -23.304 -14.671  0.00  0.00    +0.181 C 
BRANCH  19  20
ATOM     20  O   UNL     1      38.783 -23.872 -15.245  0.00  0.00    -0.268 OA
BRANCH  20  21
ATOM     21  P   UNL     1      39.173 -25.389 -14.849  0.00  0.00    +0.473 P 
ATOM     22  O   UNL     1      40.532 -25.836 -15.300  0.00  0.00    -0.227 OA
BRANCH  21  23
ATOM     23  O   UNL     1      38.944 -25.409 -13.248  0.00  0.00    -0.303 OA
ATOM     24  H   UNL     1      38.616 -26.282 -12.979  0.00  0.00    +0.222 HD
ENDBRANCH  21  23
BRANCH  21  25
ATOM     25  O   UNL     1      37.935 -26.265 -15.411  0.00  0.00    -0.303 OA
ATOM     26  H   UNL     1      37.976 -27.160 -15.038  0.00  0.00    +0.222 HD
ENDBRANCH  21  25
ENDBRANCH  20  21
ENDBRANCH  19  20
ENDBRANCH   3  19
TORSDOF 12
ENDMDL
MODEL 4
REMARK VINA RESULT:      -7.8      2.120      2.860
REMARK  Name = 447742
REMARK  12 active torsions:
REMARK  status: ('A' for Active; 'I' for Inactive)
REMARK    1  A    between atoms: C_2  and  C_10
REMARK    2  A    between atoms: C_3  and  C_19
REMARK    3  A    between atoms: C_4  and  O_8
REMARK    4  A    between atoms: C_10  and  N_11
REMARK    5  A    between atoms: N_11  and  O_13
REMARK    6  A    between atoms: O_13  and  C_14
REMARK    7  A    between atoms: C_14  and  C_16
REMARK    8  A    between atoms: C_16  and  O_17
REMARK    9  A    between atoms: C_19  and  O_20
REMARK   10  A    between atoms: O_20  and  P_21
REMARK   11  A    between atoms: P_21  and  O_23
REMARK   12  A    between atoms: P_21  and  O_25
REMARK                            x       y       z     vdW  Elec       q    Type
REMARK                         _______ _______ _______ _____ _____    ______ ____
ROOT
ATOM      1  N   UNL     1      36.326 -21.423 -18.456  0.00  0.00    -0.245 NA
ATOM      2  C   UNL     1      33.998 -22.754 -17.667  0.00  0.00    +0.031 C 
ATOM      3  C   UNL     1      35.123 -22.772 -16.850  0.00  0.00    +0.027 C 
ATOM      4  C   UNL     1      34.035 -22.072 -18.877  0.00  0.00    +0.144 C 
ATOM      5  C   UNL     1      35.213 -21.429 -19.223  0.00  0.00    +0.093 C 
ATOM      6  C   UNL     1      36.252 -22.098 -17.286  0.00  0.00    +0.097 C 
ATOM      7  C   UNL     1      35.307 -20.681 -20.513  0.00  0.00    +0.055 C 
ENDROOT
BRANCH   4   8
ATOM      8  O   UNL     1      32.952 -22.038 -19.696  0.00  0.00    -0.505 OA
ATOM      9  H   UNL     1      32.216 -21.500 -19.477  0.00  0.00    +0.292 HD
ENDBRANCH   4   8
BRANCH   2  10
ATOM     10  C   UNL     1      32.751 -23.465 -17.249  0.00  0.00    +0.126 C 
BRANCH  10  11
ATOM     11  N   UNL     1      31.581 -22.588 -17.266  0.00  0.00    -0.185 NA
ATOM     12  H   UNL     1      31.859 -21.616 -17.404  0.00  0.00    +0.155 HD
BRANCH  11  13
ATOM     13  O   UNL     1      30.978 -22.770 -15.955  0.00  0.00    -0.273 OA
BRANCH  13  14
ATOM     14  C   UNL     1      29.950 -23.742 -16.089  0.00  0.00    +0.275 C 
BRANCH  14  16
ATOM     15  O   UNL     1      28.575 -21.959 -17.004  0.00  0.00    -0.247 OA
ATOM     16  C   UNL     1      28.782 -23.151 -16.829  0.00  0.00    +0.347 C 
BRANCH  16  17
ATOM     17  O   UNL     1      27.971 -24.137 -17.288  0.00  0.00    -0.478 OA
ATOM     18  H   UNL     1      28.181 -24.583 -18.085  0.00  0.00    +0.295 HD
ENDBRANCH  16  17
ENDBRANCH  14  16
ENDBRANCH  13  14
ENDBRANCH  11  13
ENDBRANCH  10  11
ENDBRANCH   2  10
BRANCH   3  19
ATOM     19  C   UNL     1      35.140 -23.487 -15.544  0.00  0.00    +0.181 C 
BRANCH  19  20
ATOM     20  O   UNL     1      35.522 -24.842 -15.748  0.00  0.00    -0.268 OA
BRANCH  20  21
ATOM     21  P   UNL     1      36.804 -25.407 -14.944  0.00  0.00    +0.473 P 
ATOM     22  O   UNL     1      36.585 -25.645 -13.479  0.00  0.00    -0.227 OA
BRANCH  21  23
ATOM     23  O   UNL     1      37.209 -26.720 -15.797  0.00  0.00    -0.303 OA
ATOM     24  H   UNL     1      37.597 -27.384 -15.205  0.00  0.00    +0.222 HD
ENDBRANCH  21  23
BRANCH  21  25
ATOM     25  O   UNL     1      37.979 -24.355 -15.304  0.00  0.00    -0.303 OA
ATOM     26  H   UNL     1      37.612 -23.628 -15.832  0.00  0.00    +0.222 HD
ENDBRANCH  21  25
ENDBRANCH  20  21
ENDBRANCH  19  20
ENDBRANCH   3  19
TORSDOF 12
ENDMDL
MODEL 5
REMARK VINA RESULT:      -7.5      1.929      2.357
REMARK  Name = 447742
REMARK  12 active torsions:
REMARK  status: ('A' for Active; 'I' for Inactive)
REMARK    1  A    between atoms: C_2  and  C_10
REMARK    2  A    between atoms: C_3  and  C_19
REMARK    3  A    between atoms: C_4  and  O_8
REMARK    4  A    between atoms: C_10  and  N_11
REMARK    5  A    between atoms: N_11  and  O_13
REMARK    6  A    between atoms: O_13  and  C_14
REMARK    7  A    between atoms: C_14  and  C_16
REMARK    8  A    between atoms: C_16  and  O_17
REMARK    9  A    between atoms: C_19  and  O_20
REMARK   10  A    between atoms: O_20  and  P_21
REMARK   11  A    between atoms: P_21  and  O_23
REMARK   12  A    between atoms: P_21  and  O_25
REMARK                            x       y       z     vdW  Elec       q    Type
REMARK                         _______ _______ _______ _____ _____    ______ ____
ROOT
ATOM      1  N   UNL     1      35.597 -22.670 -17.277  0.00  0.00    -0.245 NA
ATOM      2  C   UNL     1      34.113 -23.511 -15.063  0.00  0.00    +0.031 C 
ATOM      3  C   UNL     1      35.494 -23.373 -14.966  0.00  0.00    +0.027 C 
ATOM      4  C   UNL     1      33.475 -23.230 -16.265  0.00  0.00    +0.144 C 
ATOM      5  C   UNL     1      34.255 -22.817 -17.333  0.00  0.00    +0.093 C 
ATOM      6  C   UNL     1      36.184 -22.953 -16.092  0.00  0.00    +0.097 C 
ATOM      7  C   UNL     1      33.619 -22.501 -18.647  0.00  0.00    +0.055 C 
ENDROOT
BRANCH   4   8
ATOM      8  O   UNL     1      32.127 -23.357 -16.388  0.00  0.00    -0.505 OA
ATOM      9  H   UNL     1      31.756 -24.180 -16.641  0.00  0.00    +0.292 HD
ENDBRANCH   4   8
BRANCH   2  10
ATOM     10  C   UNL     1      33.317 -23.962 -13.881  0.00  0.00    +0.126 C 
BRANCH  10  11
ATOM     11  N   UNL     1      32.623 -25.225 -14.129  0.00  0.00    -0.185 NA
ATOM     12  H   UNL     1      32.211 -25.235 -15.063  0.00  0.00    +0.155 HD
BRANCH  11  13
ATOM     13  O   UNL     1      31.588 -25.273 -13.109  0.00  0.00    -0.273 OA
BRANCH  13  14
ATOM     14  C   UNL     1      30.515 -24.454 -13.550  0.00  0.00    +0.275 C 
BRANCH  14  16
ATOM     15  O   UNL     1      30.187 -25.204 -15.839  0.00  0.00    -0.247 OA
ATOM     16  C   UNL     1      29.792 -25.127 -14.685  0.00  0.00    +0.347 C 
BRANCH  16  17
ATOM     17  O   UNL     1      28.619 -25.651 -14.248  0.00  0.00    -0.478 OA
ATOM     18  H   UNL     1      28.425 -26.555 -14.398  0.00  0.00    +0.295 HD
ENDBRANCH  16  17
ENDBRANCH  14  16
ENDBRANCH  13  14
ENDBRANCH  11  13
ENDBRANCH  10  11
ENDBRANCH   2  10
BRANCH   3  19
ATOM     19  C   UNL     1      36.231 -23.660 -13.705  0.00  0.00    +0.181 C 
BRANCH  19  20
ATOM     20  O   UNL     1      37.237 -24.635 -13.953  0.00  0.00    -0.268 OA
BRANCH  20  21
ATOM     21  P   UNL     1      37.937 -25.356 -12.689  0.00  0.00    +0.473 P 
ATOM     22  O   UNL     1      39.221 -26.071 -12.992  0.00  0.00    -0.227 OA
BRANCH  21  23
ATOM     23  O   UNL     1      38.062 -24.152 -11.616  0.00  0.00    -0.303 OA
ATOM     24  H   UNL     1      37.189 -23.755 -11.472  0.00  0.00    +0.222 HD
ENDBRANCH  21  23
BRANCH  21  25
ATOM     25  O   UNL     1      36.761 -26.280 -12.073  0.00  0.00    -0.303 OA
ATOM     26  H   UNL     1      36.052 -25.714 -11.727  0.00  0.00    +0.222 HD
ENDBRANCH  21  25
ENDBRANCH  20  21
ENDBRANCH  19  20
ENDBRANCH   3  19
TORSDOF 12
ENDMDL
MODEL 6
REMARK VINA RESULT:      -7.5      2.863      3.482
REMARK  Name = 447742
REMARK  12 active torsions:
REMARK  status: ('A' for Active; 'I' for Inactive)
REMARK    1  A    between atoms: C_2  and  C_10
REMARK    2  A    between atoms: C_3  and  C_19
REMARK    3  A    between atoms: C_4  and  O_8
REMARK    4  A    between atoms: C_10  and  N_11
REMARK    5  A    between atoms: N_11  and  O_13
REMARK    6  A    between atoms: O_13  and  C_14
REMARK    7  A    between atoms: C_14  and  C_16
REMARK    8  A    between atoms: C_16  and  O_17
REMARK    9  A    between atoms: C_19  and  O_20
REMARK   10  A    between atoms: O_20  and  P_21
REMARK   11  A    between atoms: P_21  and  O_23
REMARK   12  A    between atoms: P_21  and  O_25
REMARK                            x       y       z     vdW  Elec       q    Type
REMARK                         _______ _______ _______ _____ _____    ______ ____
ROOT
ATOM      1  N   UNL     1      36.812 -21.674 -17.932  0.00  0.00    -0.245 NA
ATOM      2  C   UNL     1      35.176 -23.142 -16.206  0.00  0.00    +0.031 C 
ATOM      3  C   UNL     1      36.496 -22.873 -15.857  0.00  0.00    +0.027 C 
ATOM      4  C   UNL     1      34.675 -22.679 -17.416  0.00  0.00    +0.144 C 
ATOM      5  C   UNL     1      35.526 -21.956 -18.237  0.00  0.00    +0.093 C 
ATOM      6  C   UNL     1      37.265 -22.141 -16.747  0.00  0.00    +0.097 C 
ATOM      7  C   UNL     1      35.038 -21.435 -19.549  0.00  0.00    +0.055 C 
ENDROOT
BRANCH   4   8
ATOM      8  O   UNL     1      33.390 -22.928 -17.784  0.00  0.00    -0.505 OA
ATOM      9  H   UNL     1      32.832 -22.221 -18.044  0.00  0.00    +0.292 HD
ENDBRANCH   4   8
BRANCH   2  10
ATOM     10  C   UNL     1      34.299 -23.928 -15.285  0.00  0.00    +0.126 C 
BRANCH  10  11
ATOM     11  N   UNL     1      33.419 -23.070 -14.493  0.00  0.00    -0.185 NA
ATOM     12  H   UNL     1      33.306 -23.441 -13.549  0.00  0.00    +0.155 HD
BRANCH  11  13
ATOM     13  O   UNL     1      32.154 -23.093 -15.209  0.00  0.00    -0.273 OA
BRANCH  13  14
ATOM     14  C   UNL     1      31.116 -23.155 -14.241  0.00  0.00    +0.275 C 
BRANCH  14  16
ATOM     15  O   UNL     1      31.449 -25.562 -14.215  0.00  0.00    -0.247 OA
ATOM     16  C   UNL     1      31.020 -24.548 -13.683  0.00  0.00    +0.347 C 
BRANCH  16  17
ATOM     17  O   UNL     1      30.385 -24.530 -12.484  0.00  0.00    -0.478 OA
ATOM     18  H   UNL     1      29.877 -23.784 -12.234  0.00  0.00    +0.295 HD
ENDBRANCH  16  17
ENDBRANCH  14  16
ENDBRANCH  13  14
ENDBRANCH  11  13
ENDBRANCH  10  11
ENDBRANCH   2  10
BRANCH   3  19
ATOM     19  C   UNL     1      37.085 -23.344 -14.574  0.00  0.00    +0.181 C 
BRANCH  19  20
ATOM     20  O   UNL     1      38.378 -23.888 -14.816  0.00  0.00    -0.268 OA
BRANCH  20  21
ATOM     21  P   UNL     1      38.569 -25.488 -14.710  0.00  0.00    +0.473 P 
ATOM     22  O   UNL     1      38.650 -26.029 -13.313  0.00  0.00    -0.227 OA
BRANCH  21  23
ATOM     23  O   UNL     1      37.338 -26.054 -15.591  0.00  0.00    -0.303 OA
ATOM     24  H   UNL     1      36.630 -25.391 -15.623  0.00  0.00    +0.222 HD
ENDBRANCH  21  23
BRANCH  21  25
ATOM     25  O   UNL     1      39.858 -25.785 -15.641  0.00  0.00    -0.303 OA
ATOM     26  H   UNL     1      39.919 -25.108 -16.334  0.00  0.00    +0.222 HD
ENDBRANCH  21  25
ENDBRANCH  20  21
ENDBRANCH  19  20
ENDBRANCH   3  19
TORSDOF 12
ENDMDL
MODEL 7
REMARK VINA RESULT:      -7.4      1.871      2.387
REMARK  Name = 447742
REMARK  12 active torsions:
REMARK  status: ('A' for Active; 'I' for Inactive)
REMARK    1  A    between atoms: C_2  and  C_10
REMARK    2  A    between atoms: C_3  and  C_19
REMARK    3  A    between atoms: C_4  and  O_8
REMARK    4  A    between atoms: C_10  and  N_11
REMARK    5  A    between atoms: N_11  and  O_13
REMARK    6  A    between atoms: O_13  and  C_14
REMARK    7  A    between atoms: C_14  and  C_16
REMARK    8  A    between atoms: C_16  and  O_17
REMARK    9  A    between atoms: C_19  and  O_20
REMARK   10  A    between atoms: O_20  and  P_21
REMARK   11  A    between atoms: P_21  and  O_23
REMARK   12  A    between atoms: P_21  and  O_25
REMARK                            x       y       z     vdW  Elec       q    Type
REMARK                         _______ _______ _______ _____ _____    ______ ____
ROOT
ATOM      1  N   UNL     1      36.245 -22.002 -18.021  0.00  0.00    -0.245 NA
ATOM      2  C   UNL     1      34.671 -23.228 -16.064  0.00  0.00    +0.031 C 
ATOM      3  C   UNL     1      36.021 -22.990 -15.826  0.00  0.00    +0.027 C 
ATOM      4  C   UNL     1      34.108 -22.854 -17.278  0.00  0.00    +0.144 C 
ATOM      5  C   UNL     1      34.931 -22.250 -18.216  0.00  0.00    +0.093 C 
ATOM      6  C   UNL     1      36.757 -22.380 -16.828  0.00  0.00    +0.097 C 
ATOM      7  C   UNL     1      34.378 -21.828 -19.537  0.00  0.00    +0.055 C 
ENDROOT
BRANCH   4   8
ATOM      8  O   UNL     1      32.793 -23.075 -17.539  0.00  0.00    -0.505 OA
ATOM      9  H   UNL     1      32.168 -22.388 -17.408  0.00  0.00    +0.292 HD
ENDBRANCH   4   8
BRANCH   2  10
ATOM     10  C   UNL     1      33.826 -23.884 -15.020  0.00  0.00    +0.126 C 
BRANCH  10  11
ATOM     11  N   UNL     1      32.724 -23.028 -14.580  0.00  0.00    -0.185 NA
ATOM     12  H   UNL     1      32.748 -22.898 -13.569  0.00  0.00    +0.155 HD
BRANCH  11  13
ATOM     13  O   UNL     1      31.527 -23.751 -14.978  0.00  0.00    -0.273 OA
BRANCH  13  14
ATOM     14  C   UNL     1      30.417 -22.891 -14.759  0.00  0.00    +0.275 C 
BRANCH  14  16
ATOM     15  O   UNL     1      29.904 -22.443 -17.092  0.00  0.00    -0.247 OA
ATOM     16  C   UNL     1      29.556 -22.845 -15.991  0.00  0.00    +0.347 C 
BRANCH  16  17
ATOM     17  O   UNL     1      28.316 -23.323 -15.715  0.00  0.00    -0.478 OA
ATOM     18  H   UNL     1      28.030 -23.396 -14.826  0.00  0.00    +0.295 HD
ENDBRANCH  16  17
ENDBRANCH  14  16
ENDBRANCH  13  14
ENDBRANCH  11  13
ENDBRANCH  10  11
ENDBRANCH   2  10
BRANCH   3  19
ATOM     19  C   UNL     1      36.676 -23.370 -14.544  0.00  0.00    +0.181 C 
BRANCH  19  20
ATOM     20  O   UNL     1      37.807 -24.190 -14.813  0.00  0.00    -0.268 OA
BRANCH  20  21
ATOM     21  P   UNL     1      37.738 -25.751 -14.402  0.00  0.00    +0.473 P 
ATOM     22  O   UNL     1      38.950 -26.277 -13.691  0.00  0.00    -0.227 OA
BRANCH  21  23
ATOM     23  O   UNL     1      36.361 -25.837 -13.559  0.00  0.00    -0.303 OA
ATOM     24  H   UNL     1      36.148 -24.963 -13.196  0.00  0.00    +0.222 HD
ENDBRANCH  21  23
BRANCH  21  25
ATOM     25  O   UNL     1      37.372 -26.498 -15.789  0.00  0.00    -0.303 OA
ATOM     26  H   UNL     1      36.872 -25.894 -16.360  0.00  0.00    +0.222 HD
ENDBRANCH  21  25
ENDBRANCH  20  21
ENDBRANCH  19  20
ENDBRANCH   3  19
TORSDOF 12
ENDMDL
MODEL 8
REMARK VINA RESULT:      -7.3      2.121      5.037
REMARK  Name = 447742
REMARK  12 active torsions:
REMARK  status: ('A' for Active; 'I' for Inactive)
REMARK    1  A    between atoms: C_2  and  C_10
REMARK    2  A    between atoms: C_3  and  C_19
REMARK    3  A    between atoms: C_4  and  O_8
REMARK    4  A    between atoms: C_10  and  N_11
REMARK    5  A    between atoms: N_11  and  O_13
REMARK    6  A    between atoms: O_13  and  C_14
REMARK    7  A    between atoms: C_14  and  C_16
REMARK    8  A    between atoms: C_16  and  O_17
REMARK    9  A    between atoms: C_19  and  O_20
REMARK   10  A    between atoms: O_20  and  P_21
REMARK   11  A    between atoms: P_21  and  O_23
REMARK   12  A    between atoms: P_21  and  O_25
REMARK                            x       y       z     vdW  Elec       q    Type
REMARK                         _______ _______ _______ _____ _____    ______ ____
ROOT
ATOM      1  N   UNL     1      30.613 -24.979 -13.897  0.00  0.00    -0.245 NA
ATOM      2  C   UNL     1      32.585 -23.551 -15.270  0.00  0.00    +0.031 C 
ATOM      3  C   UNL     1      32.920 -24.297 -14.144  0.00  0.00    +0.027 C 
ATOM      4  C   UNL     1      31.267 -23.518 -15.708  0.00  0.00    +0.144 C 
ATOM      5  C   UNL     1      30.327 -24.243 -14.993  0.00  0.00    +0.093 C 
ATOM      6  C   UNL     1      31.906 -24.987 -13.499  0.00  0.00    +0.097 C 
ATOM      7  C   UNL     1      28.896 -24.242 -15.422  0.00  0.00    +0.055 C 
ENDROOT
BRANCH   4   8
ATOM      8  O   UNL     1      30.911 -22.797 -16.804  0.00  0.00    -0.505 OA
ATOM      9  H   UNL     1      31.541 -22.247 -17.227  0.00  0.00    +0.292 HD
ENDBRANCH   4   8
BRANCH   2  10
ATOM     10  C   UNL     1      33.637 -22.786 -16.006  0.00  0.00    +0.126 C 
BRANCH  10  11
ATOM     11  N   UNL     1      34.060 -23.464 -17.231  0.00  0.00    -0.185 NA
ATOM     12  H   UNL     1      34.060 -24.476 -17.103  0.00  0.00    +0.155 HD
BRANCH  11  13
ATOM     13  O   UNL     1      35.409 -22.974 -17.465  0.00  0.00    -0.273 OA
BRANCH  13  14
ATOM     14  C   UNL     1      35.868 -22.392 -16.253  0.00  0.00    +0.275 C 
BRANCH  14  16
ATOM     15  O   UNL     1      38.275 -22.700 -16.113  0.00  0.00    -0.247 OA
ATOM     16  C   UNL     1      37.313 -21.999 -16.392  0.00  0.00    +0.347 C 
BRANCH  16  17
ATOM     17  O   UNL     1      37.411 -20.736 -16.879  0.00  0.00    -0.478 OA
ATOM     18  H   UNL     1      36.637 -20.228 -17.021  0.00  0.00    +0.295 HD
ENDBRANCH  16  17
ENDBRANCH  14  16
ENDBRANCH  13  14
ENDBRANCH  11  13
ENDBRANCH  10  11
ENDBRANCH   2  10
BRANCH   3  19
ATOM     19  C   UNL     1      34.315 -24.368 -13.630  0.00  0.00    +0.181 C 
BRANCH  19  20
ATOM     20  O   UNL     1      34.302 -24.290 -12.209  0.00  0.00    -0.268 OA
BRANCH  20  21
ATOM     21  P   UNL     1      35.713 -24.336 -11.425  0.00  0.00    +0.473 P 
ATOM     22  O   UNL     1      36.617 -23.164 -11.670  0.00  0.00    -0.227 OA
BRANCH  21  23
ATOM     23  O   UNL     1      35.260 -24.538  -9.886  0.00  0.00    -0.303 OA
ATOM     24  H   UNL     1      34.964 -25.452  -9.753  0.00  0.00    +0.222 HD
ENDBRANCH  21  23
BRANCH  21  25
ATOM     25  O   UNL     1      36.328 -25.778 -11.823  0.00  0.00    -0.303 OA
ATOM     26  H   UNL     1      35.805 -26.166 -12.542  0.00  0.00    +0.222 HD
ENDBRANCH  21  25
ENDBRANCH  20  21
ENDBRANCH  19  20
ENDBRANCH   3  19
TORSDOF 12
ENDMDL
MODEL 9
REMARK VINA RESULT:      -7.3      2.345      5.573
REMARK  Name = 447742
REMARK  12 active torsions:
REMARK  status: ('A' for Active; 'I' for Inactive)
REMARK    1  A    between atoms: C_2  and  C_10
REMARK    2  A    between atoms: C_3  and  C_19
REMARK    3  A    between atoms: C_4  and  O_8
REMARK    4  A    between atoms: C_10  and  N_11
REMARK    5  A    between atoms: N_11  and  O_13
REMARK    6  A    between atoms: O_13  and  C_14
REMARK    7  A    between atoms: C_14  and  C_16
REMARK    8  A    between atoms: C_16  and  O_17
REMARK    9  A    between atoms: C_19  and  O_20
REMARK   10  A    between atoms: O_20  and  P_21
REMARK   11  A    between atoms: P_21  and  O_23
REMARK   12  A    between atoms: P_21  and  O_25
REMARK                            x       y       z     vdW  Elec       q    Type
REMARK                         _______ _______ _______ _____ _____    ______ ____
ROOT
ATOM      1  N   UNL     1      32.845 -22.911 -17.072  0.00  0.00    -0.245 NA
ATOM      2  C   UNL     1      33.449 -24.056 -14.595  0.00  0.00    +0.031 C 
ATOM      3  C   UNL     1      34.463 -23.805 -15.513  0.00  0.00    +0.027 C 
ATOM      4  C   UNL     1      32.135 -23.737 -14.913  0.00  0.00    +0.144 C 
ATOM      5  C   UNL     1      31.888 -23.171 -16.154  0.00  0.00    +0.093 C 
ATOM      6  C   UNL     1      34.111 -23.236 -16.727  0.00  0.00    +0.097 C 
ATOM      7  C   UNL     1      30.493 -22.809 -16.547  0.00  0.00    +0.055 C 
ENDROOT
BRANCH   4   8
ATOM      8  O   UNL     1      31.125 -23.973 -14.036  0.00  0.00    -0.505 OA
ATOM      9  H   UNL     1      31.319 -24.187 -13.144  0.00  0.00    +0.292 HD
ENDBRANCH   4   8
BRANCH   2  10
ATOM     10  C   UNL     1      33.769 -24.669 -13.269  0.00  0.00    +0.126 C 
BRANCH  10  11
ATOM     11  N   UNL     1      34.790 -23.916 -12.542  0.00  0.00    -0.185 NA
ATOM     12  H   UNL     1      35.648 -23.847 -13.090  0.00  0.00    +0.155 HD
BRANCH  11  13
ATOM     13  O   UNL     1      35.013 -24.689 -11.331  0.00  0.00    -0.273 OA
BRANCH  13  14
ATOM     14  C   UNL     1      35.813 -23.900 -10.462  0.00  0.00    +0.275 C 
BRANCH  14  16
ATOM     15  O   UNL     1      38.001 -24.366 -11.413  0.00  0.00    -0.247 OA
ATOM     16  C   UNL     1      37.118 -23.568 -11.132  0.00  0.00    +0.347 C 
BRANCH  16  17
ATOM     17  O   UNL     1      37.186 -22.238 -11.392  0.00  0.00    -0.478 OA
ATOM     18  H   UNL     1      37.510 -21.939 -12.219  0.00  0.00    +0.295 HD
ENDBRANCH  16  17
ENDBRANCH  14  16
ENDBRANCH  13  14
ENDBRANCH  11  13
ENDBRANCH  10  11
ENDBRANCH   2  10
BRANCH   3  19
ATOM     19  C   UNL     1      35.888 -24.126 -15.225  0.00  0.00    +0.181 C 
BRANCH  19  20
ATOM     20  O   UNL     1      36.083 -25.533 -15.305  0.00  0.00    -0.268 OA
BRANCH  20  21
ATOM     21  P   UNL     1      37.280 -26.193 -14.444  0.00  0.00    +0.473 P 
ATOM     22  O   UNL     1      37.922 -27.399 -15.064  0.00  0.00    -0.227 OA
BRANCH  21  23
ATOM     23  O   UNL     1      38.274 -24.941 -14.199  0.00  0.00    -0.303 OA
ATOM     24  H   UNL     1      38.457 -24.854 -13.250  0.00  0.00    +0.222 HD
ENDBRANCH  21  23
BRANCH  21  25
ATOM     25  O   UNL     1      36.620 -26.433 -12.987  0.00  0.00    -0.303 OA
ATOM     26  H   UNL     1      35.956 -25.746 -12.816  0.00  0.00    +0.222 HD
ENDBRANCH  21  25
ENDBRANCH  20  21
ENDBRANCH  19  20
ENDBRANCH   3  19
TORSDOF 12
ENDMDL
