MODEL 1
REMARK VINA RESULT:      -6.5      0.000      0.000
REMARK  Name = 4162
REMARK  2 active torsions:
REMARK  status: ('A' for Active; 'I' for Inactive)
REMARK    1  A    between atoms: C_4  and  C_11
REMARK    2  A    between atoms: C_4  and  C_13
REMARK                            x       y       z     vdW  Elec       q    Type
REMARK                         _______ _______ _______ _____ _____    ______ ____
ROOT
ATOM      1  O   UNL     1      33.154  -7.522 -19.918  0.00  0.00    -0.296 OA
ATOM      2  O   UNL     1      31.200  -7.739 -24.256  0.00  0.00    -0.275 OA
ATOM      3  N   UNL     1      31.277  -9.582 -22.913  0.00  0.00    -0.304 N 
ATOM      4  C   UNL     1      32.581  -7.587 -22.265  0.00  0.00    +0.120 C 
ATOM      5  C   UNL     1      31.662  -9.310 -20.525  0.00  0.00    +0.078 C 
ATOM      6  C   UNL     1      32.532  -8.095 -20.816  0.00  0.00    +0.159 C 
ATOM      7  C   UNL     1      31.611  -8.284 -23.230  0.00  0.00    +0.228 C 
ATOM      8  C   UNL     1      31.740 -10.251 -21.718  0.00  0.00    +0.097 C 
ATOM      9  C   UNL     1      32.097 -10.022 -19.248  0.00  0.00    +0.010 C 
ATOM     10  H   UNL     1      30.695 -10.080 -23.532  0.00  0.00    +0.149 HD
ENDROOT
BRANCH   4  11
ATOM     11  C   UNL     1      34.005  -7.814 -22.794  0.00  0.00    +0.016 C 
ATOM     12  C   UNL     1      34.262  -6.987 -24.034  0.00  0.00    +0.001 C 
ENDBRANCH   4  11
BRANCH   4  13
ATOM     13  C   UNL     1      32.268  -6.082 -22.254  0.00  0.00    +0.016 C 
ATOM     14  C   UNL     1      30.906  -5.814 -21.654  0.00  0.00    +0.001 C 
ENDBRANCH   4  13
TORSDOF 2
ENDMDL
MODEL 2
REMARK VINA RESULT:      -6.5      8.886     10.684
REMARK  Name = 4162
REMARK  2 active torsions:
REMARK  status: ('A' for Active; 'I' for Inactive)
REMARK    1  A    between atoms: C_4  and  C_11
REMARK    2  A    between atoms: C_4  and  C_13
REMARK                            x       y       z     vdW  Elec       q    Type
REMARK                         _______ _______ _______ _____ _____    ______ ____
ROOT
ATOM      1  O   UNL     1      35.089 -16.517 -20.299  0.00  0.00    -0.296 OA
ATOM      2  O   UNL     1      35.158 -19.750 -23.796  0.00  0.00    -0.275 OA
ATOM      3  N   UNL     1      34.382 -17.636 -24.170  0.00  0.00    -0.304 N 
ATOM      4  C   UNL     1      34.798 -18.353 -21.843  0.00  0.00    +0.120 C 
ATOM      5  C   UNL     1      34.951 -15.857 -22.609  0.00  0.00    +0.078 C 
ATOM      6  C   UNL     1      34.949 -16.870 -21.473  0.00  0.00    +0.159 C 
ATOM      7  C   UNL     1      34.821 -18.651 -23.349  0.00  0.00    +0.228 C 
ATOM      8  C   UNL     1      33.982 -16.337 -23.680  0.00  0.00    +0.097 C 
ATOM      9  C   UNL     1      34.569 -14.463 -22.122  0.00  0.00    +0.010 C 
ATOM     10  H   UNL     1      34.338 -17.805 -25.139  0.00  0.00    +0.149 HD
ENDROOT
BRANCH   4  11
ATOM     11  C   UNL     1      33.447 -18.838 -21.296  0.00  0.00    +0.016 C 
ATOM     12  C   UNL     1      33.599 -20.148 -20.553  0.00  0.00    +0.001 C 
ENDBRANCH   4  11
BRANCH   4  13
ATOM     13  C   UNL     1      35.938 -19.133 -21.168  0.00  0.00    +0.016 C 
ATOM     14  C   UNL     1      37.278 -18.752 -21.756  0.00  0.00    +0.001 C 
ENDBRANCH   4  13
TORSDOF 2
ENDMDL
MODEL 3
REMARK VINA RESULT:      -6.3     17.393     19.703
REMARK  Name = 4162
REMARK  2 active torsions:
REMARK  status: ('A' for Active; 'I' for Inactive)
REMARK    1  A    between atoms: C_4  and  C_11
REMARK    2  A    between atoms: C_4  and  C_13
REMARK                            x       y       z     vdW  Elec       q    Type
REMARK                         _______ _______ _______ _____ _____    ______ ____
ROOT
ATOM      1  O   UNL     1      37.787 -23.054 -13.531  0.00  0.00    -0.296 OA
ATOM      2  O   UNL     1      38.061 -27.667 -14.680  0.00  0.00    -0.275 OA
ATOM      3  N   UNL     1      36.220 -26.432 -15.225  0.00  0.00    -0.304 N 
ATOM      4  C   UNL     1      37.884 -25.464 -13.676  0.00  0.00    +0.120 C 
ATOM      5  C   UNL     1      36.365 -24.002 -15.225  0.00  0.00    +0.078 C 
ATOM      6  C   UNL     1      37.373 -24.074 -14.087  0.00  0.00    +0.159 C 
ATOM      7  C   UNL     1      37.424 -26.617 -14.580  0.00  0.00    +0.228 C 
ATOM      8  C   UNL     1      35.449 -25.214 -15.130  0.00  0.00    +0.097 C 
ATOM      9  C   UNL     1      35.556 -22.710 -15.180  0.00  0.00    +0.010 C 
ATOM     10  H   UNL     1      35.868 -27.168 -15.776  0.00  0.00    +0.149 HD
ENDROOT
BRANCH   4  11
ATOM     11  C   UNL     1      37.369 -25.753 -12.258  0.00  0.00    +0.016 C 
ATOM     12  C   UNL     1      36.182 -24.877 -11.922  0.00  0.00    +0.001 C 
ENDBRANCH   4  11
BRANCH   4  13
ATOM     13  C   UNL     1      39.421 -25.426 -13.670  0.00  0.00    +0.016 C 
ATOM     14  C   UNL     1      39.963 -25.153 -15.056  0.00  0.00    +0.001 C 
ENDBRANCH   4  13
TORSDOF 2
ENDMDL
MODEL 4
REMARK VINA RESULT:      -6.0     10.161     11.683
REMARK  Name = 4162
REMARK  2 active torsions:
REMARK  status: ('A' for Active; 'I' for Inactive)
REMARK    1  A    between atoms: C_4  and  C_11
REMARK    2  A    between atoms: C_4  and  C_13
REMARK                            x       y       z     vdW  Elec       q    Type
REMARK                         _______ _______ _______ _____ _____    ______ ____
ROOT
ATOM      1  O   UNL     1      32.921 -19.304 -21.221  0.00  0.00    -0.296 OA
ATOM      2  O   UNL     1      37.504 -18.436 -22.182  0.00  0.00    -0.275 OA
ATOM      3  N   UNL     1      36.909 -19.819 -20.467  0.00  0.00    -0.304 N 
ATOM      4  C   UNL     1      35.159 -18.456 -21.554  0.00  0.00    +0.120 C 
ATOM      5  C   UNL     1      34.661 -20.752 -20.404  0.00  0.00    +0.078 C 
ATOM      6  C   UNL     1      34.131 -19.486 -21.063  0.00  0.00    +0.159 C 
ATOM      7  C   UNL     1      36.624 -18.905 -21.457  0.00  0.00    +0.228 C 
ATOM      8  C   UNL     1      35.902 -20.390 -19.601  0.00  0.00    +0.097 C 
ATOM      9  C   UNL     1      33.612 -21.404 -19.510  0.00  0.00    +0.010 C 
ATOM     10  H   UNL     1      37.845 -20.097 -20.342  0.00  0.00    +0.149 HD
ENDROOT
BRANCH   4  11
ATOM     11  C   UNL     1      35.004 -17.192 -20.695  0.00  0.00    +0.016 C 
ATOM     12  C   UNL     1      34.617 -16.001 -21.545  0.00  0.00    +0.001 C 
ENDBRANCH   4  11
BRANCH   4  13
ATOM     13  C   UNL     1      34.841 -18.125 -23.021  0.00  0.00    +0.016 C 
ATOM     14  C   UNL     1      34.899 -19.367 -23.883  0.00  0.00    +0.001 C 
ENDBRANCH   4  13
TORSDOF 2
ENDMDL
MODEL 5
REMARK VINA RESULT:      -6.0      2.020      3.172
REMARK  Name = 4162
REMARK  2 active torsions:
REMARK  status: ('A' for Active; 'I' for Inactive)
REMARK    1  A    between atoms: C_4  and  C_11
REMARK    2  A    between atoms: C_4  and  C_13
REMARK                            x       y       z     vdW  Elec       q    Type
REMARK                         _______ _______ _______ _____ _____    ______ ____
ROOT
ATOM      1  O   UNL     1      30.741 -10.724 -22.222  0.00  0.00    -0.296 OA
ATOM      2  O   UNL     1      34.037  -7.317 -22.676  0.00  0.00    -0.275 OA
ATOM      3  N   UNL     1      33.168  -7.840 -20.632  0.00  0.00    -0.304 N 
ATOM      4  C   UNL     1      32.089  -8.765 -22.652  0.00  0.00    +0.120 C 
ATOM      5  C   UNL     1      32.014  -9.962 -20.327  0.00  0.00    +0.078 C 
ATOM      6  C   UNL     1      31.531  -9.892 -21.769  0.00  0.00    +0.159 C 
ATOM      7  C   UNL     1      33.200  -7.926 -22.006  0.00  0.00    +0.228 C 
ATOM      8  C   UNL     1      32.202  -8.541 -19.816  0.00  0.00    +0.097 C 
ATOM      9  C   UNL     1      31.037 -10.728 -19.442  0.00  0.00    +0.010 C 
ATOM     10  H   UNL     1      33.835  -7.273 -20.182  0.00  0.00    +0.149 HD
ENDROOT
BRANCH   4  11
ATOM     11  C   UNL     1      30.929  -7.817 -22.991  0.00  0.00    +0.016 C 
ATOM     12  C   UNL     1      31.080  -7.251 -24.386  0.00  0.00    +0.001 C 
ENDBRANCH   4  11
BRANCH   4  13
ATOM     13  C   UNL     1      32.635  -9.396 -23.943  0.00  0.00    +0.016 C 
ATOM     14  C   UNL     1      33.688 -10.437 -23.636  0.00  0.00    +0.001 C 
ENDBRANCH   4  13
TORSDOF 2
ENDMDL
MODEL 6
REMARK VINA RESULT:      -5.9     18.238     19.542
REMARK  Name = 4162
REMARK  2 active torsions:
REMARK  status: ('A' for Active; 'I' for Inactive)
REMARK    1  A    between atoms: C_4  and  C_11
REMARK    2  A    between atoms: C_4  and  C_13
REMARK                            x       y       z     vdW  Elec       q    Type
REMARK                         _______ _______ _______ _____ _____    ______ ____
ROOT
ATOM      1  O   UNL     1      37.952 -23.142 -15.066  0.00  0.00    -0.296 OA
ATOM      2  O   UNL     1      36.096 -25.675 -11.486  0.00  0.00    -0.275 OA
ATOM      3  N   UNL     1      37.634 -26.597 -12.898  0.00  0.00    -0.304 N 
ATOM      4  C   UNL     1      36.636 -24.416 -13.489  0.00  0.00    +0.120 C 
ATOM      5  C   UNL     1      39.025 -25.143 -14.268  0.00  0.00    +0.078 C 
ATOM      6  C   UNL     1      37.878 -24.145 -14.352  0.00  0.00    +0.159 C 
ATOM      7  C   UNL     1      36.767 -25.596 -12.517  0.00  0.00    +0.228 C 
ATOM      8  C   UNL     1      38.436 -26.536 -14.099  0.00  0.00    +0.097 C 
ATOM      9  C   UNL     1      39.916 -25.082 -15.504  0.00  0.00    +0.010 C 
ATOM     10  H   UNL     1      37.710 -27.393 -12.324  0.00  0.00    +0.149 HD
ENDROOT
BRANCH   4  11
ATOM     11  C   UNL     1      35.465 -24.722 -14.435  0.00  0.00    +0.016 C 
ATOM     12  C   UNL     1      34.222 -23.964 -14.024  0.00  0.00    +0.001 C 
ENDBRANCH   4  11
BRANCH   4  13
ATOM     13  C   UNL     1      36.329 -23.144 -12.682  0.00  0.00    +0.016 C 
ATOM     14  C   UNL     1      37.474 -22.798 -11.757  0.00  0.00    +0.001 C 
ENDBRANCH   4  13
TORSDOF 2
ENDMDL
MODEL 7
REMARK VINA RESULT:      -5.9     17.296     18.867
REMARK  Name = 4162
REMARK  2 active torsions:
REMARK  status: ('A' for Active; 'I' for Inactive)
REMARK    1  A    between atoms: C_4  and  C_11
REMARK    2  A    between atoms: C_4  and  C_13
REMARK                            x       y       z     vdW  Elec       q    Type
REMARK                         _______ _______ _______ _____ _____    ______ ____
ROOT
ATOM      1  O   UNL     1      36.028 -22.736 -13.115  0.00  0.00    -0.296 OA
ATOM      2  O   UNL     1      36.192 -26.554 -15.957  0.00  0.00    -0.275 OA
ATOM      3  N   UNL     1      36.836 -26.692 -13.772  0.00  0.00    -0.304 N 
ATOM      4  C   UNL     1      36.447 -24.460 -14.756  0.00  0.00    +0.120 C 
ATOM      5  C   UNL     1      36.144 -24.961 -12.206  0.00  0.00    +0.078 C 
ATOM      6  C   UNL     1      36.200 -23.938 -13.332  0.00  0.00    +0.159 C 
ATOM      7  C   UNL     1      36.455 -25.989 -14.893  0.00  0.00    +0.228 C 
ATOM      8  C   UNL     1      37.150 -26.062 -12.509  0.00  0.00    +0.097 C 
ATOM      9  C   UNL     1      36.433 -24.325 -10.851  0.00  0.00    +0.010 C 
ATOM     10  H   UNL     1      36.900 -27.673 -13.833  0.00  0.00    +0.149 HD
ENDROOT
BRANCH   4  11
ATOM     11  C   UNL     1      37.821 -23.946 -15.211  0.00  0.00    +0.016 C 
ATOM     12  C   UNL     1      37.680 -22.726 -16.095  0.00  0.00    +0.001 C 
ENDBRANCH   4  11
BRANCH   4  13
ATOM     13  C   UNL     1      35.353 -23.888 -15.671  0.00  0.00    +0.016 C 
ATOM     14  C   UNL     1      33.980 -24.094 -15.071  0.00  0.00    +0.001 C 
ENDBRANCH   4  13
TORSDOF 2
ENDMDL
MODEL 8
REMARK VINA RESULT:      -5.9      7.145      8.894
REMARK  Name = 4162
REMARK  2 active torsions:
REMARK  status: ('A' for Active; 'I' for Inactive)
REMARK    1  A    between atoms: C_4  and  C_11
REMARK    2  A    between atoms: C_4  and  C_13
REMARK                            x       y       z     vdW  Elec       q    Type
REMARK                         _______ _______ _______ _____ _____    ______ ____
ROOT
ATOM      1  O   UNL     1      33.992 -16.392 -24.534  0.00  0.00    -0.296 OA
ATOM      2  O   UNL     1      35.043 -14.765 -20.183  0.00  0.00    -0.275 OA
ATOM      3  N   UNL     1      35.125 -16.997 -20.650  0.00  0.00    -0.304 N 
ATOM      4  C   UNL     1      34.090 -15.477 -22.299  0.00  0.00    +0.120 C 
ATOM      5  C   UNL     1      35.232 -17.734 -22.967  0.00  0.00    +0.078 C 
ATOM      6  C   UNL     1      34.393 -16.531 -23.376  0.00  0.00    +0.159 C 
ATOM      7  C   UNL     1      34.810 -15.693 -20.961  0.00  0.00    +0.228 C 
ATOM      8  C   UNL     1      34.868 -18.108 -21.538  0.00  0.00    +0.097 C 
ATOM      9  C   UNL     1      35.015 -18.916 -23.905  0.00  0.00    +0.010 C 
ATOM     10  H   UNL     1      35.545 -17.182 -19.778  0.00  0.00    +0.149 HD
ENDROOT
BRANCH   4  11
ATOM     11  C   UNL     1      32.579 -15.509 -22.023  0.00  0.00    +0.016 C 
ATOM     12  C   UNL     1      32.300 -15.583 -20.538  0.00  0.00    +0.001 C 
ENDBRANCH   4  11
BRANCH   4  13
ATOM     13  C   UNL     1      34.485 -14.099 -22.855  0.00  0.00    +0.016 C 
ATOM     14  C   UNL     1      33.261 -13.297 -23.237  0.00  0.00    +0.001 C 
ENDBRANCH   4  13
TORSDOF 2
ENDMDL
MODEL 9
REMARK VINA RESULT:      -5.9     18.110     19.684
REMARK  Name = 4162
REMARK  2 active torsions:
REMARK  status: ('A' for Active; 'I' for Inactive)
REMARK    1  A    between atoms: C_4  and  C_11
REMARK    2  A    between atoms: C_4  and  C_13
REMARK                            x       y       z     vdW  Elec       q    Type
REMARK                         _______ _______ _______ _____ _____    ______ ____
ROOT
ATOM      1  O   UNL     1      37.025 -26.573 -12.141  0.00  0.00    -0.296 OA
ATOM      2  O   UNL     1      38.277 -23.497 -15.554  0.00  0.00    -0.275 OA
ATOM      3  N   UNL     1      36.850 -22.876 -13.884  0.00  0.00    -0.304 N 
ATOM      4  C   UNL     1      37.412 -25.268 -14.138  0.00  0.00    +0.120 C 
ATOM      5  C   UNL     1      36.743 -24.202 -11.845  0.00  0.00    +0.078 C 
ATOM      6  C   UNL     1      37.046 -25.453 -12.658  0.00  0.00    +0.159 C 
ATOM      7  C   UNL     1      37.579 -23.810 -14.588  0.00  0.00    +0.228 C 
ATOM      8  C   UNL     1      36.023 -23.208 -12.746  0.00  0.00    +0.097 C 
ATOM      9  C   UNL     1      35.903 -24.519 -10.614  0.00  0.00    +0.010 C 
ATOM     10  H   UNL     1      36.893 -21.935 -14.172  0.00  0.00    +0.149 HD
ENDROOT
BRANCH   4  11
ATOM     11  C   UNL     1      36.285 -25.886 -14.980  0.00  0.00    +0.016 C 
ATOM     12  C   UNL     1      36.755 -27.145 -15.676  0.00  0.00    +0.001 C 
ENDBRANCH   4  11
BRANCH   4  13
ATOM     13  C   UNL     1      38.726 -26.020 -14.403  0.00  0.00    +0.016 C 
ATOM     14  C   UNL     1      39.869 -25.405 -13.627  0.00  0.00    +0.001 C 
ENDBRANCH   4  13
TORSDOF 2
ENDMDL
