MODEL 1
REMARK VINA RESULT:      -7.8      0.000      0.000
REMARK  Name = 448573
REMARK  4 active torsions:
REMARK  status: ('A' for Active; 'I' for Inactive)
REMARK    1  A    between atoms: C_5  and  C_14
REMARK    2  A    between atoms: N_13  and  C_16
REMARK    3  A    between atoms: C_16  and  C_17
REMARK    4  A    between atoms: C_17  and  S_18
REMARK                            x       y       z     vdW  Elec       q    Type
REMARK                         _______ _______ _______ _____ _____    ______ ____
ROOT
ATOM      1  F   UNL     1      36.438 -18.657 -22.284  0.00  0.00    -0.204 F 
ATOM      2  N   UNL     1      32.761 -21.333 -19.262  0.00  0.00    -0.309 N 
ATOM      3  C   UNL     1      34.859 -20.909 -19.890  0.00  0.00    +0.017 C 
ATOM      4  C   UNL     1      33.525 -20.559 -20.106  0.00  0.00    +0.049 C 
ATOM      5  C   UNL     1      33.564 -22.158 -18.521  0.00  0.00    +0.102 C 
ATOM      6  C   UNL     1      34.868 -21.919 -18.887  0.00  0.00    +0.021 C 
ATOM      7  C   UNL     1      35.861 -20.258 -20.637  0.00  0.00    +0.031 C 
ATOM      8  C   UNL     1      33.140 -19.587 -21.036  0.00  0.00    +0.017 C 
ATOM      9  C   UNL     1      35.491 -19.282 -21.570  0.00  0.00    +0.140 C 
ATOM     10  C   UNL     1      34.151 -18.953 -21.765  0.00  0.00    +0.031 C 
ATOM     11  H   UNL     1      31.778 -21.299 -19.200  0.00  0.00    +0.152 HD
ENDROOT
BRANCH   5  14
ATOM     12  O   UNL     1      33.721 -24.072 -17.134  0.00  0.00    -0.269 OA
ATOM     13  N   UNL     1      31.760 -22.879 -17.072  0.00  0.00    -0.299 N 
ATOM     14  C   UNL     1      33.070 -23.085 -17.553  0.00  0.00    +0.259 C 
ATOM     15  H   UNL     1      31.258 -22.101 -17.408  0.00  0.00    +0.150 HD
BRANCH  13  16
ATOM     16  C   UNL     1      31.112 -23.748 -16.115  0.00  0.00    +0.101 C 
BRANCH  16  17
ATOM     17  C   UNL     1      30.091 -23.023 -15.250  0.00  0.00    +0.075 C 
BRANCH  17  18
ATOM     18  S   UNL     1      28.496 -22.811 -16.099  0.00  0.00    -0.166 S 
ATOM     19  H   UNL     1      27.899 -24.024 -16.251  0.00  0.00    +0.102 HD
ENDBRANCH  17  18
ENDBRANCH  16  17
ENDBRANCH  13  16
ENDBRANCH   5  14
TORSDOF 4
ENDMDL
MODEL 2
REMARK VINA RESULT:      -7.8      5.298      7.386
REMARK  Name = 448573
REMARK  4 active torsions:
REMARK  status: ('A' for Active; 'I' for Inactive)
REMARK    1  A    between atoms: C_5  and  C_14
REMARK    2  A    between atoms: N_13  and  C_16
REMARK    3  A    between atoms: C_16  and  C_17
REMARK    4  A    between atoms: C_17  and  S_18
REMARK                            x       y       z     vdW  Elec       q    Type
REMARK                         _______ _______ _______ _____ _____    ______ ____
ROOT
ATOM      1  F   UNL     1      33.593 -22.961 -18.389  0.00  0.00    -0.204 F 
ATOM      2  N   UNL     1      35.869 -18.972 -21.343  0.00  0.00    -0.309 N 
ATOM      3  C   UNL     1      34.094 -20.072 -20.557  0.00  0.00    +0.017 C 
ATOM      4  C   UNL     1      35.490 -20.033 -20.551  0.00  0.00    +0.049 C 
ATOM      5  C   UNL     1      34.763 -18.340 -21.847  0.00  0.00    +0.102 C 
ATOM      6  C   UNL     1      33.650 -18.998 -21.378  0.00  0.00    +0.021 C 
ATOM      7  C   UNL     1      33.441 -21.076 -19.816  0.00  0.00    +0.031 C 
ATOM      8  C   UNL     1      36.269 -20.952 -19.840  0.00  0.00    +0.017 C 
ATOM      9  C   UNL     1      34.207 -22.003 -19.098  0.00  0.00    +0.140 C 
ATOM     10  C   UNL     1      35.599 -21.940 -19.112  0.00  0.00    +0.031 C 
ATOM     11  H   UNL     1      36.800 -18.706 -21.521  0.00  0.00    +0.152 HD
ENDROOT
BRANCH   5  14
ATOM     12  O   UNL     1      35.225 -17.242 -23.894  0.00  0.00    -0.269 OA
ATOM     13  N   UNL     1      34.435 -15.959 -22.161  0.00  0.00    -0.299 N 
ATOM     14  C   UNL     1      34.824 -17.201 -22.706  0.00  0.00    +0.259 C 
ATOM     15  H   UNL     1      34.121 -15.939 -21.227  0.00  0.00    +0.150 HD
BRANCH  13  16
ATOM     16  C   UNL     1      34.470 -14.715 -22.896  0.00  0.00    +0.101 C 
BRANCH  16  17
ATOM     17  C   UNL     1      33.120 -14.332 -23.484  0.00  0.00    +0.075 C 
BRANCH  17  18
ATOM     18  S   UNL     1      33.127 -14.362 -25.303  0.00  0.00    -0.166 S 
ATOM     19  H   UNL     1      34.385 -14.629 -25.746  0.00  0.00    +0.102 HD
ENDBRANCH  17  18
ENDBRANCH  16  17
ENDBRANCH  13  16
ENDBRANCH   5  14
TORSDOF 4
ENDMDL
MODEL 3
REMARK VINA RESULT:      -7.6      5.343      7.535
REMARK  Name = 448573
REMARK  4 active torsions:
REMARK  status: ('A' for Active; 'I' for Inactive)
REMARK    1  A    between atoms: C_5  and  C_14
REMARK    2  A    between atoms: N_13  and  C_16
REMARK    3  A    between atoms: C_16  and  C_17
REMARK    4  A    between atoms: C_17  and  S_18
REMARK                            x       y       z     vdW  Elec       q    Type
REMARK                         _______ _______ _______ _____ _____    ______ ____
ROOT
ATOM      1  F   UNL     1      35.712 -22.434 -18.733  0.00  0.00    -0.204 F 
ATOM      2  N   UNL     1      33.657 -18.394 -21.778  0.00  0.00    -0.309 N 
ATOM      3  C   UNL     1      35.370 -19.552 -20.940  0.00  0.00    +0.017 C 
ATOM      4  C   UNL     1      33.977 -19.461 -20.968  0.00  0.00    +0.049 C 
ATOM      5  C   UNL     1      34.797 -17.811 -22.263  0.00  0.00    +0.102 C 
ATOM      6  C   UNL     1      35.874 -18.505 -21.762  0.00  0.00    +0.021 C 
ATOM      7  C   UNL     1      35.968 -20.572 -20.173  0.00  0.00    +0.031 C 
ATOM      8  C   UNL     1      33.147 -20.341 -20.263  0.00  0.00    +0.017 C 
ATOM      9  C   UNL     1      35.151 -21.460 -19.464  0.00  0.00    +0.140 C 
ATOM     10  C   UNL     1      33.763 -21.345 -19.510  0.00  0.00    +0.031 C 
ATOM     11  H   UNL     1      32.741 -18.095 -21.980  0.00  0.00    +0.152 HD
ENDROOT
BRANCH   5  14
ATOM     12  O   UNL     1      35.251 -16.696 -24.303  0.00  0.00    -0.269 OA
ATOM     13  N   UNL     1      34.284 -15.469 -22.621  0.00  0.00    -0.299 N 
ATOM     14  C   UNL     1      34.798 -16.678 -23.133  0.00  0.00    +0.259 C 
ATOM     15  H   UNL     1      33.930 -15.467 -21.701  0.00  0.00    +0.150 HD
BRANCH  13  16
ATOM     16  C   UNL     1      34.246 -14.233 -23.370  0.00  0.00    +0.101 C 
BRANCH  16  17
ATOM     17  C   UNL     1      32.904 -13.987 -24.045  0.00  0.00    +0.075 C 
BRANCH  17  18
ATOM     18  S   UNL     1      32.972 -14.284 -25.839  0.00  0.00    -0.166 S 
ATOM     19  H   UNL     1      32.265 -13.318 -26.485  0.00  0.00    +0.102 HD
ENDBRANCH  17  18
ENDBRANCH  16  17
ENDBRANCH  13  16
ENDBRANCH   5  14
TORSDOF 4
ENDMDL
MODEL 4
REMARK VINA RESULT:      -7.5      7.976     10.264
REMARK  Name = 448573
REMARK  4 active torsions:
REMARK  status: ('A' for Active; 'I' for Inactive)
REMARK    1  A    between atoms: C_5  and  C_14
REMARK    2  A    between atoms: N_13  and  C_16
REMARK    3  A    between atoms: C_16  and  C_17
REMARK    4  A    between atoms: C_17  and  S_18
REMARK                            x       y       z     vdW  Elec       q    Type
REMARK                         _______ _______ _______ _____ _____    ______ ____
ROOT
ATOM      1  F   UNL     1      35.161 -19.815 -24.677  0.00  0.00    -0.204 F 
ATOM      2  N   UNL     1      34.457 -14.870 -22.472  0.00  0.00    -0.309 N 
ATOM      3  C   UNL     1      34.257 -16.322 -24.154  0.00  0.00    +0.017 C 
ATOM      4  C   UNL     1      34.722 -16.168 -22.846  0.00  0.00    +0.049 C 
ATOM      5  C   UNL     1      33.842 -14.199 -23.495  0.00  0.00    +0.102 C 
ATOM      6  C   UNL     1      33.705 -15.071 -24.550  0.00  0.00    +0.021 C 
ATOM      7  C   UNL     1      34.407 -17.573 -24.785  0.00  0.00    +0.031 C 
ATOM      8  C   UNL     1      35.332 -17.207 -22.134  0.00  0.00    +0.017 C 
ATOM      9  C   UNL     1      35.015 -18.622 -24.085  0.00  0.00    +0.140 C 
ATOM     10  C   UNL     1      35.470 -18.440 -22.780  0.00  0.00    +0.031 C 
ATOM     11  H   UNL     1      34.678 -14.480 -21.594  0.00  0.00    +0.152 HD
ENDROOT
BRANCH   5  14
ATOM     12  O   UNL     1      32.535 -12.411 -22.656  0.00  0.00    -0.269 OA
ATOM     13  N   UNL     1      34.089 -11.917 -24.273  0.00  0.00    -0.299 N 
ATOM     14  C   UNL     1      33.440 -12.831 -23.417  0.00  0.00    +0.259 C 
ATOM     15  H   UNL     1      34.798 -12.258 -24.865  0.00  0.00    +0.150 HD
BRANCH  13  16
ATOM     16  C   UNL     1      33.771 -10.508 -24.330  0.00  0.00    +0.101 C 
BRANCH  16  17
ATOM     17  C   UNL     1      35.006  -9.619 -24.339  0.00  0.00    +0.075 C 
BRANCH  17  18
ATOM     18  S   UNL     1      34.662  -7.956 -23.687  0.00  0.00    -0.166 S 
ATOM     19  H   UNL     1      33.547  -7.457 -24.284  0.00  0.00    +0.102 HD
ENDBRANCH  17  18
ENDBRANCH  16  17
ENDBRANCH  13  16
ENDBRANCH   5  14
TORSDOF 4
ENDMDL
MODEL 5
REMARK VINA RESULT:      -7.5      2.856      3.099
REMARK  Name = 448573
REMARK  4 active torsions:
REMARK  status: ('A' for Active; 'I' for Inactive)
REMARK    1  A    between atoms: C_5  and  C_14
REMARK    2  A    between atoms: N_13  and  C_16
REMARK    3  A    between atoms: C_16  and  C_17
REMARK    4  A    between atoms: C_17  and  S_18
REMARK                            x       y       z     vdW  Elec       q    Type
REMARK                         _______ _______ _______ _____ _____    ______ ____
ROOT
ATOM      1  F   UNL     1      35.935 -18.833 -22.507  0.00  0.00    -0.204 F 
ATOM      2  N   UNL     1      33.011 -21.696 -18.891  0.00  0.00    -0.309 N 
ATOM      3  C   UNL     1      34.951 -21.049 -19.784  0.00  0.00    +0.017 C 
ATOM      4  C   UNL     1      33.565 -20.906 -19.874  0.00  0.00    +0.049 C 
ATOM      5  C   UNL     1      33.997 -22.332 -18.185  0.00  0.00    +0.102 C 
ATOM      6  C   UNL     1      35.209 -21.952 -18.714  0.00  0.00    +0.021 C 
ATOM      7  C   UNL     1      35.767 -20.339 -20.687  0.00  0.00    +0.031 C 
ATOM      8  C   UNL     1      32.950 -20.085 -20.826  0.00  0.00    +0.017 C 
ATOM      9  C   UNL     1      35.166 -19.513 -21.645  0.00  0.00    +0.140 C 
ATOM     10  C   UNL     1      33.780 -19.390 -21.712  0.00  0.00    +0.031 C 
ATOM     11  H   UNL     1      32.046 -21.790 -18.721  0.00  0.00    +0.152 HD
ENDROOT
BRANCH   5  14
ATOM     12  O   UNL     1      32.620 -23.723 -16.852  0.00  0.00    -0.269 OA
ATOM     13  N   UNL     1      34.826 -23.527 -16.246  0.00  0.00    -0.299 N 
ATOM     14  C   UNL     1      33.744 -23.224 -17.099  0.00  0.00    +0.259 C 
ATOM     15  H   UNL     1      35.704 -23.129 -16.450  0.00  0.00    +0.150 HD
BRANCH  13  16
ATOM     16  C   UNL     1      34.718 -24.388 -15.090  0.00  0.00    +0.101 C 
BRANCH  16  17
ATOM     17  C   UNL     1      35.795 -25.463 -15.046  0.00  0.00    +0.075 C 
BRANCH  17  18
ATOM     18  S   UNL     1      37.436 -24.777 -14.661  0.00  0.00    -0.166 S 
ATOM     19  H   UNL     1      38.381 -25.429 -15.390  0.00  0.00    +0.102 HD
ENDBRANCH  17  18
ENDBRANCH  16  17
ENDBRANCH  13  16
ENDBRANCH   5  14
TORSDOF 4
ENDMDL
MODEL 6
REMARK VINA RESULT:      -7.5      6.409      7.639
REMARK  Name = 448573
REMARK  4 active torsions:
REMARK  status: ('A' for Active; 'I' for Inactive)
REMARK    1  A    between atoms: C_5  and  C_14
REMARK    2  A    between atoms: N_13  and  C_16
REMARK    3  A    between atoms: C_16  and  C_17
REMARK    4  A    between atoms: C_17  and  S_18
REMARK                            x       y       z     vdW  Elec       q    Type
REMARK                         _______ _______ _______ _____ _____    ______ ____
ROOT
ATOM      1  F   UNL     1      28.641 -22.829 -17.123  0.00  0.00    -0.204 F 
ATOM      2  N   UNL     1      32.258 -25.121 -13.735  0.00  0.00    -0.309 N 
ATOM      3  C   UNL     1      31.640 -23.530 -15.171  0.00  0.00    +0.017 C 
ATOM      4  C   UNL     1      31.221 -24.701 -14.537  0.00  0.00    +0.049 C 
ATOM      5  C   UNL     1      33.316 -24.258 -13.840  0.00  0.00    +0.102 C 
ATOM      6  C   UNL     1      32.964 -23.263 -14.722  0.00  0.00    +0.021 C 
ATOM      7  C   UNL     1      30.757 -22.886 -16.060  0.00  0.00    +0.031 C 
ATOM      8  C   UNL     1      29.957 -25.264 -14.748  0.00  0.00    +0.017 C 
ATOM      9  C   UNL     1      29.489 -23.436 -16.280  0.00  0.00    +0.140 C 
ATOM     10  C   UNL     1      29.097 -24.607 -15.633  0.00  0.00    +0.031 C 
ATOM     11  H   UNL     1      32.242 -25.927 -13.168  0.00  0.00    +0.152 HD
ENDROOT
BRANCH   5  14
ATOM     12  O   UNL     1      34.768 -23.931 -11.997  0.00  0.00    -0.269 OA
ATOM     13  N   UNL     1      35.567 -25.155 -13.769  0.00  0.00    -0.299 N 
ATOM     14  C   UNL     1      34.545 -24.421 -13.130  0.00  0.00    +0.259 C 
ATOM     15  H   UNL     1      35.380 -25.536 -14.658  0.00  0.00    +0.150 HD
BRANCH  13  16
ATOM     16  C   UNL     1      36.873 -25.379 -13.191  0.00  0.00    +0.101 C 
BRANCH  16  17
ATOM     17  C   UNL     1      37.789 -26.198 -14.090  0.00  0.00    +0.075 C 
BRANCH  17  18
ATOM     18  S   UNL     1      39.496 -25.569 -14.088  0.00  0.00    -0.166 S 
ATOM     19  H   UNL     1      40.173 -26.095 -15.144  0.00  0.00    +0.102 HD
ENDBRANCH  17  18
ENDBRANCH  16  17
ENDBRANCH  13  16
ENDBRANCH   5  14
TORSDOF 4
ENDMDL
MODEL 7
REMARK VINA RESULT:      -7.5      7.737     10.057
REMARK  Name = 448573
REMARK  4 active torsions:
REMARK  status: ('A' for Active; 'I' for Inactive)
REMARK    1  A    between atoms: C_5  and  C_14
REMARK    2  A    between atoms: N_13  and  C_16
REMARK    3  A    between atoms: C_16  and  C_17
REMARK    4  A    between atoms: C_17  and  S_18
REMARK                            x       y       z     vdW  Elec       q    Type
REMARK                         _______ _______ _______ _____ _____    ______ ____
ROOT
ATOM      1  F   UNL     1      35.778 -19.422 -20.994  0.00  0.00    -0.204 F 
ATOM      2  N   UNL     1      34.148 -15.135 -23.957  0.00  0.00    -0.309 N 
ATOM      3  C   UNL     1      34.633 -16.114 -22.012  0.00  0.00    +0.017 C 
ATOM      4  C   UNL     1      34.575 -16.316 -23.392  0.00  0.00    +0.049 C 
ATOM      5  C   UNL     1      33.935 -14.196 -22.984  0.00  0.00    +0.102 C 
ATOM      6  C   UNL     1      34.226 -14.771 -21.769  0.00  0.00    +0.021 C 
ATOM      7  C   UNL     1      35.045 -17.179 -21.186  0.00  0.00    +0.031 C 
ATOM      8  C   UNL     1      34.910 -17.535 -23.992  0.00  0.00    +0.017 C 
ATOM      9  C   UNL     1      35.384 -18.404 -21.772  0.00  0.00    +0.140 C 
ATOM     10  C   UNL     1      35.317 -18.578 -23.153  0.00  0.00    +0.031 C 
ATOM     11  H   UNL     1      34.016 -14.988 -24.922  0.00  0.00    +0.152 HD
ENDROOT
BRANCH   5  14
ATOM     12  O   UNL     1      32.471 -12.352 -22.723  0.00  0.00    -0.269 OA
ATOM     13  N   UNL     1      34.223 -12.112 -24.188  0.00  0.00    -0.299 N 
ATOM     14  C   UNL     1      33.486 -12.866 -23.251  0.00  0.00    +0.259 C 
ATOM     15  H   UNL     1      35.018 -12.526 -24.595  0.00  0.00    +0.150 HD
BRANCH  13  16
ATOM     16  C   UNL     1      33.876 -10.765 -24.583  0.00  0.00    +0.101 C 
BRANCH  16  17
ATOM     17  C   UNL     1      35.046  -9.797 -24.488  0.00  0.00    +0.075 C 
BRANCH  17  18
ATOM     18  S   UNL     1      34.558  -8.195 -23.776  0.00  0.00    -0.166 S 
ATOM     19  H   UNL     1      33.447  -7.737 -24.413  0.00  0.00    +0.102 HD
ENDBRANCH  17  18
ENDBRANCH  16  17
ENDBRANCH  13  16
ENDBRANCH   5  14
TORSDOF 4
ENDMDL
MODEL 8
REMARK VINA RESULT:      -7.4      7.447      9.166
REMARK  Name = 448573
REMARK  4 active torsions:
REMARK  status: ('A' for Active; 'I' for Inactive)
REMARK    1  A    between atoms: C_5  and  C_14
REMARK    2  A    between atoms: N_13  and  C_16
REMARK    3  A    between atoms: C_16  and  C_17
REMARK    4  A    between atoms: C_17  and  S_18
REMARK                            x       y       z     vdW  Elec       q    Type
REMARK                         _______ _______ _______ _____ _____    ______ ____
ROOT
ATOM      1  F   UNL     1      35.011 -20.023 -24.945  0.00  0.00    -0.204 F 
ATOM      2  N   UNL     1      34.454 -15.117 -22.615  0.00  0.00    -0.309 N 
ATOM      3  C   UNL     1      34.215 -16.518 -24.334  0.00  0.00    +0.017 C 
ATOM      4  C   UNL     1      34.680 -16.413 -23.021  0.00  0.00    +0.049 C 
ATOM      5  C   UNL     1      33.864 -14.401 -23.622  0.00  0.00    +0.102 C 
ATOM      6  C   UNL     1      33.704 -15.241 -24.700  0.00  0.00    +0.021 C 
ATOM      7  C   UNL     1      34.328 -17.756 -24.997  0.00  0.00    +0.031 C 
ATOM      8  C   UNL     1      35.255 -17.488 -22.335  0.00  0.00    +0.017 C 
ATOM      9  C   UNL     1      34.901 -18.842 -24.322  0.00  0.00    +0.140 C 
ATOM     10  C   UNL     1      35.356 -18.707 -23.012  0.00  0.00    +0.031 C 
ATOM     11  H   UNL     1      34.684 -14.757 -21.727  0.00  0.00    +0.152 HD
ENDROOT
BRANCH   5  14
ATOM     12  O   UNL     1      34.067 -12.100 -24.146  0.00  0.00    -0.269 OA
ATOM     13  N   UNL     1      32.475 -12.697 -22.603  0.00  0.00    -0.299 N 
ATOM     14  C   UNL     1      33.505 -13.024 -23.510  0.00  0.00    +0.259 C 
ATOM     15  H   UNL     1      32.040 -13.430 -22.109  0.00  0.00    +0.150 HD
BRANCH  13  16
ATOM     16  C   UNL     1      32.021 -11.346 -22.358  0.00  0.00    +0.101 C 
BRANCH  16  17
ATOM     17  C   UNL     1      30.845 -11.279 -21.394  0.00  0.00    +0.075 C 
BRANCH  17  18
ATOM     18  S   UNL     1      31.363 -10.838 -19.706  0.00  0.00    -0.166 S 
ATOM     19  H   UNL     1      30.263 -10.611 -18.940  0.00  0.00    +0.102 HD
ENDBRANCH  17  18
ENDBRANCH  16  17
ENDBRANCH  13  16
ENDBRANCH   5  14
TORSDOF 4
ENDMDL
MODEL 9
REMARK VINA RESULT:      -7.4      2.872      3.273
REMARK  Name = 448573
REMARK  4 active torsions:
REMARK  status: ('A' for Active; 'I' for Inactive)
REMARK    1  A    between atoms: C_5  and  C_14
REMARK    2  A    between atoms: N_13  and  C_16
REMARK    3  A    between atoms: C_16  and  C_17
REMARK    4  A    between atoms: C_17  and  S_18
REMARK                            x       y       z     vdW  Elec       q    Type
REMARK                         _______ _______ _______ _____ _____    ______ ____
ROOT
ATOM      1  F   UNL     1      34.701 -17.604 -22.949  0.00  0.00    -0.204 F 
ATOM      2  N   UNL     1      35.669 -21.439 -19.184  0.00  0.00    -0.309 N 
ATOM      3  C   UNL     1      34.296 -20.285 -20.511  0.00  0.00    +0.017 C 
ATOM      4  C   UNL     1      35.630 -20.438 -20.129  0.00  0.00    +0.049 C 
ATOM      5  C   UNL     1      34.408 -21.923 -18.956  0.00  0.00    +0.102 C 
ATOM      6  C   UNL     1      33.537 -21.228 -19.763  0.00  0.00    +0.021 C 
ATOM      7  C   UNL     1      33.974 -19.312 -21.478  0.00  0.00    +0.031 C 
ATOM      8  C   UNL     1      36.664 -19.664 -20.667  0.00  0.00    +0.017 C 
ATOM      9  C   UNL     1      34.998 -18.531 -22.027  0.00  0.00    +0.140 C 
ATOM     10  C   UNL     1      36.322 -18.705 -21.626  0.00  0.00    +0.031 C 
ATOM     11  H   UNL     1      36.485 -21.760 -18.736  0.00  0.00    +0.152 HD
ENDROOT
BRANCH   5  14
ATOM     12  O   UNL     1      33.415 -23.971 -18.303  0.00  0.00    -0.269 OA
ATOM     13  N   UNL     1      34.632 -22.834 -16.721  0.00  0.00    -0.299 N 
ATOM     14  C   UNL     1      34.117 -22.968 -18.028  0.00  0.00    +0.259 C 
ATOM     15  H   UNL     1      35.182 -22.043 -16.518  0.00  0.00    +0.150 HD
BRANCH  13  16
ATOM     16  C   UNL     1      34.397 -23.793 -15.665  0.00  0.00    +0.101 C 
BRANCH  16  17
ATOM     17  C   UNL     1      35.549 -23.879 -14.673  0.00  0.00    +0.075 C 
BRANCH  17  18
ATOM     18  S   UNL     1      36.488 -25.428 -14.841  0.00  0.00    -0.166 S 
ATOM     19  H   UNL     1      37.659 -25.180 -15.487  0.00  0.00    +0.102 HD
ENDBRANCH  17  18
ENDBRANCH  16  17
ENDBRANCH  13  16
ENDBRANCH   5  14
TORSDOF 4
ENDMDL
