MODEL 1
REMARK VINA RESULT:      -7.6      0.000      0.000
REMARK  Name = 6951149
REMARK  5 active torsions:
REMARK  status: ('A' for Active; 'I' for Inactive)
REMARK    1  A    between atoms: CG_2  and  CB_11
REMARK    2  A    between atoms: CB_11  and  CA_12
REMARK    3  A    between atoms: CA_12  and  N_13
REMARK    4  A    between atoms: CA_12  and  C_17
REMARK    5  A    between atoms: C_17  and  O_18
REMARK                            x       y       z     vdW  Elec       q    Type
REMARK                         _______ _______ _______ _____ _____    ______ ____
ROOT
ATOM      1  NE1 TRP A   1      36.825 -19.942 -20.258  0.00  0.00    -0.312 N 
ATOM      2  CG  TRP A   1      35.188 -18.928 -21.364  0.00  0.00    -0.008 C 
ATOM      3  CD2 TRP A   1      34.622 -19.990 -20.606  0.00  0.00    +0.011 C 
ATOM      4  CE2 TRP A   1      35.669 -20.611 -19.921  0.00  0.00    +0.048 C 
ATOM      5  CD1 TRP A   1      36.545 -18.924 -21.129  0.00  0.00    +0.058 C 
ATOM      6  CE3 TRP A   1      33.313 -20.486 -20.436  0.00  0.00    +0.001 C 
ATOM      7  CZ2 TRP A   1      35.473 -21.705 -19.072  0.00  0.00    +0.015 C 
ATOM      8  CZ3 TRP A   1      33.102 -21.580 -19.589  0.00  0.00    +0.000 C 
ATOM      9  CH2 TRP A   1      34.167 -22.178 -18.918  0.00  0.00    +0.001 C 
ATOM     10  HE1 TRP A   1      37.723 -20.164 -19.921  0.00  0.00    +0.152 HD
ENDROOT
BRANCH   2  11
ATOM     11  CB  TRP A   1      34.463 -17.993 -22.247  0.00  0.00    +0.008 C 
BRANCH  11  12
ATOM     12  CA  TRP A   1      35.228 -17.608 -23.541  0.00  0.00    -0.031 C 
BRANCH  12  13
ATOM     13  N   TRP A   1      35.416 -16.152 -23.581  0.00  0.00    +0.384 N 
ATOM     14  H1  TRP A   1      36.174 -15.925 -24.224  0.00  0.00    -0.089 HD
ATOM     15  H2  TRP A   1      35.649 -15.814 -22.648  0.00  0.00    -0.089 HD
ATOM     16  H3  TRP A   1      34.555 -15.707 -23.900  0.00  0.00    -0.089 HD
ENDBRANCH  12  13
BRANCH  12  17
ATOM     17  C   TRP A   1      34.517 -18.044 -24.829  0.00  0.00    +0.116 C 
BRANCH  17  18
ATOM     18  O   TRP A   1      34.648 -17.074 -25.860  0.00  0.00    -0.384 OA
ATOM     19  H   TRP A   1      34.792 -17.521 -26.708  0.00  0.00    +0.210 HD
ENDBRANCH  17  18
ENDBRANCH  12  17
ENDBRANCH  11  12
ENDBRANCH   2  11
TORSDOF 5
ENDMDL
MODEL 2
REMARK VINA RESULT:      -7.4      1.490      1.593
REMARK  Name = 6951149
REMARK  5 active torsions:
REMARK  status: ('A' for Active; 'I' for Inactive)
REMARK    1  A    between atoms: CG_2  and  CB_11
REMARK    2  A    between atoms: CB_11  and  CA_12
REMARK    3  A    between atoms: CA_12  and  N_13
REMARK    4  A    between atoms: CA_12  and  C_17
REMARK    5  A    between atoms: C_17  and  O_18
REMARK                            x       y       z     vdW  Elec       q    Type
REMARK                         _______ _______ _______ _____ _____    ______ ____
ROOT
ATOM      1  NE1 TRP A   1      36.809 -19.826 -20.368  0.00  0.00    -0.312 N 
ATOM      2  CG  TRP A   1      35.014 -18.858 -21.245  0.00  0.00    -0.008 C 
ATOM      3  CD2 TRP A   1      34.588 -19.986 -20.491  0.00  0.00    +0.011 C 
ATOM      4  CE2 TRP A   1      35.733 -20.576 -19.951  0.00  0.00    +0.048 C 
ATOM      5  CD1 TRP A   1      36.385 -18.785 -21.150  0.00  0.00    +0.058 C 
ATOM      6  CE3 TRP A   1      33.332 -20.565 -20.216  0.00  0.00    +0.001 C 
ATOM      7  CZ2 TRP A   1      35.685 -21.720 -19.147  0.00  0.00    +0.015 C 
ATOM      8  CZ3 TRP A   1      33.270 -21.710 -19.412  0.00  0.00    +0.000 C 
ATOM      9  CH2 TRP A   1      34.430 -22.276 -18.886  0.00  0.00    +0.001 C 
ATOM     10  HE1 TRP A   1      37.748 -20.011 -20.136  0.00  0.00    +0.152 HD
ENDROOT
BRANCH   2  11
ATOM     11  CB  TRP A   1      34.151 -17.926 -21.998  0.00  0.00    +0.008 C 
BRANCH  11  12
ATOM     12  CA  TRP A   1      34.336 -16.432 -21.619  0.00  0.00    -0.031 C 
BRANCH  12  13
ATOM     13  N   TRP A   1      33.084 -15.913 -21.056  0.00  0.00    +0.384 N 
ATOM     14  H1  TRP A   1      32.298 -16.235 -21.622  0.00  0.00    -0.089 HD
ATOM     15  H2  TRP A   1      33.107 -14.894 -21.056  0.00  0.00    -0.089 HD
ATOM     16  H3  TRP A   1      32.974 -16.252 -20.100  0.00  0.00    -0.089 HD
ENDBRANCH  12  13
BRANCH  12  17
ATOM     17  C   TRP A   1      34.745 -15.544 -22.802  0.00  0.00    +0.116 C 
BRANCH  17  18
ATOM     18  O   TRP A   1      35.698 -16.185 -23.640  0.00  0.00    -0.384 OA
ATOM     19  H   TRP A   1      35.490 -17.129 -23.701  0.00  0.00    +0.210 HD
ENDBRANCH  17  18
ENDBRANCH  12  17
ENDBRANCH  11  12
ENDBRANCH   2  11
TORSDOF 5
ENDMDL
MODEL 3
REMARK VINA RESULT:      -7.2      2.128      2.764
REMARK  Name = 6951149
REMARK  5 active torsions:
REMARK  status: ('A' for Active; 'I' for Inactive)
REMARK    1  A    between atoms: CG_2  and  CB_11
REMARK    2  A    between atoms: CB_11  and  CA_12
REMARK    3  A    between atoms: CA_12  and  N_13
REMARK    4  A    between atoms: CA_12  and  C_17
REMARK    5  A    between atoms: C_17  and  O_18
REMARK                            x       y       z     vdW  Elec       q    Type
REMARK                         _______ _______ _______ _____ _____    ______ ____
ROOT
ATOM      1  NE1 TRP A   1      32.677 -20.500 -20.569  0.00  0.00    -0.312 N 
ATOM      2  CG  TRP A   1      34.521 -19.458 -21.235  0.00  0.00    -0.008 C 
ATOM      3  CD2 TRP A   1      34.884 -20.419 -20.251  0.00  0.00    +0.011 C 
ATOM      4  CE2 TRP A   1      33.709 -21.059 -19.849  0.00  0.00    +0.048 C 
ATOM      5  CD1 TRP A   1      33.158 -19.532 -21.409  0.00  0.00    +0.058 C 
ATOM      6  CE3 TRP A   1      36.104 -20.808 -19.661  0.00  0.00    +0.001 C 
ATOM      7  CZ2 TRP A   1      33.693 -22.071 -18.883  0.00  0.00    +0.015 C 
ATOM      8  CZ3 TRP A   1      36.103 -21.819 -18.693  0.00  0.00    +0.000 C 
ATOM      9  CH2 TRP A   1      34.914 -22.440 -18.312  0.00  0.00    +0.001 C 
ATOM     10  HE1 TRP A   1      31.730 -20.758 -20.490  0.00  0.00    +0.152 HD
ENDROOT
BRANCH   2  11
ATOM     11  CB  TRP A   1      35.434 -18.542 -21.948  0.00  0.00    +0.008 C 
BRANCH  11  12
ATOM     12  CA  TRP A   1      34.747 -17.279 -22.533  0.00  0.00    -0.031 C 
BRANCH  12  13
ATOM     13  N   TRP A   1      35.560 -16.748 -23.634  0.00  0.00    +0.384 N 
ATOM     14  H1  TRP A   1      35.278 -15.788 -23.832  0.00  0.00    -0.089 HD
ATOM     15  H2  TRP A   1      35.421 -17.321 -24.466  0.00  0.00    -0.089 HD
ATOM     16  H3  TRP A   1      36.545 -16.765 -23.369  0.00  0.00    -0.089 HD
ENDBRANCH  12  13
BRANCH  12  17
ATOM     17  C   TRP A   1      34.532 -16.162 -21.502  0.00  0.00    +0.116 C 
BRANCH  17  18
ATOM     18  O   TRP A   1      35.202 -16.437 -20.278  0.00  0.00    -0.384 OA
ATOM     19  H   TRP A   1      35.758 -17.224 -20.383  0.00  0.00    +0.210 HD
ENDBRANCH  17  18
ENDBRANCH  12  17
ENDBRANCH  11  12
ENDBRANCH   2  11
TORSDOF 5
ENDMDL
MODEL 4
REMARK VINA RESULT:      -7.1      1.860      2.452
REMARK  Name = 6951149
REMARK  5 active torsions:
REMARK  status: ('A' for Active; 'I' for Inactive)
REMARK    1  A    between atoms: CG_2  and  CB_11
REMARK    2  A    between atoms: CB_11  and  CA_12
REMARK    3  A    between atoms: CA_12  and  N_13
REMARK    4  A    between atoms: CA_12  and  C_17
REMARK    5  A    between atoms: C_17  and  O_18
REMARK                            x       y       z     vdW  Elec       q    Type
REMARK                         _______ _______ _______ _____ _____    ______ ____
ROOT
ATOM      1  NE1 TRP A   1      32.701 -20.709 -20.342  0.00  0.00    -0.312 N 
ATOM      2  CG  TRP A   1      34.347 -19.555 -21.285  0.00  0.00    -0.008 C 
ATOM      3  CD2 TRP A   1      34.913 -20.424 -20.311  0.00  0.00    +0.011 C 
ATOM      4  CE2 TRP A   1      33.860 -21.136 -19.733  0.00  0.00    +0.048 C 
ATOM      5  CD1 TRP A   1      32.985 -19.754 -21.281  0.00  0.00    +0.058 C 
ATOM      6  CE3 TRP A   1      36.226 -20.672 -19.862  0.00  0.00    +0.001 C 
ATOM      7  CZ2 TRP A   1      34.054 -22.088 -18.727  0.00  0.00    +0.015 C 
ATOM      8  CZ3 TRP A   1      36.436 -21.622 -18.856  0.00  0.00    +0.000 C 
ATOM      9  CH2 TRP A   1      35.364 -22.318 -18.299  0.00  0.00    +0.001 C 
ATOM     10  HE1 TRP A   1      31.798 -21.042 -20.132  0.00  0.00    +0.152 HD
ENDROOT
BRANCH   2  11
ATOM     11  CB  TRP A   1      35.078 -18.608 -22.150  0.00  0.00    +0.008 C 
BRANCH  11  12
ATOM     12  CA  TRP A   1      34.480 -18.445 -23.573  0.00  0.00    -0.031 C 
BRANCH  12  13
ATOM     13  N   TRP A   1      34.907 -19.571 -24.413  0.00  0.00    +0.384 N 
ATOM     14  H1  TRP A   1      35.800 -19.929 -24.074  0.00  0.00    -0.089 HD
ATOM     15  H2  TRP A   1      35.011 -19.256 -25.377  0.00  0.00    -0.089 HD
ATOM     16  H3  TRP A   1      34.207 -20.312 -24.370  0.00  0.00    -0.089 HD
ENDBRANCH  12  13
BRANCH  12  17
ATOM     17  C   TRP A   1      34.887 -17.138 -24.266  0.00  0.00    +0.116 C 
BRANCH  17  18
ATOM     18  O   TRP A   1      35.733 -16.345 -23.443  0.00  0.00    -0.384 OA
ATOM     19  H   TRP A   1      35.517 -16.501 -22.511  0.00  0.00    +0.210 HD
ENDBRANCH  17  18
ENDBRANCH  12  17
ENDBRANCH  11  12
ENDBRANCH   2  11
TORSDOF 5
ENDMDL
MODEL 5
REMARK VINA RESULT:      -7.1      3.081      5.576
REMARK  Name = 6951149
REMARK  5 active torsions:
REMARK  status: ('A' for Active; 'I' for Inactive)
REMARK    1  A    between atoms: CG_2  and  CB_11
REMARK    2  A    between atoms: CB_11  and  CA_12
REMARK    3  A    between atoms: CA_12  and  N_13
REMARK    4  A    between atoms: CA_12  and  C_17
REMARK    5  A    between atoms: C_17  and  O_18
REMARK                            x       y       z     vdW  Elec       q    Type
REMARK                         _______ _______ _______ _____ _____    ______ ____
ROOT
ATOM      1  NE1 TRP A   1      34.799 -17.818 -24.068  0.00  0.00    -0.312 N 
ATOM      2  CG  TRP A   1      34.932 -18.620 -22.002  0.00  0.00    -0.008 C 
ATOM      3  CD2 TRP A   1      34.754 -17.211 -21.922  0.00  0.00    +0.011 C 
ATOM      4  CE2 TRP A   1      34.674 -16.732 -23.232  0.00  0.00    +0.048 C 
ATOM      5  CD1 TRP A   1      34.955 -18.963 -23.335  0.00  0.00    +0.058 C 
ATOM      6  CE3 TRP A   1      34.655 -16.293 -20.857  0.00  0.00    +0.001 C 
ATOM      7  CZ2 TRP A   1      34.499 -15.376 -23.530  0.00  0.00    +0.015 C 
ATOM      8  CZ3 TRP A   1      34.479 -14.934 -21.141  0.00  0.00    +0.000 C 
ATOM      9  CH2 TRP A   1      34.401 -14.485 -22.458  0.00  0.00    +0.001 C 
ATOM     10  HE1 TRP A   1      34.779 -17.777 -25.052  0.00  0.00    +0.152 HD
ENDROOT
BRANCH   2  11
ATOM     11  CB  TRP A   1      35.067 -19.555 -20.868  0.00  0.00    +0.008 C 
BRANCH  11  12
ATOM     12  CA  TRP A   1      33.852 -20.499 -20.665  0.00  0.00    -0.031 C 
BRANCH  12  13
ATOM     13  N   TRP A   1      32.641 -19.696 -20.454  0.00  0.00    +0.384 N 
ATOM     14  H1  TRP A   1      32.883 -18.705 -20.470  0.00  0.00    -0.089 HD
ATOM     15  H2  TRP A   1      32.230 -19.930 -19.551  0.00  0.00    -0.089 HD
ATOM     16  H3  TRP A   1      31.969 -19.892 -21.196  0.00  0.00    -0.089 HD
ENDBRANCH  12  13
BRANCH  12  17
ATOM     17  C   TRP A   1      34.011 -21.462 -19.481  0.00  0.00    +0.116 C 
BRANCH  17  18
ATOM     18  O   TRP A   1      32.873 -22.299 -19.323  0.00  0.00    -0.384 OA
ATOM     19  H   TRP A   1      32.132 -21.937 -19.833  0.00  0.00    +0.210 HD
ENDBRANCH  17  18
ENDBRANCH  12  17
ENDBRANCH  11  12
ENDBRANCH   2  11
TORSDOF 5
ENDMDL
MODEL 6
REMARK VINA RESULT:      -6.9      5.229      7.980
REMARK  Name = 6951149
REMARK  5 active torsions:
REMARK  status: ('A' for Active; 'I' for Inactive)
REMARK    1  A    between atoms: CG_2  and  CB_11
REMARK    2  A    between atoms: CB_11  and  CA_12
REMARK    3  A    between atoms: CA_12  and  N_13
REMARK    4  A    between atoms: CA_12  and  C_17
REMARK    5  A    between atoms: C_17  and  O_18
REMARK                            x       y       z     vdW  Elec       q    Type
REMARK                         _______ _______ _______ _____ _____    ______ ____
ROOT
ATOM      1  NE1 TRP A   1      32.777 -22.725 -18.093  0.00  0.00    -0.312 N 
ATOM      2  CG  TRP A   1      34.557 -23.046 -16.805  0.00  0.00    -0.008 C 
ATOM      3  CD2 TRP A   1      34.957 -22.280 -17.936  0.00  0.00    +0.011 C 
ATOM      4  CE2 TRP A   1      33.822 -22.093 -18.728  0.00  0.00    +0.048 C 
ATOM      5  CD1 TRP A   1      33.211 -23.303 -16.931  0.00  0.00    +0.058 C 
ATOM      6  CE3 TRP A   1      36.181 -21.726 -18.363  0.00  0.00    +0.001 C 
ATOM      7  CZ2 TRP A   1      33.850 -21.377 -19.930  0.00  0.00    +0.015 C 
ATOM      8  CZ3 TRP A   1      36.224 -21.008 -19.564  0.00  0.00    +0.000 C 
ATOM      9  CH2 TRP A   1      35.074 -20.837 -20.333  0.00  0.00    +0.001 C 
ATOM     10  HE1 TRP A   1      31.851 -22.756 -18.427  0.00  0.00    +0.152 HD
ENDROOT
BRANCH   2  11
ATOM     11  CB  TRP A   1      35.421 -23.489 -15.693  0.00  0.00    +0.008 C 
BRANCH  11  12
ATOM     12  CA  TRP A   1      35.083 -24.900 -15.142  0.00  0.00    -0.031 C 
BRANCH  12  13
ATOM     13  N   TRP A   1      34.446 -24.769 -13.826  0.00  0.00    +0.384 N 
ATOM     14  H1  TRP A   1      34.949 -24.075 -13.272  0.00  0.00    -0.089 HD
ATOM     15  H2  TRP A   1      34.469 -25.668 -13.346  0.00  0.00    -0.089 HD
ATOM     16  H3  TRP A   1      33.478 -24.470 -13.944  0.00  0.00    -0.089 HD
ENDBRANCH  12  13
BRANCH  12  17
ATOM     17  C   TRP A   1      36.307 -25.816 -15.003  0.00  0.00    +0.116 C 
BRANCH  17  18
ATOM     18  O   TRP A   1      36.291 -26.867 -15.961  0.00  0.00    -0.384 OA
ATOM     19  H   TRP A   1      37.199 -27.151 -16.143  0.00  0.00    +0.210 HD
ENDBRANCH  17  18
ENDBRANCH  12  17
ENDBRANCH  11  12
ENDBRANCH   2  11
TORSDOF 5
ENDMDL
MODEL 7
REMARK VINA RESULT:      -6.9      2.534      5.528
REMARK  Name = 6951149
REMARK  5 active torsions:
REMARK  status: ('A' for Active; 'I' for Inactive)
REMARK    1  A    between atoms: CG_2  and  CB_11
REMARK    2  A    between atoms: CB_11  and  CA_12
REMARK    3  A    between atoms: CA_12  and  N_13
REMARK    4  A    between atoms: CA_12  and  C_17
REMARK    5  A    between atoms: C_17  and  O_18
REMARK                            x       y       z     vdW  Elec       q    Type
REMARK                         _______ _______ _______ _____ _____    ______ ____
ROOT
ATOM      1  NE1 TRP A   1      34.942 -16.368 -21.558  0.00  0.00    -0.312 N 
ATOM      2  CG  TRP A   1      35.143 -18.573 -21.735  0.00  0.00    -0.008 C 
ATOM      3  CD2 TRP A   1      34.853 -18.047 -23.025  0.00  0.00    +0.011 C 
ATOM      4  CE2 TRP A   1      34.731 -16.662 -22.887  0.00  0.00    +0.048 C 
ATOM      5  CD1 TRP A   1      35.191 -17.515 -20.854  0.00  0.00    +0.058 C 
ATOM      6  CE3 TRP A   1      34.682 -18.619 -24.302  0.00  0.00    +0.001 C 
ATOM      7  CZ2 TRP A   1      34.445 -15.818 -23.965  0.00  0.00    +0.015 C 
ATOM      8  CZ3 TRP A   1      34.396 -17.786 -25.390  0.00  0.00    +0.000 C 
ATOM      9  CH2 TRP A   1      34.280 -16.407 -25.222  0.00  0.00    +0.001 C 
ATOM     10  HE1 TRP A   1      34.916 -15.464 -21.170  0.00  0.00    +0.152 HD
ENDROOT
BRANCH   2  11
ATOM     11  CB  TRP A   1      35.356 -19.992 -21.391  0.00  0.00    +0.008 C 
BRANCH  11  12
ATOM     12  CA  TRP A   1      34.700 -20.435 -20.056  0.00  0.00    -0.031 C 
BRANCH  12  13
ATOM     13  N   TRP A   1      35.375 -21.639 -19.557  0.00  0.00    +0.384 N 
ATOM     14  H1  TRP A   1      34.677 -22.311 -19.235  0.00  0.00    -0.089 HD
ATOM     15  H2  TRP A   1      35.989 -21.390 -18.783  0.00  0.00    -0.089 HD
ATOM     16  H3  TRP A   1      35.925 -22.057 -20.308  0.00  0.00    -0.089 HD
ENDBRANCH  12  13
BRANCH  12  17
ATOM     17  C   TRP A   1      33.199 -20.729 -20.175  0.00  0.00    +0.116 C 
BRANCH  17  18
ATOM     18  O   TRP A   1      32.885 -22.052 -19.760  0.00  0.00    -0.384 OA
ATOM     19  H   TRP A   1      33.693 -22.500 -19.468  0.00  0.00    +0.210 HD
ENDBRANCH  17  18
ENDBRANCH  12  17
ENDBRANCH  11  12
ENDBRANCH   2  11
TORSDOF 5
ENDMDL
MODEL 8
REMARK VINA RESULT:      -6.8      3.585      5.283
REMARK  Name = 6951149
REMARK  5 active torsions:
REMARK  status: ('A' for Active; 'I' for Inactive)
REMARK    1  A    between atoms: CG_2  and  CB_11
REMARK    2  A    between atoms: CB_11  and  CA_12
REMARK    3  A    between atoms: CA_12  and  N_13
REMARK    4  A    between atoms: CA_12  and  C_17
REMARK    5  A    between atoms: C_17  and  O_18
REMARK                            x       y       z     vdW  Elec       q    Type
REMARK                         _______ _______ _______ _____ _____    ______ ____
ROOT
ATOM      1  NE1 TRP A   1      34.902 -16.277 -21.463  0.00  0.00    -0.312 N 
ATOM      2  CG  TRP A   1      34.233 -15.042 -23.182  0.00  0.00    -0.008 C 
ATOM      3  CD2 TRP A   1      34.415 -16.378 -23.637  0.00  0.00    +0.011 C 
ATOM      4  CE2 TRP A   1      34.835 -17.132 -22.540  0.00  0.00    +0.048 C 
ATOM      5  CD1 TRP A   1      34.540 -15.013 -21.841  0.00  0.00    +0.058 C 
ATOM      6  CE3 TRP A   1      34.263 -17.020 -24.883  0.00  0.00    +0.001 C 
ATOM      7  CZ2 TRP A   1      35.112 -18.501 -22.626  0.00  0.00    +0.015 C 
ATOM      8  CZ3 TRP A   1      34.535 -18.389 -24.984  0.00  0.00    +0.000 C 
ATOM      9  CH2 TRP A   1      34.953 -19.116 -23.871  0.00  0.00    +0.001 C 
ATOM     10  HE1 TRP A   1      35.172 -16.538 -20.552  0.00  0.00    +0.152 HD
ENDROOT
BRANCH   2  11
ATOM     11  CB  TRP A   1      33.794 -13.889 -23.993  0.00  0.00    +0.008 C 
BRANCH  11  12
ATOM     12  CA  TRP A   1      33.312 -12.668 -23.164  0.00  0.00    -0.031 C 
BRANCH  12  13
ATOM     13  N   TRP A   1      31.911 -12.867 -22.774  0.00  0.00    +0.384 N 
ATOM     14  H1  TRP A   1      31.871 -13.451 -21.938  0.00  0.00    -0.089 HD
ATOM     15  H2  TRP A   1      31.408 -13.325 -23.533  0.00  0.00    -0.089 HD
ATOM     16  H3  TRP A   1      31.481 -11.963 -22.577  0.00  0.00    -0.089 HD
ENDBRANCH  12  13
BRANCH  12  17
ATOM     17  C   TRP A   1      33.427 -11.333 -23.912  0.00  0.00    +0.116 C 
BRANCH  17  18
ATOM     18  O   TRP A   1      34.782 -10.974 -24.148  0.00  0.00    -0.384 OA
ATOM     19  H   TRP A   1      35.055 -10.303 -23.505  0.00  0.00    +0.210 HD
ENDBRANCH  17  18
ENDBRANCH  12  17
ENDBRANCH  11  12
ENDBRANCH   2  11
TORSDOF 5
ENDMDL
MODEL 9
REMARK VINA RESULT:      -6.8      7.712      9.153
REMARK  Name = 6951149
REMARK  5 active torsions:
REMARK  status: ('A' for Active; 'I' for Inactive)
REMARK    1  A    between atoms: CG_2  and  CB_11
REMARK    2  A    between atoms: CB_11  and  CA_12
REMARK    3  A    between atoms: CA_12  and  N_13
REMARK    4  A    between atoms: CA_12  and  C_17
REMARK    5  A    between atoms: C_17  and  O_18
REMARK                            x       y       z     vdW  Elec       q    Type
REMARK                         _______ _______ _______ _____ _____    ______ ____
ROOT
ATOM      1  NE1 TRP A   1      33.731 -23.704 -13.231  0.00  0.00    -0.312 N 
ATOM      2  CG  TRP A   1      35.335 -23.958 -14.745  0.00  0.00    -0.008 C 
ATOM      3  CD2 TRP A   1      34.127 -23.638 -15.425  0.00  0.00    +0.011 C 
ATOM      4  CE2 TRP A   1      33.136 -23.485 -14.453  0.00  0.00    +0.048 C 
ATOM      5  CD1 TRP A   1      35.059 -23.991 -13.397  0.00  0.00    +0.058 C 
ATOM      6  CE3 TRP A   1      33.780 -23.465 -16.781  0.00  0.00    +0.001 C 
ATOM      7  CZ2 TRP A   1      31.811 -23.165 -14.769  0.00  0.00    +0.015 C 
ATOM      8  CZ3 TRP A   1      32.458 -23.145 -17.111  0.00  0.00    +0.000 C 
ATOM      9  CH2 TRP A   1      31.490 -22.997 -16.119  0.00  0.00    +0.001 C 
ATOM     10  HE1 TRP A   1      33.268 -23.661 -12.363  0.00  0.00    +0.152 HD
ENDROOT
BRANCH   2  11
ATOM     11  CB  TRP A   1      36.651 -24.211 -15.363  0.00  0.00    +0.008 C 
BRANCH  11  12
ATOM     12  CA  TRP A   1      37.458 -25.363 -14.707  0.00  0.00    -0.031 C 
BRANCH  12  13
ATOM     13  N   TRP A   1      38.819 -25.380 -15.257  0.00  0.00    +0.384 N 
ATOM     14  H1  TRP A   1      39.186 -26.332 -15.224  0.00  0.00    -0.089 HD
ATOM     15  H2  TRP A   1      39.417 -24.766 -14.705  0.00  0.00    -0.089 HD
ATOM     16  H3  TRP A   1      38.799 -25.057 -16.224  0.00  0.00    -0.089 HD
ENDBRANCH  12  13
BRANCH  12  17
ATOM     17  C   TRP A   1      36.830 -26.748 -14.912  0.00  0.00    +0.116 C 
BRANCH  17  18
ATOM     18  O   TRP A   1      36.805 -27.119 -16.285  0.00  0.00    -0.384 OA
ATOM     19  H   TRP A   1      37.620 -27.593 -16.507  0.00  0.00    +0.210 HD
ENDBRANCH  17  18
ENDBRANCH  12  17
ENDBRANCH  11  12
ENDBRANCH   2  11
TORSDOF 5
ENDMDL
