MODEL 1
REMARK VINA RESULT:      -9.1      0.000      0.000
REMARK  Name = 449157
REMARK  1 active torsions:
REMARK  status: ('A' for Active; 'I' for Inactive)
REMARK    1  A    between atoms: C_10  and  C_22
REMARK                            x       y       z     vdW  Elec       q    Type
REMARK                         _______ _______ _______ _____ _____    ______ ____
ROOT
ATOM      1  F   UNL     1      31.400 -25.370 -13.089  0.00  0.00    -0.204 F 
ATOM      2  O   UNL     1      34.735 -22.601 -16.472  0.00  0.00    -0.470 OA
ATOM      3  O   UNL     1      36.570 -26.221 -14.287  0.00  0.00    -0.273 OA
ATOM      4  O   UNL     1      37.231 -23.257 -10.853  0.00  0.00    -0.252 OA
ATOM      5  N   UNL     1      36.204 -23.036 -12.942  0.00  0.00    -0.281 N 
ATOM      6  N   UNL     1      37.093 -24.999 -12.387  0.00  0.00    -0.238 N 
ATOM      7  C   UNL     1      35.958 -23.856 -14.115  0.00  0.00    +0.153 C 
ATOM      8  C   UNL     1      36.755 -23.346 -15.320  0.00  0.00    +0.084 C 
ATOM      9  C   UNL     1      34.483 -23.940 -14.435  0.00  0.00    +0.038 C 
ATOM     10  C   UNL     1      36.003 -22.191 -15.962  0.00  0.00    +0.243 C 
ATOM     11  C   UNL     1      36.563 -25.181 -13.642  0.00  0.00    +0.249 C 
ATOM     12  C   UNL     1      33.968 -23.312 -15.582  0.00  0.00    +0.137 C 
ATOM     13  C   UNL     1      36.888 -23.715 -11.934  0.00  0.00    +0.307 C 
ATOM     14  C   UNL     1      33.591 -24.625 -13.593  0.00  0.00    +0.030 C 
ATOM     15  C   UNL     1      32.609 -23.409 -15.898  0.00  0.00    +0.039 C 
ATOM     16  C   UNL     1      32.232 -24.707 -13.903  0.00  0.00    +0.140 C 
ATOM     17  C   UNL     1      31.743 -24.104 -15.058  0.00  0.00    +0.033 C 
ATOM     18  H   UNL     1      35.917 -22.096 -12.866  0.00  0.00    +0.152 HD
ATOM     19  H   UNL     1      37.560 -25.699 -11.876  0.00  0.00    +0.159 HD
ENDROOT
BRANCH  10  22
ATOM     20  O   UNL     1      36.607 -22.228 -18.271  0.00  0.00    -0.271 OA
ATOM     21  N   UNL     1      37.553 -20.623 -16.920  0.00  0.00    -0.326 N 
ATOM     22  C   UNL     1      36.732 -21.697 -17.169  0.00  0.00    +0.260 C 
ATOM     23  H   UNL     1      38.078 -20.224 -17.652  0.00  0.00    +0.145 HD
ATOM     24  H   UNL     1      37.618 -20.253 -16.010  0.00  0.00    +0.145 HD
ENDBRANCH  10  22
TORSDOF 1
ENDMDL
MODEL 2
REMARK VINA RESULT:      -8.8      2.557      4.442
REMARK  Name = 449157
REMARK  1 active torsions:
REMARK  status: ('A' for Active; 'I' for Inactive)
REMARK    1  A    between atoms: C_10  and  C_22
REMARK                            x       y       z     vdW  Elec       q    Type
REMARK                         _______ _______ _______ _____ _____    ______ ____
ROOT
ATOM      1  F   UNL     1      33.207 -23.740 -17.526  0.00  0.00    -0.204 F 
ATOM      2  O   UNL     1      34.424 -23.745 -12.163  0.00  0.00    -0.470 OA
ATOM      3  O   UNL     1      37.936 -23.053 -15.067  0.00  0.00    -0.273 OA
ATOM      4  O   UNL     1      38.053 -27.629 -15.322  0.00  0.00    -0.252 OA
ATOM      5  N   UNL     1      36.624 -26.155 -14.203  0.00  0.00    -0.281 N 
ATOM      6  N   UNL     1      38.307 -25.319 -15.395  0.00  0.00    -0.238 N 
ATOM      7  C   UNL     1      36.490 -24.722 -14.008  0.00  0.00    +0.153 C 
ATOM      8  C   UNL     1      36.760 -24.338 -12.549  0.00  0.00    +0.084 C 
ATOM      9  C   UNL     1      35.136 -24.224 -14.459  0.00  0.00    +0.038 C 
ATOM     10  C   UNL     1      35.501 -24.573 -11.730  0.00  0.00    +0.243 C 
ATOM     11  C   UNL     1      37.650 -24.228 -14.877  0.00  0.00    +0.249 C 
ATOM     12  C   UNL     1      34.195 -23.772 -13.517  0.00  0.00    +0.137 C 
ATOM     13  C   UNL     1      37.708 -26.497 -15.011  0.00  0.00    +0.307 C 
ATOM     14  C   UNL     1      34.776 -24.217 -15.817  0.00  0.00    +0.030 C 
ATOM     15  C   UNL     1      32.951 -23.285 -13.930  0.00  0.00    +0.039 C 
ATOM     16  C   UNL     1      33.527 -23.744 -16.225  0.00  0.00    +0.140 C 
ATOM     17  C   UNL     1      32.618 -23.273 -15.282  0.00  0.00    +0.033 C 
ATOM     18  H   UNL     1      36.012 -26.817 -13.805  0.00  0.00    +0.152 HD
ATOM     19  H   UNL     1      39.104 -25.264 -15.969  0.00  0.00    +0.159 HD
ENDROOT
BRANCH  10  22
ATOM     20  O   UNL     1      35.132 -24.714  -9.376  0.00  0.00    -0.271 OA
ATOM     21  N   UNL     1      36.603 -23.127 -10.157  0.00  0.00    -0.326 N 
ATOM     22  C   UNL     1      35.717 -24.167 -10.309  0.00  0.00    +0.260 C 
ATOM     23  H   UNL     1      36.813 -22.784  -9.258  0.00  0.00    +0.145 HD
ATOM     24  H   UNL     1      37.028 -22.723 -10.948  0.00  0.00    +0.145 HD
ENDBRANCH  10  22
TORSDOF 1
ENDMDL
MODEL 3
REMARK VINA RESULT:      -8.8      7.493     10.018
REMARK  Name = 449157
REMARK  1 active torsions:
REMARK  status: ('A' for Active; 'I' for Inactive)
REMARK    1  A    between atoms: C_10  and  C_22
REMARK                            x       y       z     vdW  Elec       q    Type
REMARK                         _______ _______ _______ _____ _____    ______ ____
ROOT
ATOM      1  F   UNL     1      34.931 -20.518 -25.755  0.00  0.00    -0.204 F 
ATOM      2  O   UNL     1      34.296 -15.982 -22.711  0.00  0.00    -0.470 OA
ATOM      3  O   UNL     1      36.893 -19.328 -20.895  0.00  0.00    -0.273 OA
ATOM      4  O   UNL     1      32.890 -21.082 -19.511  0.00  0.00    -0.252 OA
ATOM      5  N   UNL     1      33.420 -19.205 -20.801  0.00  0.00    -0.281 N 
ATOM      6  N   UNL     1      35.076 -20.464 -20.009  0.00  0.00    -0.238 N 
ATOM      7  C   UNL     1      34.611 -18.526 -21.277  0.00  0.00    +0.153 C 
ATOM      8  C   UNL     1      34.761 -17.150 -20.619  0.00  0.00    +0.084 C 
ATOM      9  C   UNL     1      34.620 -18.410 -22.785  0.00  0.00    +0.038 C 
ATOM     10  C   UNL     1      33.887 -16.147 -21.355  0.00  0.00    +0.243 C 
ATOM     11  C   UNL     1      35.689 -19.462 -20.724  0.00  0.00    +0.249 C 
ATOM     12  C   UNL     1      34.462 -17.157 -23.402  0.00  0.00    +0.137 C 
ATOM     13  C   UNL     1      33.705 -20.339 -20.040  0.00  0.00    +0.307 C 
ATOM     14  C   UNL     1      34.766 -19.543 -23.602  0.00  0.00    +0.030 C 
ATOM     15  C   UNL     1      34.496 -17.040 -24.795  0.00  0.00    +0.039 C 
ATOM     16  C   UNL     1      34.785 -19.425 -24.994  0.00  0.00    +0.140 C 
ATOM     17  C   UNL     1      34.656 -18.174 -25.589  0.00  0.00    +0.033 C 
ATOM     18  H   UNL     1      32.504 -18.897 -20.994  0.00  0.00    +0.152 HD
ATOM     19  H   UNL     1      35.556 -21.179 -19.534  0.00  0.00    +0.159 HD
ENDROOT
BRANCH  10  22
ATOM     20  O   UNL     1      35.103 -14.401 -20.274  0.00  0.00    -0.271 OA
ATOM     21  N   UNL     1      32.896 -14.026 -20.809  0.00  0.00    -0.326 N 
ATOM     22  C   UNL     1      34.042 -14.783 -20.765  0.00  0.00    +0.260 C 
ATOM     23  H   UNL     1      32.896 -13.111 -20.444  0.00  0.00    +0.145 HD
ATOM     24  H   UNL     1      32.075 -14.398 -21.204  0.00  0.00    +0.145 HD
ENDBRANCH  10  22
TORSDOF 1
ENDMDL
MODEL 4
REMARK VINA RESULT:      -8.4      3.059      4.613
REMARK  Name = 449157
REMARK  1 active torsions:
REMARK  status: ('A' for Active; 'I' for Inactive)
REMARK    1  A    between atoms: C_10  and  C_22
REMARK                            x       y       z     vdW  Elec       q    Type
REMARK                         _______ _______ _______ _____ _____    ______ ____
ROOT
ATOM      1  F   UNL     1      40.852 -26.365 -13.012  0.00  0.00    -0.204 F 
ATOM      2  O   UNL     1      36.499 -24.389 -15.729  0.00  0.00    -0.470 OA
ATOM      3  O   UNL     1      37.860 -22.012 -12.022  0.00  0.00    -0.273 OA
ATOM      4  O   UNL     1      35.313 -25.031  -9.695  0.00  0.00    -0.252 OA
ATOM      5  N   UNL     1      35.839 -24.841 -11.965  0.00  0.00    -0.281 N 
ATOM      6  N   UNL     1      36.642 -23.325 -10.548  0.00  0.00    -0.238 N 
ATOM      7  C   UNL     1      36.585 -23.942 -12.828  0.00  0.00    +0.153 C 
ATOM      8  C   UNL     1      35.648 -23.190 -13.780  0.00  0.00    +0.084 C 
ATOM      9  C   UNL     1      37.665 -24.673 -13.592  0.00  0.00    +0.038 C 
ATOM     10  C   UNL     1      35.330 -24.080 -14.972  0.00  0.00    +0.243 C 
ATOM     11  C   UNL     1      37.124 -22.961 -11.783  0.00  0.00    +0.249 C 
ATOM     12  C   UNL     1      37.555 -24.850 -14.982  0.00  0.00    +0.137 C 
ATOM     13  C   UNL     1      35.867 -24.459 -10.624  0.00  0.00    +0.307 C 
ATOM     14  C   UNL     1      38.788 -25.206 -12.938  0.00  0.00    +0.030 C 
ATOM     15  C   UNL     1      38.564 -25.502 -15.699  0.00  0.00    +0.039 C 
ATOM     16  C   UNL     1      39.786 -25.870 -13.655  0.00  0.00    +0.140 C 
ATOM     17  C   UNL     1      39.676 -26.012 -15.035  0.00  0.00    +0.033 C 
ATOM     18  H   UNL     1      35.363 -25.639 -12.293  0.00  0.00    +0.152 HD
ATOM     19  H   UNL     1      36.828 -22.835  -9.715  0.00  0.00    +0.159 HD
ENDROOT
BRANCH  10  22
ATOM     20  O   UNL     1      34.882 -22.917 -17.007  0.00  0.00    -0.271 OA
ATOM     21  N   UNL     1      33.150 -23.232 -15.525  0.00  0.00    -0.326 N 
ATOM     22  C   UNL     1      34.453 -23.361 -15.943  0.00  0.00    +0.260 C 
ATOM     23  H   UNL     1      32.492 -22.772 -16.095  0.00  0.00    +0.145 HD
ATOM     24  H   UNL     1      32.874 -23.598 -14.653  0.00  0.00    +0.145 HD
ENDBRANCH  10  22
TORSDOF 1
ENDMDL
MODEL 5
REMARK VINA RESULT:      -8.1      3.211      4.746
REMARK  Name = 449157
REMARK  1 active torsions:
REMARK  status: ('A' for Active; 'I' for Inactive)
REMARK    1  A    between atoms: C_10  and  C_22
REMARK                            x       y       z     vdW  Elec       q    Type
REMARK                         _______ _______ _______ _____ _____    ______ ____
ROOT
ATOM      1  F   UNL     1      35.231 -24.715 -11.501  0.00  0.00    -0.204 F 
ATOM      2  O   UNL     1      34.853 -23.213 -16.777  0.00  0.00    -0.470 OA
ATOM      3  O   UNL     1      31.473 -21.786 -13.988  0.00  0.00    -0.273 OA
ATOM      4  O   UNL     1      29.652 -25.914 -14.804  0.00  0.00    -0.252 OA
ATOM      5  N   UNL     1      31.663 -24.924 -15.472  0.00  0.00    -0.281 N 
ATOM      6  N   UNL     1      30.256 -23.747 -14.212  0.00  0.00    -0.238 N 
ATOM      7  C   UNL     1      32.338 -23.648 -15.323  0.00  0.00    +0.153 C 
ATOM      8  C   UNL     1      32.433 -22.915 -16.666  0.00  0.00    +0.084 C 
ATOM      9  C   UNL     1      33.704 -23.811 -14.697  0.00  0.00    +0.038 C 
ATOM     10  C   UNL     1      33.618 -23.458 -17.449  0.00  0.00    +0.243 C 
ATOM     11  C   UNL     1      31.332 -22.920 -14.428  0.00  0.00    +0.249 C 
ATOM     12  C   UNL     1      34.865 -23.588 -15.456  0.00  0.00    +0.137 C 
ATOM     13  C   UNL     1      30.427 -24.968 -14.826  0.00  0.00    +0.307 C 
ATOM     14  C   UNL     1      33.849 -24.206 -13.356  0.00  0.00    +0.030 C 
ATOM     15  C   UNL     1      36.132 -23.711 -14.875  0.00  0.00    +0.039 C 
ATOM     16  C   UNL     1      35.115 -24.343 -12.783  0.00  0.00    +0.140 C 
ATOM     17  C   UNL     1      36.255 -24.090 -13.540  0.00  0.00    +0.033 C 
ATOM     18  H   UNL     1      32.038 -25.682 -15.978  0.00  0.00    +0.152 HD
ATOM     19  H   UNL     1      29.462 -23.499 -13.686  0.00  0.00    +0.159 HD
ENDROOT
BRANCH  10  22
ATOM     20  O   UNL     1      34.740 -22.896 -19.478  0.00  0.00    -0.271 OA
ATOM     21  N   UNL     1      32.730 -21.872 -19.023  0.00  0.00    -0.326 N 
ATOM     22  C   UNL     1      33.765 -22.734 -18.747  0.00  0.00    +0.260 C 
ATOM     23  H   UNL     1      32.735 -21.347 -19.856  0.00  0.00    +0.145 HD
ATOM     24  H   UNL     1      31.985 -21.779 -18.386  0.00  0.00    +0.145 HD
ENDBRANCH  10  22
TORSDOF 1
ENDMDL
MODEL 6
REMARK VINA RESULT:      -8.1      3.184      4.858
REMARK  Name = 449157
REMARK  1 active torsions:
REMARK  status: ('A' for Active; 'I' for Inactive)
REMARK    1  A    between atoms: C_10  and  C_22
REMARK                            x       y       z     vdW  Elec       q    Type
REMARK                         _______ _______ _______ _____ _____    ______ ____
ROOT
ATOM      1  F   UNL     1      35.647 -22.152 -19.251  0.00  0.00    -0.204 F 
ATOM      2  O   UNL     1      31.826 -23.577 -15.563  0.00  0.00    -0.470 OA
ATOM      3  O   UNL     1      35.971 -22.450 -13.895  0.00  0.00    -0.273 OA
ATOM      4  O   UNL     1      37.038 -26.815 -14.803  0.00  0.00    -0.252 OA
ATOM      5  N   UNL     1      35.099 -25.563 -15.175  0.00  0.00    -0.281 N 
ATOM      6  N   UNL     1      36.833 -24.584 -14.180  0.00  0.00    -0.238 N 
ATOM      7  C   UNL     1      34.618 -24.217 -14.916  0.00  0.00    +0.153 C 
ATOM      8  C   UNL     1      33.480 -24.228 -13.890  0.00  0.00    +0.084 C 
ATOM      9  C   UNL     1      34.194 -23.524 -16.190  0.00  0.00    +0.038 C 
ATOM     10  C   UNL     1      32.176 -24.565 -14.595  0.00  0.00    +0.243 C 
ATOM     11  C   UNL     1      35.866 -23.611 -14.269  0.00  0.00    +0.249 C 
ATOM     12  C   UNL     1      32.837 -23.251 -16.433  0.00  0.00    +0.137 C 
ATOM     13  C   UNL     1      36.402 -25.774 -14.723  0.00  0.00    +0.307 C 
ATOM     14  C   UNL     1      35.134 -23.153 -17.167  0.00  0.00    +0.030 C 
ATOM     15  C   UNL     1      32.441 -22.585 -17.597  0.00  0.00    +0.039 C 
ATOM     16  C   UNL     1      34.734 -22.502 -18.336  0.00  0.00    +0.140 C 
ATOM     17  C   UNL     1      33.389 -22.213 -18.547  0.00  0.00    +0.033 C 
ATOM     18  H   UNL     1      34.561 -26.255 -15.623  0.00  0.00    +0.152 HD
ATOM     19  H   UNL     1      37.720 -24.449 -13.778  0.00  0.00    +0.159 HD
ENDROOT
BRANCH  10  22
ATOM     20  O   UNL     1      31.032 -23.809 -12.641  0.00  0.00    -0.271 OA
ATOM     21  N   UNL     1      30.024 -25.416 -13.943  0.00  0.00    -0.326 N 
ATOM     22  C   UNL     1      31.036 -24.541 -13.629  0.00  0.00    +0.260 C 
ATOM     23  H   UNL     1      29.227 -25.476 -13.367  0.00  0.00    +0.145 HD
ATOM     24  H   UNL     1      30.096 -25.985 -14.744  0.00  0.00    +0.145 HD
ENDBRANCH  10  22
TORSDOF 1
ENDMDL
MODEL 7
REMARK VINA RESULT:      -8.0      2.744      4.619
REMARK  Name = 449157
REMARK  1 active torsions:
REMARK  status: ('A' for Active; 'I' for Inactive)
REMARK    1  A    between atoms: C_10  and  C_22
REMARK                            x       y       z     vdW  Elec       q    Type
REMARK                         _______ _______ _______ _____ _____    ______ ____
ROOT
ATOM      1  F   UNL     1      34.797 -21.879 -18.764  0.00  0.00    -0.204 F 
ATOM      2  O   UNL     1      37.813 -22.806 -14.260  0.00  0.00    -0.470 OA
ATOM      3  O   UNL     1      34.876 -26.139 -15.488  0.00  0.00    -0.273 OA
ATOM      4  O   UNL     1      31.786 -23.663 -13.177  0.00  0.00    -0.252 OA
ATOM      5  N   UNL     1      34.042 -23.296 -13.668  0.00  0.00    -0.281 N 
ATOM      6  N   UNL     1      33.082 -25.175 -14.377  0.00  0.00    -0.238 N 
ATOM      7  C   UNL     1      35.126 -23.989 -14.341  0.00  0.00    +0.153 C 
ATOM      8  C   UNL     1      36.214 -24.409 -13.347  0.00  0.00    +0.084 C 
ATOM      9  C   UNL     1      35.706 -23.157 -15.462  0.00  0.00    +0.038 C 
ATOM     10  C   UNL     1      37.129 -23.224 -13.080  0.00  0.00    +0.243 C 
ATOM     11  C   UNL     1      34.382 -25.238 -14.822  0.00  0.00    +0.249 C 
ATOM     12  C   UNL     1      37.001 -22.621 -15.352  0.00  0.00    +0.137 C 
ATOM     13  C   UNL     1      32.844 -24.011 -13.681  0.00  0.00    +0.307 C 
ATOM     14  C   UNL     1      34.968 -22.883 -16.626  0.00  0.00    +0.030 C 
ATOM     15  C   UNL     1      37.554 -21.874 -16.397  0.00  0.00    +0.039 C 
ATOM     16  C   UNL     1      35.517 -22.123 -17.660  0.00  0.00    +0.140 C 
ATOM     17  C   UNL     1      36.811 -21.624 -17.548  0.00  0.00    +0.033 C 
ATOM     18  H   UNL     1      34.143 -22.412 -13.244  0.00  0.00    +0.152 HD
ATOM     19  H   UNL     1      32.408 -25.873 -14.536  0.00  0.00    +0.159 HD
ENDROOT
BRANCH  10  22
ATOM     20  O   UNL     1      38.938 -22.775 -11.589  0.00  0.00    -0.271 OA
ATOM     21  N   UNL     1      38.374 -24.970 -11.992  0.00  0.00    -0.326 N 
ATOM     22  C   UNL     1      38.228 -23.611 -12.146  0.00  0.00    +0.260 C 
ATOM     23  H   UNL     1      39.073 -25.327 -11.397  0.00  0.00    +0.145 HD
ATOM     24  H   UNL     1      37.780 -25.586 -12.478  0.00  0.00    +0.145 HD
ENDBRANCH  10  22
TORSDOF 1
ENDMDL
MODEL 8
REMARK VINA RESULT:      -8.0      2.931      4.539
REMARK  Name = 449157
REMARK  1 active torsions:
REMARK  status: ('A' for Active; 'I' for Inactive)
REMARK    1  A    between atoms: C_10  and  C_22
REMARK                            x       y       z     vdW  Elec       q    Type
REMARK                         _______ _______ _______ _____ _____    ______ ____
ROOT
ATOM      1  F   UNL     1      38.872 -22.503 -16.652  0.00  0.00    -0.204 F 
ATOM      2  O   UNL     1      33.685 -23.269 -14.997  0.00  0.00    -0.470 OA
ATOM      3  O   UNL     1      36.790 -22.429 -11.697  0.00  0.00    -0.273 OA
ATOM      4  O   UNL     1      37.612 -26.934 -11.935  0.00  0.00    -0.252 OA
ATOM      5  N   UNL     1      36.196 -25.529 -13.156  0.00  0.00    -0.281 N 
ATOM      6  N   UNL     1      37.426 -24.653 -11.521  0.00  0.00    -0.238 N 
ATOM      7  C   UNL     1      35.816 -24.128 -13.168  0.00  0.00    +0.153 C 
ATOM      8  C   UNL     1      34.352 -23.951 -12.751  0.00  0.00    +0.084 C 
ATOM      9  C   UNL     1      36.077 -23.493 -14.515  0.00  0.00    +0.038 C 
ATOM     10  C   UNL     1      33.456 -24.211 -13.951  0.00  0.00    +0.243 C 
ATOM     11  C   UNL     1      36.720 -23.599 -12.052  0.00  0.00    +0.249 C 
ATOM     12  C   UNL     1      35.005 -23.109 -15.339  0.00  0.00    +0.137 C 
ATOM     13  C   UNL     1      37.135 -25.832 -12.170  0.00  0.00    +0.307 C 
ATOM     14  C   UNL     1      37.386 -23.290 -14.985  0.00  0.00    +0.030 C 
ATOM     15  C   UNL     1      35.240 -22.496 -16.574  0.00  0.00    +0.039 C 
ATOM     16  C   UNL     1      37.617 -22.693 -16.226  0.00  0.00    +0.140 C 
ATOM     17  C   UNL     1      36.544 -22.291 -17.016  0.00  0.00    +0.033 C 
ATOM     18  H   UNL     1      35.828 -26.198 -13.779  0.00  0.00    +0.152 HD
ATOM     19  H   UNL     1      38.059 -24.574 -10.771  0.00  0.00    +0.159 HD
ENDROOT
BRANCH  10  22
ATOM     20  O   UNL     1      31.307 -24.924 -13.195  0.00  0.00    -0.271 OA
ATOM     21  N   UNL     1      31.588 -22.710 -13.756  0.00  0.00    -0.326 N 
ATOM     22  C   UNL     1      32.021 -24.004 -13.589  0.00  0.00    +0.260 C 
ATOM     23  H   UNL     1      30.656 -22.471 -13.545  0.00  0.00    +0.145 HD
ATOM     24  H   UNL     1      32.209 -22.022 -14.089  0.00  0.00    +0.145 HD
ENDBRANCH  10  22
TORSDOF 1
ENDMDL
MODEL 9
REMARK VINA RESULT:      -7.6     14.628     16.762
REMARK  Name = 449157
REMARK  1 active torsions:
REMARK  status: ('A' for Active; 'I' for Inactive)
REMARK    1  A    between atoms: C_10  and  C_22
REMARK                            x       y       z     vdW  Elec       q    Type
REMARK                         _______ _______ _______ _____ _____    ______ ____
ROOT
ATOM      1  F   UNL     1      30.530 -10.396 -18.870  0.00  0.00    -0.204 F 
ATOM      2  O   UNL     1      33.109 -11.741 -23.536  0.00  0.00    -0.470 OA
ATOM      3  O   UNL     1      34.368  -7.770 -21.564  0.00  0.00    -0.273 OA
ATOM      4  O   UNL     1      30.766  -6.025 -23.800  0.00  0.00    -0.252 OA
ATOM      5  N   UNL     1      31.600  -8.202 -23.622  0.00  0.00    -0.281 N 
ATOM      6  N   UNL     1      32.669  -6.556 -22.574  0.00  0.00    -0.238 N 
ATOM      7  C   UNL     1      32.720  -8.880 -22.995  0.00  0.00    +0.153 C 
ATOM      8  C   UNL     1      33.692  -9.426 -24.048  0.00  0.00    +0.084 C 
ATOM      9  C   UNL     1      32.256  -9.977 -22.064  0.00  0.00    +0.038 C 
ATOM     10  C   UNL     1      33.169 -10.756 -24.567  0.00  0.00    +0.243 C 
ATOM     11  C   UNL     1      33.376  -7.698 -22.277  0.00  0.00    +0.249 C 
ATOM     12  C   UNL     1      32.476 -11.326 -22.390  0.00  0.00    +0.137 C 
ATOM     13  C   UNL     1      31.587  -6.828 -23.380  0.00  0.00    +0.307 C 
ATOM     14  C   UNL     1      31.581  -9.681 -20.868  0.00  0.00    +0.030 C 
ATOM     15  C   UNL     1      32.073 -12.344 -21.520  0.00  0.00    +0.039 C 
ATOM     16  C   UNL     1      31.166 -10.700 -20.008  0.00  0.00    +0.140 C 
ATOM     17  C   UNL     1      31.418 -12.030 -20.332  0.00  0.00    +0.033 C 
ATOM     18  H   UNL     1      30.918  -8.665 -24.164  0.00  0.00    +0.152 HD
ATOM     19  H   UNL     1      32.907  -5.658 -22.251  0.00  0.00    +0.159 HD
ENDROOT
BRANCH  10  22
ATOM     20  O   UNL     1      33.812 -12.296 -26.273  0.00  0.00    -0.271 OA
ATOM     21  N   UNL     1      35.344 -10.719 -25.592  0.00  0.00    -0.326 N 
ATOM     22  C   UNL     1      34.117 -11.338 -25.564  0.00  0.00    +0.260 C 
ATOM     23  H   UNL     1      36.039 -11.030 -26.216  0.00  0.00    +0.145 HD
ATOM     24  H   UNL     1      35.528  -9.965 -24.987  0.00  0.00    +0.145 HD
ENDBRANCH  10  22
TORSDOF 1
ENDMDL
