MODEL 1
REMARK VINA RESULT:      -6.2      0.000      0.000
REMARK  Name = 285553
REMARK  1 active torsions:
REMARK  status: ('A' for Active; 'I' for Inactive)
REMARK    1  A    between atoms: C_3  and  N_9
REMARK                            x       y       z     vdW  Elec       q    Type
REMARK                         _______ _______ _______ _____ _____    ______ ____
ROOT
ATOM      1  F   UNL     1      35.080 -18.729 -21.586  0.00  0.00    -0.204 F 
ATOM      2  C   UNL     1      33.984 -20.410 -20.316  0.00  0.00    +0.018 C 
ATOM      3  C   UNL     1      34.066 -21.500 -19.448  0.00  0.00    +0.040 C 
ATOM      4  C   UNL     1      35.147 -19.778 -20.754  0.00  0.00    +0.137 C 
ATOM      5  C   UNL     1      35.312 -21.957 -19.019  0.00  0.00    +0.014 C 
ATOM      6  C   UNL     1      32.661 -19.903 -20.789  0.00  0.00    +0.035 C 
ATOM      7  C   UNL     1      36.393 -20.235 -20.324  0.00  0.00    +0.029 C 
ATOM      8  C   UNL     1      36.475 -21.324 -19.457  0.00  0.00    +0.004 C 
ENDROOT
BRANCH   3   9
ATOM      9  N   UNL     1      32.899 -22.152 -18.994  0.00  0.00    -0.357 N 
ATOM     10  H   UNL     1      32.965 -22.861 -18.314  0.00  0.00    +0.142 HD
ATOM     11  H   UNL     1      32.020 -21.898 -19.356  0.00  0.00    +0.142 HD
ENDBRANCH   3   9
TORSDOF 1
ENDMDL
MODEL 2
REMARK VINA RESULT:      -6.2      1.093      2.552
REMARK  Name = 285553
REMARK  1 active torsions:
REMARK  status: ('A' for Active; 'I' for Inactive)
REMARK    1  A    between atoms: C_3  and  N_9
REMARK                            x       y       z     vdW  Elec       q    Type
REMARK                         _______ _______ _______ _____ _____    ______ ____
ROOT
ATOM      1  F   UNL     1      36.973 -19.815 -20.536  0.00  0.00    -0.204 F 
ATOM      2  C   UNL     1      35.046 -20.963 -19.755  0.00  0.00    +0.018 C 
ATOM      3  C   UNL     1      33.661 -21.127 -19.771  0.00  0.00    +0.040 C 
ATOM      4  C   UNL     1      35.642 -19.980 -20.543  0.00  0.00    +0.137 C 
ATOM      5  C   UNL     1      32.871 -20.305 -20.576  0.00  0.00    +0.014 C 
ATOM      6  C   UNL     1      35.912 -21.831 -18.900  0.00  0.00    +0.035 C 
ATOM      7  C   UNL     1      34.853 -19.158 -21.349  0.00  0.00    +0.029 C 
ATOM      8  C   UNL     1      33.467 -19.321 -21.365  0.00  0.00    +0.004 C 
ENDROOT
BRANCH   3   9
ATOM      9  N   UNL     1      33.040 -22.118 -18.980  0.00  0.00    -0.357 N 
ATOM     10  H   UNL     1      33.438 -23.016 -18.914  0.00  0.00    +0.142 HD
ATOM     11  H   UNL     1      32.210 -21.911 -18.494  0.00  0.00    +0.142 HD
ENDBRANCH   3   9
TORSDOF 1
ENDMDL
MODEL 3
REMARK VINA RESULT:      -6.0      2.484      3.761
REMARK  Name = 285553
REMARK  1 active torsions:
REMARK  status: ('A' for Active; 'I' for Inactive)
REMARK    1  A    between atoms: C_3  and  N_9
REMARK                            x       y       z     vdW  Elec       q    Type
REMARK                         _______ _______ _______ _____ _____    ______ ____
ROOT
ATOM      1  F   UNL     1      34.609 -22.554 -18.829  0.00  0.00    -0.204 F 
ATOM      2  C   UNL     1      35.431 -20.714 -20.086  0.00  0.00    +0.018 C 
ATOM      3  C   UNL     1      35.174 -19.579 -20.857  0.00  0.00    +0.040 C 
ATOM      4  C   UNL     1      34.373 -21.463 -19.572  0.00  0.00    +0.137 C 
ATOM      5  C   UNL     1      33.858 -19.194 -21.112  0.00  0.00    +0.014 C 
ATOM      6  C   UNL     1      36.832 -21.147 -19.800  0.00  0.00    +0.035 C 
ATOM      7  C   UNL     1      33.057 -21.077 -19.827  0.00  0.00    +0.029 C 
ATOM      8  C   UNL     1      32.800 -19.942 -20.597  0.00  0.00    +0.004 C 
ENDROOT
BRANCH   3   9
ATOM      9  N   UNL     1      36.232 -18.809 -21.385  0.00  0.00    -0.357 N 
ATOM     10  H   UNL     1      36.226 -17.830 -21.285  0.00  0.00    +0.142 HD
ATOM     11  H   UNL     1      36.976 -19.251 -21.854  0.00  0.00    +0.142 HD
ENDBRANCH   3   9
TORSDOF 1
ENDMDL
MODEL 4
REMARK VINA RESULT:      -6.0      2.135      2.734
REMARK  Name = 285553
REMARK  1 active torsions:
REMARK  status: ('A' for Active; 'I' for Inactive)
REMARK    1  A    between atoms: C_3  and  N_9
REMARK                            x       y       z     vdW  Elec       q    Type
REMARK                         _______ _______ _______ _____ _____    ______ ____
ROOT
ATOM      1  F   UNL     1      32.213 -20.171 -20.772  0.00  0.00    -0.204 F 
ATOM      2  C   UNL     1      34.565 -19.860 -20.649  0.00  0.00    +0.018 C 
ATOM      3  C   UNL     1      35.805 -20.281 -20.168  0.00  0.00    +0.040 C 
ATOM      4  C   UNL     1      33.410 -20.566 -20.315  0.00  0.00    +0.137 C 
ATOM      5  C   UNL     1      35.889 -21.410 -19.352  0.00  0.00    +0.014 C 
ATOM      6  C   UNL     1      34.450 -18.654 -21.523  0.00  0.00    +0.035 C 
ATOM      7  C   UNL     1      33.494 -21.695 -19.499  0.00  0.00    +0.029 C 
ATOM      8  C   UNL     1      34.734 -22.117 -19.018  0.00  0.00    +0.004 C 
ENDROOT
BRANCH   3   9
ATOM      9  N   UNL     1      36.985 -19.579 -20.496  0.00  0.00    -0.357 N 
ATOM     10  H   UNL     1      37.044 -18.611 -20.327  0.00  0.00    +0.142 HD
ATOM     11  H   UNL     1      37.748 -20.057 -20.893  0.00  0.00    +0.142 HD
ENDBRANCH   3   9
TORSDOF 1
ENDMDL
MODEL 5
REMARK VINA RESULT:      -5.9      1.788      2.577
REMARK  Name = 285553
REMARK  1 active torsions:
REMARK  status: ('A' for Active; 'I' for Inactive)
REMARK    1  A    between atoms: C_3  and  N_9
REMARK                            x       y       z     vdW  Elec       q    Type
REMARK                         _______ _______ _______ _____ _____    ______ ____
ROOT
ATOM      1  F   UNL     1      32.366 -20.162 -20.925  0.00  0.00    -0.204 F 
ATOM      2  C   UNL     1      34.358 -20.946 -19.896  0.00  0.00    +0.018 C 
ATOM      3  C   UNL     1      35.740 -20.848 -19.733  0.00  0.00    +0.040 C 
ATOM      4  C   UNL     1      33.694 -20.077 -20.762  0.00  0.00    +0.137 C 
ATOM      5  C   UNL     1      36.458 -19.881 -20.437  0.00  0.00    +0.014 C 
ATOM      6  C   UNL     1      33.568 -21.973 -19.153  0.00  0.00    +0.035 C 
ATOM      7  C   UNL     1      34.412 -19.110 -21.466  0.00  0.00    +0.029 C 
ATOM      8  C   UNL     1      35.794 -19.012 -21.303  0.00  0.00    +0.004 C 
ENDROOT
BRANCH   3   9
ATOM      9  N   UNL     1      36.429 -21.718 -18.861  0.00  0.00    -0.357 N 
ATOM     10  H   UNL     1      37.370 -21.946 -19.036  0.00  0.00    +0.142 HD
ATOM     11  H   UNL     1      35.968 -22.095 -18.077  0.00  0.00    +0.142 HD
ENDBRANCH   3   9
TORSDOF 1
ENDMDL
MODEL 6
REMARK VINA RESULT:      -5.8      1.612      2.696
REMARK  Name = 285553
REMARK  1 active torsions:
REMARK  status: ('A' for Active; 'I' for Inactive)
REMARK    1  A    between atoms: C_3  and  N_9
REMARK                            x       y       z     vdW  Elec       q    Type
REMARK                         _______ _______ _______ _____ _____    ______ ____
ROOT
ATOM      1  F   UNL     1      34.005 -18.111 -21.836  0.00  0.00    -0.204 F 
ATOM      2  C   UNL     1      35.323 -19.728 -20.699  0.00  0.00    +0.018 C 
ATOM      3  C   UNL     1      35.392 -20.881 -19.917  0.00  0.00    +0.040 C 
ATOM      4  C   UNL     1      34.083 -19.218 -21.084  0.00  0.00    +0.137 C 
ATOM      5  C   UNL     1      34.219 -21.525 -19.520  0.00  0.00    +0.014 C 
ATOM      6  C   UNL     1      36.564 -19.021 -21.136  0.00  0.00    +0.035 C 
ATOM      7  C   UNL     1      32.910 -19.863 -20.687  0.00  0.00    +0.029 C 
ATOM      8  C   UNL     1      32.979 -21.016 -19.905  0.00  0.00    +0.004 C 
ENDROOT
BRANCH   3   9
ATOM      9  N   UNL     1      36.638 -21.412 -19.519  0.00  0.00    -0.357 N 
ATOM     10  H   UNL     1      37.029 -22.171 -20.009  0.00  0.00    +0.142 HD
ATOM     11  H   UNL     1      37.116 -21.022 -18.752  0.00  0.00    +0.142 HD
ENDBRANCH   3   9
TORSDOF 1
ENDMDL
MODEL 7
REMARK VINA RESULT:      -5.7      4.061      4.914
REMARK  Name = 285553
REMARK  1 active torsions:
REMARK  status: ('A' for Active; 'I' for Inactive)
REMARK    1  A    between atoms: C_3  and  N_9
REMARK                            x       y       z     vdW  Elec       q    Type
REMARK                         _______ _______ _______ _____ _____    ______ ____
ROOT
ATOM      1  F   UNL     1      34.980 -19.883 -24.437  0.00  0.00    -0.204 F 
ATOM      2  C   UNL     1      34.841 -17.618 -23.740  0.00  0.00    +0.018 C 
ATOM      3  C   UNL     1      34.802 -16.684 -22.704  0.00  0.00    +0.040 C 
ATOM      4  C   UNL     1      34.941 -18.978 -23.450  0.00  0.00    +0.137 C 
ATOM      5  C   UNL     1      34.862 -17.112 -21.377  0.00  0.00    +0.014 C 
ATOM      6  C   UNL     1      34.778 -17.183 -25.168  0.00  0.00    +0.035 C 
ATOM      7  C   UNL     1      35.001 -19.406 -22.123  0.00  0.00    +0.029 C 
ATOM      8  C   UNL     1      34.962 -18.472 -21.087  0.00  0.00    +0.004 C 
ENDROOT
BRANCH   3   9
ATOM      9  N   UNL     1      34.702 -15.303 -22.978  0.00  0.00    -0.357 N 
ATOM     10  H   UNL     1      34.860 -14.646 -22.262  0.00  0.00    +0.142 HD
ATOM     11  H   UNL     1      34.477 -14.996 -23.886  0.00  0.00    +0.142 HD
ENDBRANCH   3   9
TORSDOF 1
ENDMDL
MODEL 8
REMARK VINA RESULT:      -5.7      4.000      5.191
REMARK  Name = 285553
REMARK  1 active torsions:
REMARK  status: ('A' for Active; 'I' for Inactive)
REMARK    1  A    between atoms: C_3  and  N_9
REMARK                            x       y       z     vdW  Elec       q    Type
REMARK                         _______ _______ _______ _____ _____    ______ ____
ROOT
ATOM      1  F   UNL     1      34.951 -20.017 -24.407  0.00  0.00    -0.204 F 
ATOM      2  C   UNL     1      34.957 -18.400 -22.668  0.00  0.00    +0.018 C 
ATOM      3  C   UNL     1      34.872 -17.064 -22.275  0.00  0.00    +0.040 C 
ATOM      4  C   UNL     1      34.872 -18.737 -24.019  0.00  0.00    +0.137 C 
ATOM      5  C   UNL     1      34.702 -16.065 -23.234  0.00  0.00    +0.014 C 
ATOM      6  C   UNL     1      35.140 -19.487 -21.660  0.00  0.00    +0.035 C 
ATOM      7  C   UNL     1      34.701 -17.737 -24.978  0.00  0.00    +0.029 C 
ATOM      8  C   UNL     1      34.616 -16.401 -24.584  0.00  0.00    +0.004 C 
ENDROOT
BRANCH   3   9
ATOM      9  N   UNL     1      34.955 -16.704 -20.913  0.00  0.00    -0.357 N 
ATOM     10  H   UNL     1      35.833 -16.528 -20.503  0.00  0.00    +0.142 HD
ATOM     11  H   UNL     1      34.136 -16.629 -20.372  0.00  0.00    +0.142 HD
ENDBRANCH   3   9
TORSDOF 1
ENDMDL
MODEL 9
REMARK VINA RESULT:      -5.7      4.212      5.060
REMARK  Name = 285553
REMARK  1 active torsions:
REMARK  status: ('A' for Active; 'I' for Inactive)
REMARK    1  A    between atoms: C_3  and  N_9
REMARK                            x       y       z     vdW  Elec       q    Type
REMARK                         _______ _______ _______ _____ _____    ______ ____
ROOT
ATOM      1  F   UNL     1      34.836 -16.052 -20.472  0.00  0.00    -0.204 F 
ATOM      2  C   UNL     1      34.786 -16.473 -22.809  0.00  0.00    +0.018 C 
ATOM      3  C   UNL     1      34.858 -17.384 -23.863  0.00  0.00    +0.040 C 
ATOM      4  C   UNL     1      34.905 -16.918 -21.492  0.00  0.00    +0.137 C 
ATOM      5  C   UNL     1      35.051 -18.740 -23.601  0.00  0.00    +0.014 C 
ATOM      6  C   UNL     1      34.580 -15.016 -23.065  0.00  0.00    +0.035 C 
ATOM      7  C   UNL     1      35.098 -18.275 -21.230  0.00  0.00    +0.029 C 
ATOM      8  C   UNL     1      35.171 -19.186 -22.285  0.00  0.00    +0.004 C 
ENDROOT
BRANCH   3   9
ATOM      9  N   UNL     1      34.738 -16.951 -25.201  0.00  0.00    -0.357 N 
ATOM     10  H   UNL     1      34.962 -16.023 -25.441  0.00  0.00    +0.142 HD
ATOM     11  H   UNL     1      34.431 -17.578 -25.896  0.00  0.00    +0.142 HD
ENDBRANCH   3   9
TORSDOF 1
ENDMDL
