MODEL 1
REMARK VINA RESULT:      -5.9      0.000      0.000
REMARK  Name = 448651
REMARK  2 active torsions:
REMARK  status: ('A' for Active; 'I' for Inactive)
REMARK    1  A    between atoms: C_4  and  C_9
REMARK    2  A    between atoms: C_9  and  O_10
REMARK                            x       y       z     vdW  Elec       q    Type
REMARK                         _______ _______ _______ _____ _____    ______ ____
ROOT
ATOM      1  O   UNL     1      37.418 -26.116 -12.362  0.00  0.00    -0.380 OA
ATOM      2  O   UNL     1      37.574 -26.841 -15.767  0.00  0.00    -0.267 OA
ATOM      3  N   UNL     1      36.868 -26.667 -13.544  0.00  0.00    -0.144 N 
ATOM      4  C   UNL     1      38.897 -25.786 -14.088  0.00  0.00    +0.171 C 
ATOM      5  C   UNL     1      37.725 -26.493 -14.609  0.00  0.00    +0.286 C 
ATOM      6  C   UNL     1      38.622 -25.620 -12.801  0.00  0.00    +0.218 C 
ATOM      7  H   UNL     1      35.994 -27.116 -13.597  0.00  0.00    +0.196 HD
ENDROOT
BRANCH   4   9
ATOM      8  O   UNL     1      40.945 -24.600 -14.312  0.00  0.00    -0.245 OA
ATOM      9  C   UNL     1      40.094 -25.354 -14.777  0.00  0.00    +0.346 C 
BRANCH   9  10
ATOM     10  O   UNL     1      40.147 -25.901 -16.016  0.00  0.00    -0.477 OA
ATOM     11  H   UNL     1      40.787 -26.557 -16.212  0.00  0.00    +0.295 HD
ENDBRANCH   9  10
ENDBRANCH   4   9
TORSDOF 2
ENDMDL
MODEL 2
REMARK VINA RESULT:      -5.7      1.936      2.898
REMARK  Name = 448651
REMARK  2 active torsions:
REMARK  status: ('A' for Active; 'I' for Inactive)
REMARK    1  A    between atoms: C_4  and  C_9
REMARK    2  A    between atoms: C_9  and  O_10
REMARK                            x       y       z     vdW  Elec       q    Type
REMARK                         _______ _______ _______ _____ _____    ______ ____
ROOT
ATOM      1  O   UNL     1      36.380 -25.464 -11.666  0.00  0.00    -0.380 OA
ATOM      2  O   UNL     1      39.080 -23.266 -11.811  0.00  0.00    -0.267 OA
ATOM      3  N   UNL     1      37.059 -24.298 -11.242  0.00  0.00    -0.144 N 
ATOM      4  C   UNL     1      38.345 -25.287 -12.840  0.00  0.00    +0.171 C 
ATOM      5  C   UNL     1      38.248 -24.151 -11.922  0.00  0.00    +0.286 C 
ATOM      6  C   UNL     1      37.232 -25.973 -12.616  0.00  0.00    +0.218 C 
ATOM      7  H   UNL     1      36.727 -23.676 -10.555  0.00  0.00    +0.196 HD
ENDROOT
BRANCH   4   9
ATOM      8  O   UNL     1      39.370 -26.584 -14.549  0.00  0.00    -0.245 OA
ATOM      9  C   UNL     1      39.388 -25.622 -13.786  0.00  0.00    +0.346 C 
BRANCH   9  10
ATOM     10  O   UNL     1      40.396 -24.719 -13.713  0.00  0.00    -0.477 OA
ATOM     11  H   UNL     1      40.443 -24.126 -12.989  0.00  0.00    +0.295 HD
ENDBRANCH   9  10
ENDBRANCH   4   9
TORSDOF 2
ENDMDL
MODEL 3
REMARK VINA RESULT:      -5.7      1.928      3.399
REMARK  Name = 448651
REMARK  2 active torsions:
REMARK  status: ('A' for Active; 'I' for Inactive)
REMARK    1  A    between atoms: C_4  and  C_9
REMARK    2  A    between atoms: C_9  and  O_10
REMARK                            x       y       z     vdW  Elec       q    Type
REMARK                         _______ _______ _______ _____ _____    ______ ____
ROOT
ATOM      1  O   UNL     1      37.586 -27.044 -13.933  0.00  0.00    -0.380 OA
ATOM      2  O   UNL     1      40.133 -24.677 -13.710  0.00  0.00    -0.267 OA
ATOM      3  N   UNL     1      38.826 -26.507 -14.352  0.00  0.00    -0.144 N 
ATOM      4  C   UNL     1      38.049 -25.184 -12.669  0.00  0.00    +0.171 C 
ATOM      5  C   UNL     1      39.146 -25.386 -13.618  0.00  0.00    +0.286 C 
ATOM      6  C   UNL     1      37.215 -26.181 -12.930  0.00  0.00    +0.218 C 
ATOM      7  H   UNL     1      39.385 -26.884 -15.069  0.00  0.00    +0.196 HD
ENDROOT
BRANCH   4   9
ATOM      8  O   UNL     1      36.966 -24.115 -10.842  0.00  0.00    -0.245 OA
ATOM      9  C   UNL     1      37.877 -24.156 -11.664  0.00  0.00    +0.346 C 
BRANCH   9  10
ATOM     10  O   UNL     1      38.869 -23.237 -11.758  0.00  0.00    -0.477 OA
ATOM     11  H   UNL     1      38.664 -22.323 -11.737  0.00  0.00    +0.295 HD
ENDBRANCH   9  10
ENDBRANCH   4   9
TORSDOF 2
ENDMDL
MODEL 4
REMARK VINA RESULT:      -5.6      2.662      4.623
REMARK  Name = 448651
REMARK  2 active torsions:
REMARK  status: ('A' for Active; 'I' for Inactive)
REMARK    1  A    between atoms: C_4  and  C_9
REMARK    2  A    between atoms: C_9  and  O_10
REMARK                            x       y       z     vdW  Elec       q    Type
REMARK                         _______ _______ _______ _____ _____    ______ ____
ROOT
ATOM      1  O   UNL     1      38.298 -26.144 -13.362  0.00  0.00    -0.380 OA
ATOM      2  O   UNL     1      38.380 -23.114 -11.643  0.00  0.00    -0.267 OA
ATOM      3  N   UNL     1      38.961 -24.963 -12.952  0.00  0.00    -0.144 N 
ATOM      4  C   UNL     1      36.867 -24.909 -12.059  0.00  0.00    +0.171 C 
ATOM      5  C   UNL     1      38.137 -24.189 -12.165  0.00  0.00    +0.286 C 
ATOM      6  C   UNL     1      37.064 -26.008 -12.774  0.00  0.00    +0.218 C 
ATOM      7  H   UNL     1      39.885 -24.727 -13.196  0.00  0.00    +0.196 HD
ENDROOT
BRANCH   4   9
ATOM      8  O   UNL     1      35.297 -25.024 -10.277  0.00  0.00    -0.245 OA
ATOM      9  C   UNL     1      35.658 -24.546 -11.350  0.00  0.00    +0.346 C 
BRANCH   9  10
ATOM     10  O   UNL     1      34.975 -23.599 -12.038  0.00  0.00    -0.477 OA
ATOM     11  H   UNL     1      34.136 -23.314 -11.735  0.00  0.00    +0.295 HD
ENDBRANCH   9  10
ENDBRANCH   4   9
TORSDOF 2
ENDMDL
MODEL 5
REMARK VINA RESULT:      -5.5      1.995      3.479
REMARK  Name = 448651
REMARK  2 active torsions:
REMARK  status: ('A' for Active; 'I' for Inactive)
REMARK    1  A    between atoms: C_4  and  C_9
REMARK    2  A    between atoms: C_9  and  O_10
REMARK                            x       y       z     vdW  Elec       q    Type
REMARK                         _______ _______ _______ _____ _____    ______ ____
ROOT
ATOM      1  O   UNL     1      38.470 -25.768 -14.766  0.00  0.00    -0.380 OA
ATOM      2  O   UNL     1      36.896 -26.580 -11.765  0.00  0.00    -0.267 OA
ATOM      3  N   UNL     1      37.822 -26.690 -13.910  0.00  0.00    -0.144 N 
ATOM      4  C   UNL     1      37.911 -24.695 -12.815  0.00  0.00    +0.171 C 
ATOM      5  C   UNL     1      37.466 -26.087 -12.723  0.00  0.00    +0.286 C 
ATOM      6  C   UNL     1      38.468 -24.618 -14.015  0.00  0.00    +0.218 C 
ATOM      7  H   UNL     1      37.647 -27.632 -14.133  0.00  0.00    +0.196 HD
ENDROOT
BRANCH   4   9
ATOM      8  O   UNL     1      38.280 -22.504 -11.970  0.00  0.00    -0.245 OA
ATOM      9  C   UNL     1      37.790 -23.623 -11.849  0.00  0.00    +0.346 C 
BRANCH   9  10
ATOM     10  O   UNL     1      37.054 -24.029 -10.786  0.00  0.00    -0.477 OA
ATOM     11  H   UNL     1      37.472 -24.197  -9.964  0.00  0.00    +0.295 HD
ENDBRANCH   9  10
ENDBRANCH   4   9
TORSDOF 2
ENDMDL
MODEL 6
REMARK VINA RESULT:      -5.5      8.215      9.055
REMARK  Name = 448651
REMARK  2 active torsions:
REMARK  status: ('A' for Active; 'I' for Inactive)
REMARK    1  A    between atoms: C_4  and  C_9
REMARK    2  A    between atoms: C_9  and  O_10
REMARK                            x       y       z     vdW  Elec       q    Type
REMARK                         _______ _______ _______ _____ _____    ______ ____
ROOT
ATOM      1  O   UNL     1      36.617 -20.112 -19.837  0.00  0.00    -0.380 OA
ATOM      2  O   UNL     1      33.331 -19.842 -20.965  0.00  0.00    -0.267 OA
ATOM      3  N   UNL     1      35.593 -19.431 -20.538  0.00  0.00    -0.144 N 
ATOM      4  C   UNL     1      34.681 -21.338 -19.692  0.00  0.00    +0.171 C 
ATOM      5  C   UNL     1      34.409 -20.133 -20.476  0.00  0.00    +0.286 C 
ATOM      6  C   UNL     1      35.964 -21.229 -19.376  0.00  0.00    +0.218 C 
ATOM      7  H   UNL     1      35.710 -18.572 -21.004  0.00  0.00    +0.196 HD
ENDROOT
BRANCH   4   9
ATOM      8  O   UNL     1      34.064 -23.614 -19.382  0.00  0.00    -0.245 OA
ATOM      9  C   UNL     1      33.790 -22.418 -19.322  0.00  0.00    +0.346 C 
BRANCH   9  10
ATOM     10  O   UNL     1      32.603 -21.923 -18.896  0.00  0.00    -0.477 OA
ATOM     11  H   UNL     1      31.802 -22.308 -19.192  0.00  0.00    +0.295 HD
ENDBRANCH   9  10
ENDBRANCH   4   9
TORSDOF 2
ENDMDL
MODEL 7
REMARK VINA RESULT:      -5.5      2.324      3.495
REMARK  Name = 448651
REMARK  2 active torsions:
REMARK  status: ('A' for Active; 'I' for Inactive)
REMARK    1  A    between atoms: C_4  and  C_9
REMARK    2  A    between atoms: C_9  and  O_10
REMARK                            x       y       z     vdW  Elec       q    Type
REMARK                         _______ _______ _______ _____ _____    ______ ____
ROOT
ATOM      1  O   UNL     1      38.099 -26.613 -14.190  0.00  0.00    -0.380 OA
ATOM      2  O   UNL     1      37.840 -23.174 -14.692  0.00  0.00    -0.267 OA
ATOM      3  N   UNL     1      38.070 -25.477 -15.033  0.00  0.00    -0.144 N 
ATOM      4  C   UNL     1      37.824 -24.738 -12.893  0.00  0.00    +0.171 C 
ATOM      5  C   UNL     1      37.907 -24.325 -14.295  0.00  0.00    +0.286 C 
ATOM      6  C   UNL     1      37.945 -26.058 -12.943  0.00  0.00    +0.218 C 
ATOM      7  H   UNL     1      38.157 -25.505 -16.013  0.00  0.00    +0.196 HD
ENDROOT
BRANCH   4   9
ATOM      8  O   UNL     1      36.867 -24.174 -10.791  0.00  0.00    -0.245 OA
ATOM      9  C   UNL     1      37.654 -23.932 -11.703  0.00  0.00    +0.346 C 
BRANCH   9  10
ATOM     10  O   UNL     1      38.490 -22.866 -11.734  0.00  0.00    -0.477 OA
ATOM     11  H   UNL     1      39.253 -22.853 -11.190  0.00  0.00    +0.295 HD
ENDBRANCH   9  10
ENDBRANCH   4   9
TORSDOF 2
ENDMDL
MODEL 8
REMARK VINA RESULT:      -5.4      2.060      3.365
REMARK  Name = 448651
REMARK  2 active torsions:
REMARK  status: ('A' for Active; 'I' for Inactive)
REMARK    1  A    between atoms: C_4  and  C_9
REMARK    2  A    between atoms: C_9  and  O_10
REMARK                            x       y       z     vdW  Elec       q    Type
REMARK                         _______ _______ _______ _____ _____    ______ ____
ROOT
ATOM      1  O   UNL     1      38.336 -23.533 -15.233  0.00  0.00    -0.380 OA
ATOM      2  O   UNL     1      39.564 -26.741 -14.651  0.00  0.00    -0.267 OA
ATOM      3  N   UNL     1      39.250 -24.581 -15.491  0.00  0.00    -0.144 N 
ATOM      4  C   UNL     1      37.827 -25.309 -13.870  0.00  0.00    +0.171 C 
ATOM      5  C   UNL     1      38.981 -25.671 -14.693  0.00  0.00    +0.286 C 
ATOM      6  C   UNL     1      37.537 -24.073 -14.255  0.00  0.00    +0.218 C 
ATOM      7  H   UNL     1      39.978 -24.538 -16.152  0.00  0.00    +0.196 HD
ENDROOT
BRANCH   4   9
ATOM      8  O   UNL     1      36.816 -25.676 -11.749  0.00  0.00    -0.245 OA
ATOM      9  C   UNL     1      37.132 -26.084 -12.863  0.00  0.00    +0.346 C 
BRANCH   9  10
ATOM     10  O   UNL     1      36.876 -27.332 -13.325  0.00  0.00    -0.477 OA
ATOM     11  H   UNL     1      36.261 -27.458 -14.020  0.00  0.00    +0.295 HD
ENDBRANCH   9  10
ENDBRANCH   4   9
TORSDOF 2
ENDMDL
MODEL 9
REMARK VINA RESULT:      -5.4      8.361      8.776
REMARK  Name = 448651
REMARK  2 active torsions:
REMARK  status: ('A' for Active; 'I' for Inactive)
REMARK    1  A    between atoms: C_4  and  C_9
REMARK    2  A    between atoms: C_9  and  O_10
REMARK                            x       y       z     vdW  Elec       q    Type
REMARK                         _______ _______ _______ _____ _____    ______ ____
ROOT
ATOM      1  O   UNL     1      34.357 -22.848 -18.694  0.00  0.00    -0.380 OA
ATOM      2  O   UNL     1      32.503 -20.345 -20.258  0.00  0.00    -0.267 OA
ATOM      3  N   UNL     1      33.126 -22.239 -19.034  0.00  0.00    -0.144 N 
ATOM      4  C   UNL     1      34.782 -20.978 -19.957  0.00  0.00    +0.171 C 
ATOM      5  C   UNL     1      33.333 -21.109 -19.794  0.00  0.00    +0.286 C 
ATOM      6  C   UNL     1      35.272 -22.017 -19.295  0.00  0.00    +0.218 C 
ATOM      7  H   UNL     1      32.242 -22.576 -18.764  0.00  0.00    +0.196 HD
ENDROOT
BRANCH   4   9
ATOM      8  O   UNL     1      36.581 -19.453 -20.263  0.00  0.00    -0.245 OA
ATOM      9  C   UNL     1      35.543 -19.971 -20.667  0.00  0.00    +0.346 C 
BRANCH   9  10
ATOM     10  O   UNL     1      34.946 -19.677 -21.848  0.00  0.00    -0.477 OA
ATOM     11  H   UNL     1      34.885 -18.786 -22.133  0.00  0.00    +0.295 HD
ENDBRANCH   9  10
ENDBRANCH   4   9
TORSDOF 2
ENDMDL
