MODEL 1
REMARK VINA RESULT:     -12.0      0.000      0.000
REMARK  Name = 3168
REMARK  6 active torsions:
REMARK  status: ('A' for Active; 'I' for Inactive)
REMARK    1  A    between atoms: N_1  and  C_19
REMARK    2  A    between atoms: C_5  and  N_9
REMARK    3  A    between atoms: C_19  and  C_20
REMARK    4  A    between atoms: C_20  and  C_21
REMARK    5  A    between atoms: C_21  and  C_23
REMARK    6  A    between atoms: C_23  and  C_25
REMARK                            x       y       z     vdW  Elec       q    Type
REMARK                         _______ _______ _______ _____ _____    ______ ____
ROOT
ATOM      1  N   UNL     1      33.965 -16.394 -24.423  0.00  0.00    +0.390 N 
ATOM      2  C   UNL     1      34.985 -15.698 -23.630  0.00  0.00    -0.071 C 
ATOM      3  C   UNL     1      34.417 -14.387 -23.064  0.00  0.00    +0.021 C 
ATOM      4  C   UNL     1      33.562 -15.585 -25.586  0.00  0.00    -0.049 C 
ATOM      5  C   UNL     1      33.650 -13.598 -24.088  0.00  0.00    +0.037 C 
ATOM      6  C   UNL     1      33.273 -14.147 -25.252  0.00  0.00    -0.036 C 
ATOM      7  H   UNL     1      33.147 -16.530 -23.829  0.00  0.00    -0.079 HD
ENDROOT
BRANCH   5   9
ATOM      8  O   UNL     1      34.565 -11.121 -25.494  0.00  0.00    -0.246 OA
ATOM      9  N   UNL     1      33.370 -12.296 -23.788  0.00  0.00    -0.263 N 
ATOM     10  N   UNL     1      33.297 -10.018 -23.837  0.00  0.00    -0.305 N 
ATOM     11  C   UNL     1      32.566 -11.849 -22.722  0.00  0.00    +0.083 A 
ATOM     12  C   UNL     1      33.843 -11.148 -24.507  0.00  0.00    +0.332 A 
ATOM     13  C   UNL     1      32.529 -10.456 -22.760  0.00  0.00    +0.076 A 
ATOM     14  C   UNL     1      31.886 -12.554 -21.750  0.00  0.00    +0.019 C 
ATOM     15  C   UNL     1      31.822  -9.707 -21.845  0.00  0.00    +0.019 C 
ATOM     16  C   UNL     1      31.161 -11.816 -20.808  0.00  0.00    +0.002 C 
ATOM     17  C   UNL     1      31.129 -10.407 -20.856  0.00  0.00    +0.002 C 
ATOM     18  H   UNL     1      33.440  -9.077 -24.092  0.00  0.00    +0.170 HD
ENDBRANCH   5   9
BRANCH   1  19
ATOM     19  C   UNL     1      34.437 -17.711 -24.847  0.00  0.00    -0.076 C 
BRANCH  19  20
ATOM     20  C   UNL     1      35.379 -18.298 -23.796  0.00  0.00    -0.015 C 
BRANCH  20  21
ATOM     21  C   UNL     1      34.675 -19.306 -22.883  0.00  0.00    +0.067 C 
BRANCH  21  23
ATOM     22  O   UNL     1      35.443 -18.051 -20.969  0.00  0.00    -0.291 OA
ATOM     23  C   UNL     1      34.989 -19.106 -21.407  0.00  0.00    +0.173 C 
BRANCH  23  25
ATOM     24  F   UNL     1      33.961 -23.291 -17.857  0.00  0.00    -0.204 F 
ATOM     25  C   UNL     1      34.715 -20.225 -20.460  0.00  0.00    +0.035 C 
ATOM     26  C   UNL     1      33.406 -20.550 -20.184  0.00  0.00    +0.005 C 
ATOM     27  C   UNL     1      35.780 -20.889 -19.896  0.00  0.00    +0.005 C 
ATOM     28  C   UNL     1      33.149 -21.596 -19.296  0.00  0.00    +0.030 C 
ATOM     29  C   UNL     1      35.524 -21.935 -19.008  0.00  0.00    +0.030 C 
ATOM     30  C   UNL     1      34.208 -22.288 -18.709  0.00  0.00    +0.140 C 
ENDBRANCH  23  25
ENDBRANCH  21  23
ENDBRANCH  20  21
ENDBRANCH  19  20
ENDBRANCH   1  19
TORSDOF 6
ENDMDL
MODEL 2
REMARK VINA RESULT:     -11.9      1.375      2.403
REMARK  Name = 3168
REMARK  6 active torsions:
REMARK  status: ('A' for Active; 'I' for Inactive)
REMARK    1  A    between atoms: N_1  and  C_19
REMARK    2  A    between atoms: C_5  and  N_9
REMARK    3  A    between atoms: C_19  and  C_20
REMARK    4  A    between atoms: C_20  and  C_21
REMARK    5  A    between atoms: C_21  and  C_23
REMARK    6  A    between atoms: C_23  and  C_25
REMARK                            x       y       z     vdW  Elec       q    Type
REMARK                         _______ _______ _______ _____ _____    ______ ____
ROOT
ATOM      1  N   UNL     1      33.834 -16.115 -24.400  0.00  0.00    +0.390 N 
ATOM      2  C   UNL     1      34.827 -15.475 -23.528  0.00  0.00    -0.071 C 
ATOM      3  C   UNL     1      34.223 -14.233 -22.854  0.00  0.00    +0.021 C 
ATOM      4  C   UNL     1      33.434 -15.210 -25.490  0.00  0.00    -0.049 C 
ATOM      5  C   UNL     1      33.456 -13.368 -23.815  0.00  0.00    +0.037 C 
ATOM      6  C   UNL     1      33.110 -13.815 -25.031  0.00  0.00    -0.036 C 
ATOM      7  H   UNL     1      33.010 -16.320 -23.836  0.00  0.00    -0.079 HD
ENDROOT
BRANCH   5   9
ATOM      8  O   UNL     1      31.380 -12.508 -21.839  0.00  0.00    -0.246 OA
ATOM      9  N   UNL     1      33.144 -12.104 -23.403  0.00  0.00    -0.263 N 
ATOM     10  N   UNL     1      32.171 -10.341 -22.337  0.00  0.00    -0.305 N 
ATOM     11  C   UNL     1      33.761 -10.918 -23.842  0.00  0.00    +0.083 A 
ATOM     12  C   UNL     1      32.133 -11.759 -22.447  0.00  0.00    +0.332 A 
ATOM     13  C   UNL     1      33.159  -9.846 -23.185  0.00  0.00    +0.076 A 
ATOM     14  C   UNL     1      34.782 -10.716 -24.749  0.00  0.00    +0.019 C 
ATOM     15  C   UNL     1      33.538  -8.538 -23.395  0.00  0.00    +0.019 C 
ATOM     16  C   UNL     1      35.185  -9.396 -24.981  0.00  0.00    +0.002 C 
ATOM     17  C   UNL     1      34.569  -8.319 -24.310  0.00  0.00    +0.002 C 
ATOM     18  H   UNL     1      31.592  -9.796 -21.754  0.00  0.00    +0.170 HD
ENDBRANCH   5   9
BRANCH   1  19
ATOM     19  C   UNL     1      34.341 -17.378 -24.935  0.00  0.00    -0.076 C 
BRANCH  19  20
ATOM     20  C   UNL     1      35.350 -17.995 -23.965  0.00  0.00    -0.015 C 
BRANCH  20  21
ATOM     21  C   UNL     1      34.722 -19.080 -23.086  0.00  0.00    +0.067 C 
BRANCH  21  23
ATOM     22  O   UNL     1      35.604 -17.931 -21.155  0.00  0.00    -0.291 OA
ATOM     23  C   UNL     1      35.073 -18.941 -21.611  0.00  0.00    +0.173 C 
BRANCH  23  25
ATOM     24  F   UNL     1      33.831 -23.151 -18.161  0.00  0.00    -0.204 F 
ATOM     25  C   UNL     1      34.740 -20.064 -20.689  0.00  0.00    +0.035 C 
ATOM     26  C   UNL     1      35.769 -20.821 -20.173  0.00  0.00    +0.005 C 
ATOM     27  C   UNL     1      33.419 -20.304 -20.388  0.00  0.00    +0.005 C 
ATOM     28  C   UNL     1      35.459 -21.874 -19.312  0.00  0.00    +0.030 C 
ATOM     29  C   UNL     1      33.108 -21.357 -19.527  0.00  0.00    +0.030 C 
ATOM     30  C   UNL     1      34.129 -22.141 -18.988  0.00  0.00    +0.140 C 
ENDBRANCH  23  25
ENDBRANCH  21  23
ENDBRANCH  20  21
ENDBRANCH  19  20
ENDBRANCH   1  19
TORSDOF 6
ENDMDL
MODEL 3
REMARK VINA RESULT:     -11.7      3.905      9.857
REMARK  Name = 3168
REMARK  6 active torsions:
REMARK  status: ('A' for Active; 'I' for Inactive)
REMARK    1  A    between atoms: N_1  and  C_19
REMARK    2  A    between atoms: C_5  and  N_9
REMARK    3  A    between atoms: C_19  and  C_20
REMARK    4  A    between atoms: C_20  and  C_21
REMARK    5  A    between atoms: C_21  and  C_23
REMARK    6  A    between atoms: C_23  and  C_25
REMARK                            x       y       z     vdW  Elec       q    Type
REMARK                         _______ _______ _______ _____ _____    ______ ____
ROOT
ATOM      1  N   UNL     1      33.975 -16.083 -23.562  0.00  0.00    +0.390 N 
ATOM      2  C   UNL     1      34.852 -17.051 -24.232  0.00  0.00    -0.071 C 
ATOM      3  C   UNL     1      34.939 -18.347 -23.411  0.00  0.00    +0.021 C 
ATOM      4  C   UNL     1      34.523 -15.701 -22.250  0.00  0.00    -0.049 C 
ATOM      5  C   UNL     1      35.150 -18.091 -21.945  0.00  0.00    +0.037 C 
ATOM      6  C   UNL     1      34.973 -16.870 -21.418  0.00  0.00    -0.036 C 
ATOM      7  H   UNL     1      33.071 -16.530 -23.414  0.00  0.00    -0.079 HD
ENDROOT
BRANCH   5   9
ATOM      8  O   UNL     1      37.929 -19.005 -21.316  0.00  0.00    -0.246 OA
ATOM      9  N   UNL     1      35.546 -19.149 -21.178  0.00  0.00    -0.263 N 
ATOM     10  N   UNL     1      36.823 -20.681 -20.076  0.00  0.00    -0.305 N 
ATOM     11  C   UNL     1      34.693 -20.048 -20.510  0.00  0.00    +0.083 A 
ATOM     12  C   UNL     1      36.901 -19.535 -20.915  0.00  0.00    +0.332 A 
ATOM     13  C   UNL     1      35.483 -20.980 -19.840  0.00  0.00    +0.076 A 
ATOM     14  C   UNL     1      33.315 -20.105 -20.449  0.00  0.00    +0.019 C 
ATOM     15  C   UNL     1      34.948 -22.002 -19.086  0.00  0.00    +0.019 C 
ATOM     16  C   UNL     1      32.747 -21.135 -19.690  0.00  0.00    +0.002 C 
ATOM     17  C   UNL     1      33.556 -22.073 -19.016  0.00  0.00    +0.002 C 
ATOM     18  H   UNL     1      37.592 -21.183 -19.720  0.00  0.00    +0.170 HD
ENDBRANCH   5   9
BRANCH   1  19
ATOM     19  C   UNL     1      33.762 -14.902 -24.398  0.00  0.00    -0.076 C 
BRANCH  19  20
ATOM     20  C   UNL     1      34.056 -13.630 -23.600  0.00  0.00    -0.015 C 
BRANCH  20  21
ATOM     21  C   UNL     1      33.139 -12.470 -23.997  0.00  0.00    +0.067 C 
BRANCH  21  23
ATOM     22  O   UNL     1      34.678 -11.298 -25.441  0.00  0.00    -0.291 OA
ATOM     23  C   UNL     1      33.895 -11.246 -24.496  0.00  0.00    +0.173 C 
BRANCH  23  25
ATOM     24  F   UNL     1      33.016  -6.345 -21.969  0.00  0.00    -0.204 F 
ATOM     25  C   UNL     1      33.659  -9.937 -23.822  0.00  0.00    +0.035 C 
ATOM     26  C   UNL     1      34.604  -8.945 -23.958  0.00  0.00    +0.005 C 
ATOM     27  C   UNL     1      32.506  -9.769 -23.089  0.00  0.00    +0.005 C 
ATOM     28  C   UNL     1      34.385  -7.721 -23.326  0.00  0.00    +0.030 C 
ATOM     29  C   UNL     1      32.287  -8.545 -22.456  0.00  0.00    +0.030 C 
ATOM     30  C   UNL     1      33.227  -7.521 -22.576  0.00  0.00    +0.140 C 
ENDBRANCH  23  25
ENDBRANCH  21  23
ENDBRANCH  20  21
ENDBRANCH  19  20
ENDBRANCH   1  19
TORSDOF 6
ENDMDL
MODEL 4
REMARK VINA RESULT:     -11.5      3.492      6.553
REMARK  Name = 3168
REMARK  6 active torsions:
REMARK  status: ('A' for Active; 'I' for Inactive)
REMARK    1  A    between atoms: N_1  and  C_19
REMARK    2  A    between atoms: C_5  and  N_9
REMARK    3  A    between atoms: C_19  and  C_20
REMARK    4  A    between atoms: C_20  and  C_21
REMARK    5  A    between atoms: C_21  and  C_23
REMARK    6  A    between atoms: C_23  and  C_25
REMARK                            x       y       z     vdW  Elec       q    Type
REMARK                         _______ _______ _______ _____ _____    ______ ____
ROOT
ATOM      1  N   UNL     1      35.217 -21.083 -19.142  0.00  0.00    +0.390 N 
ATOM      2  C   UNL     1      36.331 -20.990 -20.094  0.00  0.00    -0.071 C 
ATOM      3  C   UNL     1      36.287 -19.645 -20.836  0.00  0.00    +0.021 C 
ATOM      4  C   UNL     1      33.923 -21.043 -19.845  0.00  0.00    -0.049 C 
ATOM      5  C   UNL     1      34.908 -19.295 -21.318  0.00  0.00    +0.037 C 
ATOM      6  C   UNL     1      33.826 -19.950 -20.873  0.00  0.00    -0.036 C 
ATOM      7  H   UNL     1      35.268 -20.275 -18.522  0.00  0.00    -0.079 HD
ENDROOT
BRANCH   5   9
ATOM      8  O   UNL     1      34.956 -19.496 -24.303  0.00  0.00    -0.246 OA
ATOM      9  N   UNL     1      34.807 -18.293 -22.241  0.00  0.00    -0.263 N 
ATOM     10  N   UNL     1      34.699 -17.151 -24.211  0.00  0.00    -0.305 N 
ATOM     11  C   UNL     1      34.654 -16.923 -21.959  0.00  0.00    +0.083 A 
ATOM     12  C   UNL     1      34.838 -18.458 -23.665  0.00  0.00    +0.332 A 
ATOM     13  C   UNL     1      34.590 -16.234 -23.168  0.00  0.00    +0.076 A 
ATOM     14  C   UNL     1      34.571 -16.256 -20.753  0.00  0.00    +0.019 C 
ATOM     15  C   UNL     1      34.440 -14.866 -23.237  0.00  0.00    +0.019 C 
ATOM     16  C   UNL     1      34.420 -14.866 -20.795  0.00  0.00    +0.002 C 
ATOM     17  C   UNL     1      34.355 -14.178 -22.025  0.00  0.00    +0.002 C 
ATOM     18  H   UNL     1      34.683 -16.930 -25.171  0.00  0.00    +0.170 HD
ENDBRANCH   5   9
BRANCH   1  19
ATOM     19  C   UNL     1      35.324 -22.289 -18.323  0.00  0.00    -0.076 C 
BRANCH  19  20
ATOM     20  C   UNL     1      36.362 -22.086 -17.218  0.00  0.00    -0.015 C 
BRANCH  20  21
ATOM     21  C   UNL     1      35.776 -22.316 -15.821  0.00  0.00    +0.067 C 
BRANCH  21  23
ATOM     22  O   UNL     1      35.354 -24.693 -15.842  0.00  0.00    -0.291 OA
ATOM     23  C   UNL     1      34.899 -23.556 -15.731  0.00  0.00    +0.173 C 
BRANCH  23  25
ATOM     24  F   UNL     1      29.433 -22.898 -14.799  0.00  0.00    -0.204 F 
ATOM     25  C   UNL     1      33.439 -23.382 -15.482  0.00  0.00    +0.035 C 
ATOM     26  C   UNL     1      32.602 -23.201 -16.560  0.00  0.00    +0.005 C 
ATOM     27  C   UNL     1      32.982 -23.407 -14.184  0.00  0.00    +0.005 C 
ATOM     28  C   UNL     1      31.237 -23.036 -16.327  0.00  0.00    +0.030 C 
ATOM     29  C   UNL     1      31.617 -23.242 -13.950  0.00  0.00    +0.030 C 
ATOM     30  C   UNL     1      30.744 -23.056 -15.023  0.00  0.00    +0.140 C 
ENDBRANCH  23  25
ENDBRANCH  21  23
ENDBRANCH  20  21
ENDBRANCH  19  20
ENDBRANCH   1  19
TORSDOF 6
ENDMDL
MODEL 5
REMARK VINA RESULT:     -11.5      3.631      9.021
REMARK  Name = 3168
REMARK  6 active torsions:
REMARK  status: ('A' for Active; 'I' for Inactive)
REMARK    1  A    between atoms: N_1  and  C_19
REMARK    2  A    between atoms: C_5  and  N_9
REMARK    3  A    between atoms: C_19  and  C_20
REMARK    4  A    between atoms: C_20  and  C_21
REMARK    5  A    between atoms: C_21  and  C_23
REMARK    6  A    between atoms: C_23  and  C_25
REMARK                            x       y       z     vdW  Elec       q    Type
REMARK                         _______ _______ _______ _____ _____    ______ ____
ROOT
ATOM      1  N   UNL     1      34.042 -16.061 -23.589  0.00  0.00    +0.390 N 
ATOM      2  C   UNL     1      34.860 -17.074 -24.266  0.00  0.00    -0.071 C 
ATOM      3  C   UNL     1      34.921 -18.359 -23.425  0.00  0.00    +0.021 C 
ATOM      4  C   UNL     1      34.642 -15.679 -22.299  0.00  0.00    -0.049 C 
ATOM      5  C   UNL     1      35.185 -18.087 -21.971  0.00  0.00    +0.037 C 
ATOM      6  C   UNL     1      35.071 -16.851 -21.461  0.00  0.00    -0.036 C 
ATOM      7  H   UNL     1      33.126 -16.470 -23.407  0.00  0.00    -0.079 HD
ENDROOT
BRANCH   5   9
ATOM      8  O   UNL     1      37.947 -19.030 -21.313  0.00  0.00    -0.246 OA
ATOM      9  N   UNL     1      35.561 -19.147 -21.197  0.00  0.00    -0.263 N 
ATOM     10  N   UNL     1      36.811 -20.691 -20.079  0.00  0.00    -0.305 N 
ATOM     11  C   UNL     1      34.692 -20.034 -20.534  0.00  0.00    +0.083 A 
ATOM     12  C   UNL     1      36.910 -19.548 -20.920  0.00  0.00    +0.332 A 
ATOM     13  C   UNL     1      35.465 -20.973 -19.854  0.00  0.00    +0.076 A 
ATOM     14  C   UNL     1      33.313 -20.076 -20.486  0.00  0.00    +0.019 C 
ATOM     15  C   UNL     1      34.912 -21.986 -19.103  0.00  0.00    +0.019 C 
ATOM     16  C   UNL     1      32.726 -21.096 -19.730  0.00  0.00    +0.002 C 
ATOM     17  C   UNL     1      33.518 -22.041 -19.045  0.00  0.00    +0.002 C 
ATOM     18  H   UNL     1      37.571 -21.200 -19.714  0.00  0.00    +0.170 HD
ENDBRANCH   5   9
BRANCH   1  19
ATOM     19  C   UNL     1      33.851 -14.886 -24.438  0.00  0.00    -0.076 C 
BRANCH  19  20
ATOM     20  C   UNL     1      33.804 -13.618 -23.584  0.00  0.00    -0.015 C 
BRANCH  20  21
ATOM     21  C   UNL     1      32.370 -13.198 -23.246  0.00  0.00    +0.067 C 
BRANCH  21  23
ATOM     22  O   UNL     1      32.009 -14.128 -21.048  0.00  0.00    -0.291 OA
ATOM     23  C   UNL     1      32.099 -13.123 -21.750  0.00  0.00    +0.173 C 
BRANCH  23  25
ATOM     24  F   UNL     1      31.578  -8.096 -19.377  0.00  0.00    -0.204 F 
ATOM     25  C   UNL     1      31.958 -11.781 -21.116  0.00  0.00    +0.035 C 
ATOM     26  C   UNL     1      32.037 -10.662 -21.914  0.00  0.00    +0.005 C 
ATOM     27  C   UNL     1      31.757 -11.710 -19.756  0.00  0.00    +0.005 C 
ATOM     28  C   UNL     1      31.908  -9.406 -21.321  0.00  0.00    +0.030 C 
ATOM     29  C   UNL     1      31.627 -10.454 -19.162  0.00  0.00    +0.030 C 
ATOM     30  C   UNL     1      31.703  -9.302 -19.946  0.00  0.00    +0.140 C 
ENDBRANCH  23  25
ENDBRANCH  21  23
ENDBRANCH  20  21
ENDBRANCH  19  20
ENDBRANCH   1  19
TORSDOF 6
ENDMDL
MODEL 6
REMARK VINA RESULT:     -11.4      3.228      5.287
REMARK  Name = 3168
REMARK  6 active torsions:
REMARK  status: ('A' for Active; 'I' for Inactive)
REMARK    1  A    between atoms: N_1  and  C_19
REMARK    2  A    between atoms: C_5  and  N_9
REMARK    3  A    between atoms: C_19  and  C_20
REMARK    4  A    between atoms: C_20  and  C_21
REMARK    5  A    between atoms: C_21  and  C_23
REMARK    6  A    between atoms: C_23  and  C_25
REMARK                            x       y       z     vdW  Elec       q    Type
REMARK                         _______ _______ _______ _____ _____    ______ ____
ROOT
ATOM      1  N   UNL     1      31.979 -12.250 -22.825  0.00  0.00    +0.390 N 
ATOM      2  C   UNL     1      31.671 -11.909 -21.431  0.00  0.00    -0.071 C 
ATOM      3  C   UNL     1      31.224 -10.442 -21.327  0.00  0.00    +0.021 C 
ATOM      4  C   UNL     1      33.105 -11.442 -23.325  0.00  0.00    -0.049 C 
ATOM      5  C   UNL     1      32.109  -9.512 -22.108  0.00  0.00    +0.037 C 
ATOM      6  C   UNL     1      32.983  -9.976 -23.014  0.00  0.00    -0.036 C 
ATOM      7  H   UNL     1      31.157 -12.036 -23.388  0.00  0.00    -0.079 HD
ENDROOT
BRANCH   5   9
ATOM      8  O   UNL     1      32.542  -8.078 -19.518  0.00  0.00    -0.246 OA
ATOM      9  N   UNL     1      31.996  -8.177 -21.844  0.00  0.00    -0.263 N 
ATOM     10  N   UNL     1      31.986  -6.162 -20.779  0.00  0.00    -0.305 N 
ATOM     11  C   UNL     1      31.642  -7.179 -22.772  0.00  0.00    +0.083 A 
ATOM     12  C   UNL     1      32.218  -7.551 -20.573  0.00  0.00    +0.332 A 
ATOM     13  C   UNL     1      31.639  -5.952 -22.111  0.00  0.00    +0.076 A 
ATOM     14  C   UNL     1      31.331  -7.267 -24.114  0.00  0.00    +0.019 C 
ATOM     15  C   UNL     1      31.331  -4.768 -22.745  0.00  0.00    +0.019 C 
ATOM     16  C   UNL     1      31.014  -6.078 -24.780  0.00  0.00    +0.002 C 
ATOM     17  C   UNL     1      31.014  -4.842 -24.102  0.00  0.00    +0.002 C 
ATOM     18  H   UNL     1      32.060  -5.462 -20.090  0.00  0.00    +0.170 HD
ENDBRANCH   5   9
BRANCH   1  19
ATOM     19  C   UNL     1      32.263 -13.677 -22.966  0.00  0.00    -0.076 C 
BRANCH  19  20
ATOM     20  C   UNL     1      32.810 -14.240 -21.653  0.00  0.00    -0.015 C 
BRANCH  20  21
ATOM     21  C   UNL     1      34.319 -14.495 -21.714  0.00  0.00    +0.067 C 
BRANCH  21  23
ATOM     22  O   UNL     1      34.986 -16.087 -20.027  0.00  0.00    -0.291 OA
ATOM     23  C   UNL     1      34.720 -15.873 -21.207  0.00  0.00    +0.173 C 
BRANCH  23  25
ATOM     24  F   UNL     1      34.917 -20.110 -24.838  0.00  0.00    -0.204 F 
ATOM     25  C   UNL     1      34.771 -17.004 -22.178  0.00  0.00    +0.035 C 
ATOM     26  C   UNL     1      34.707 -18.292 -21.694  0.00  0.00    +0.005 C 
ATOM     27  C   UNL     1      34.882 -16.720 -23.520  0.00  0.00    +0.005 C 
ATOM     28  C   UNL     1      34.757 -19.351 -22.601  0.00  0.00    +0.030 C 
ATOM     29  C   UNL     1      34.932 -17.778 -24.427  0.00  0.00    +0.030 C 
ATOM     30  C   UNL     1      34.869 -19.094 -23.968  0.00  0.00    +0.140 C 
ENDBRANCH  23  25
ENDBRANCH  21  23
ENDBRANCH  20  21
ENDBRANCH  19  20
ENDBRANCH   1  19
TORSDOF 6
ENDMDL
MODEL 7
REMARK VINA RESULT:     -11.3      3.542      6.377
REMARK  Name = 3168
REMARK  6 active torsions:
REMARK  status: ('A' for Active; 'I' for Inactive)
REMARK    1  A    between atoms: N_1  and  C_19
REMARK    2  A    between atoms: C_5  and  N_9
REMARK    3  A    between atoms: C_19  and  C_20
REMARK    4  A    between atoms: C_20  and  C_21
REMARK    5  A    between atoms: C_21  and  C_23
REMARK    6  A    between atoms: C_23  and  C_25
REMARK                            x       y       z     vdW  Elec       q    Type
REMARK                         _______ _______ _______ _____ _____    ______ ____
ROOT
ATOM      1  N   UNL     1      35.471 -20.628 -19.469  0.00  0.00    +0.390 N 
ATOM      2  C   UNL     1      36.592 -20.384 -20.386  0.00  0.00    -0.071 C 
ATOM      3  C   UNL     1      36.380 -19.066 -21.146  0.00  0.00    +0.021 C 
ATOM      4  C   UNL     1      34.210 -20.782 -20.213  0.00  0.00    -0.049 C 
ATOM      5  C   UNL     1      34.981 -18.922 -21.677  0.00  0.00    +0.037 C 
ATOM      6  C   UNL     1      33.990 -19.722 -21.258  0.00  0.00    -0.036 C 
ATOM      7  H   UNL     1      35.386 -19.817 -18.858  0.00  0.00    -0.079 HD
ENDROOT
BRANCH   5   9
ATOM      8  O   UNL     1      34.870 -19.200 -24.654  0.00  0.00    -0.246 OA
ATOM      9  N   UNL     1      34.768 -17.953 -22.616  0.00  0.00    -0.263 N 
ATOM     10  N   UNL     1      34.480 -16.873 -24.602  0.00  0.00    -0.305 N 
ATOM     11  C   UNL     1      34.551 -16.587 -22.357  0.00  0.00    +0.083 A 
ATOM     12  C   UNL     1      34.727 -18.154 -24.035  0.00  0.00    +0.332 A 
ATOM     13  C   UNL     1      34.376 -15.935 -23.576  0.00  0.00    +0.076 A 
ATOM     14  C   UNL     1      34.498 -15.894 -21.164  0.00  0.00    +0.019 C 
ATOM     15  C   UNL     1      34.143 -14.581 -23.668  0.00  0.00    +0.019 C 
ATOM     16  C   UNL     1      34.262 -14.516 -21.231  0.00  0.00    +0.002 C 
ATOM     17  C   UNL     1      34.086 -13.867 -22.470  0.00  0.00    +0.002 C 
ATOM     18  H   UNL     1      34.396 -16.679 -25.564  0.00  0.00    +0.170 HD
ENDBRANCH   5   9
BRANCH   1  19
ATOM     19  C   UNL     1      35.723 -21.799 -18.631  0.00  0.00    -0.076 C 
BRANCH  19  20
ATOM     20  C   UNL     1      34.550 -22.776 -18.722  0.00  0.00    -0.015 C 
BRANCH  20  21
ATOM     21  C   UNL     1      34.029 -23.189 -17.342  0.00  0.00    +0.067 C 
BRANCH  21  23
ATOM     22  O   UNL     1      31.867 -22.345 -18.003  0.00  0.00    -0.291 OA
ATOM     23  C   UNL     1      32.549 -22.898 -17.143  0.00  0.00    +0.173 C 
BRANCH  23  25
ATOM     24  F   UNL     1      30.137 -24.471 -12.360  0.00  0.00    -0.204 F 
ATOM     25  C   UNL     1      31.903 -23.316 -15.866  0.00  0.00    +0.035 C 
ATOM     26  C   UNL     1      32.630 -23.228 -14.700  0.00  0.00    +0.005 C 
ATOM     27  C   UNL     1      30.607 -23.778 -15.900  0.00  0.00    +0.005 C 
ATOM     28  C   UNL     1      32.027 -23.622 -13.504  0.00  0.00    +0.030 C 
ATOM     29  C   UNL     1      30.004 -24.172 -14.705  0.00  0.00    +0.030 C 
ATOM     30  C   UNL     1      30.715 -24.093 -13.507  0.00  0.00    +0.140 C 
ENDBRANCH  23  25
ENDBRANCH  21  23
ENDBRANCH  20  21
ENDBRANCH  19  20
ENDBRANCH   1  19
TORSDOF 6
ENDMDL
MODEL 8
REMARK VINA RESULT:     -11.2      3.516      6.588
REMARK  Name = 3168
REMARK  6 active torsions:
REMARK  status: ('A' for Active; 'I' for Inactive)
REMARK    1  A    between atoms: N_1  and  C_19
REMARK    2  A    between atoms: C_5  and  N_9
REMARK    3  A    between atoms: C_19  and  C_20
REMARK    4  A    between atoms: C_20  and  C_21
REMARK    5  A    between atoms: C_21  and  C_23
REMARK    6  A    between atoms: C_23  and  C_25
REMARK                            x       y       z     vdW  Elec       q    Type
REMARK                         _______ _______ _______ _____ _____    ______ ____
ROOT
ATOM      1  N   UNL     1      34.420 -21.672 -19.868  0.00  0.00    +0.390 N 
ATOM      2  C   UNL     1      33.281 -20.748 -19.817  0.00  0.00    -0.071 C 
ATOM      3  C   UNL     1      33.238 -19.884 -21.087  0.00  0.00    +0.021 C 
ATOM      4  C   UNL     1      35.693 -20.934 -19.905  0.00  0.00    -0.049 C 
ATOM      5  C   UNL     1      34.586 -19.333 -21.458  0.00  0.00    +0.037 C 
ATOM      6  C   UNL     1      35.711 -19.807 -20.901  0.00  0.00    -0.036 C 
ATOM      7  H   UNL     1      34.341 -22.217 -20.727  0.00  0.00    -0.079 HD
ENDROOT
BRANCH   5   9
ATOM      8  O   UNL     1      34.889 -19.506 -24.430  0.00  0.00    -0.246 OA
ATOM      9  N   UNL     1      34.615 -18.319 -22.372  0.00  0.00    -0.263 N 
ATOM     10  N   UNL     1      34.735 -17.153 -24.327  0.00  0.00    -0.305 N 
ATOM     11  C   UNL     1      34.502 -16.945 -22.084  0.00  0.00    +0.083 A 
ATOM     12  C   UNL     1      34.763 -18.470 -23.790  0.00  0.00    +0.332 A 
ATOM     13  C   UNL     1      34.577 -16.242 -23.285  0.00  0.00    +0.076 A 
ATOM     14  C   UNL     1      34.344 -16.288 -20.881  0.00  0.00    +0.019 C 
ATOM     15  C   UNL     1      34.499 -14.868 -23.347  0.00  0.00    +0.019 C 
ATOM     16  C   UNL     1      34.263 -14.891 -20.917  0.00  0.00    +0.002 C 
ATOM     17  C   UNL     1      34.339 -14.189 -22.137  0.00  0.00    +0.002 C 
ATOM     18  H   UNL     1      34.814 -16.922 -25.281  0.00  0.00    +0.170 HD
ENDBRANCH   5   9
BRANCH   1  19
ATOM     19  C   UNL     1      34.394 -22.602 -18.741  0.00  0.00    -0.076 C 
BRANCH  19  20
ATOM     20  C   UNL     1      33.086 -22.451 -17.962  0.00  0.00    -0.015 C 
BRANCH  20  21
ATOM     21  C   UNL     1      32.853 -23.608 -16.986  0.00  0.00    +0.067 C 
BRANCH  21  23
ATOM     22  O   UNL     1      32.771 -22.930 -14.670  0.00  0.00    -0.291 OA
ATOM     23  C   UNL     1      33.443 -23.361 -15.605  0.00  0.00    +0.173 C 
BRANCH  23  25
ATOM     24  F   UNL     1      38.836 -24.527 -14.747  0.00  0.00    -0.204 F 
ATOM     25  C   UNL     1      34.884 -23.672 -15.377  0.00  0.00    +0.035 C 
ATOM     26  C   UNL     1      35.244 -24.974 -15.113  0.00  0.00    +0.005 C 
ATOM     27  C   UNL     1      35.800 -22.646 -15.438  0.00  0.00    +0.005 C 
ATOM     28  C   UNL     1      36.591 -25.266 -14.898  0.00  0.00    +0.030 C 
ATOM     29  C   UNL     1      37.147 -22.936 -15.223  0.00  0.00    +0.030 C 
ATOM     30  C   UNL     1      37.543 -24.247 -14.953  0.00  0.00    +0.140 C 
ENDBRANCH  23  25
ENDBRANCH  21  23
ENDBRANCH  20  21
ENDBRANCH  19  20
ENDBRANCH   1  19
TORSDOF 6
ENDMDL
MODEL 9
REMARK VINA RESULT:     -11.2      4.368      7.037
REMARK  Name = 3168
REMARK  6 active torsions:
REMARK  status: ('A' for Active; 'I' for Inactive)
REMARK    1  A    between atoms: N_1  and  C_19
REMARK    2  A    between atoms: C_5  and  N_9
REMARK    3  A    between atoms: C_19  and  C_20
REMARK    4  A    between atoms: C_20  and  C_21
REMARK    5  A    between atoms: C_21  and  C_23
REMARK    6  A    between atoms: C_23  and  C_25
REMARK                            x       y       z     vdW  Elec       q    Type
REMARK                         _______ _______ _______ _____ _____    ______ ____
ROOT
ATOM      1  N   UNL     1      34.933 -21.060 -19.306  0.00  0.00    +0.390 N 
ATOM      2  C   UNL     1      36.070 -20.998 -20.232  0.00  0.00    -0.071 C 
ATOM      3  C   UNL     1      36.089 -19.646 -20.963  0.00  0.00    +0.021 C 
ATOM      4  C   UNL     1      33.658 -20.972 -20.037  0.00  0.00    -0.049 C 
ATOM      5  C   UNL     1      34.733 -19.246 -21.473  0.00  0.00    +0.037 C 
ATOM      6  C   UNL     1      33.620 -19.868 -21.057  0.00  0.00    -0.036 C 
ATOM      7  H   UNL     1      34.998 -20.260 -18.677  0.00  0.00    -0.079 HD
ENDROOT
BRANCH   5   9
ATOM      8  O   UNL     1      34.862 -19.424 -24.457  0.00  0.00    -0.246 OA
ATOM      9  N   UNL     1      34.686 -18.235 -22.390  0.00  0.00    -0.263 N 
ATOM     10  N   UNL     1      34.667 -17.074 -24.351  0.00  0.00    -0.305 N 
ATOM     11  C   UNL     1      34.563 -16.863 -22.099  0.00  0.00    +0.083 A 
ATOM     12  C   UNL     1      34.754 -18.389 -23.813  0.00  0.00    +0.332 A 
ATOM     13  C   UNL     1      34.552 -16.163 -23.304  0.00  0.00    +0.076 A 
ATOM     14  C   UNL     1      34.463 -16.204 -20.890  0.00  0.00    +0.019 C 
ATOM     15  C   UNL     1      34.443 -14.791 -23.364  0.00  0.00    +0.019 C 
ATOM     16  C   UNL     1      34.351 -14.810 -20.925  0.00  0.00    +0.002 C 
ATOM     17  C   UNL     1      34.341 -14.111 -22.149  0.00  0.00    +0.002 C 
ATOM     18  H   UNL     1      34.685 -16.845 -25.309  0.00  0.00    +0.170 HD
ENDBRANCH   5   9
BRANCH   1  19
ATOM     19  C   UNL     1      34.981 -22.275 -18.495  0.00  0.00    -0.076 C 
BRANCH  19  20
ATOM     20  C   UNL     1      36.002 -22.117 -17.367  0.00  0.00    -0.015 C 
BRANCH  20  21
ATOM     21  C   UNL     1      35.596 -22.881 -16.103  0.00  0.00    +0.067 C 
BRANCH  21  23
ATOM     22  O   UNL     1      37.906 -22.834 -15.403  0.00  0.00    -0.291 OA
ATOM     23  C   UNL     1      36.732 -23.043 -15.103  0.00  0.00    +0.173 C 
BRANCH  23  25
ATOM     24  F   UNL     1      35.494 -24.565  -9.876  0.00  0.00    -0.204 F 
ATOM     25  C   UNL     1      36.403 -23.450 -13.708  0.00  0.00    +0.035 C 
ATOM     26  C   UNL     1      35.162 -23.989 -13.453  0.00  0.00    +0.005 C 
ATOM     27  C   UNL     1      37.350 -23.272 -12.725  0.00  0.00    +0.005 C 
ATOM     28  C   UNL     1      34.852 -24.369 -12.147  0.00  0.00    +0.030 C 
ATOM     29  C   UNL     1      37.041 -23.651 -11.419  0.00  0.00    +0.030 C 
ATOM     30  C   UNL     1      35.791 -24.200 -11.130  0.00  0.00    +0.140 C 
ENDBRANCH  23  25
ENDBRANCH  21  23
ENDBRANCH  20  21
ENDBRANCH  19  20
ENDBRANCH   1  19
TORSDOF 6
ENDMDL
