MODEL 1
REMARK VINA RESULT:     -13.5      0.000      0.000
REMARK  Name = 71351
REMARK  4 active torsions:
REMARK  status: ('A' for Active; 'I' for Inactive)
REMARK    1  A    between atoms: N_1  and  C_18
REMARK    2  A    between atoms: C_2  and  C_11
REMARK    3  A    between atoms: C_18  and  C_19
REMARK    4  A    between atoms: C_19  and  C_23
REMARK                            x       y       z     vdW  Elec       q    Type
REMARK                         _______ _______ _______ _____ _____    ______ ____
ROOT
ATOM      1  N   UNL     1      34.426 -15.179 -23.505  0.00  0.00    +0.387 N 
ATOM      2  C   UNL     1      34.514 -17.769 -22.130  0.00  0.00    +0.039 C 
ATOM      3  C   UNL     1      34.312 -16.443 -21.379  0.00  0.00    -0.017 C 
ATOM      4  C   UNL     1      35.252 -17.512 -23.455  0.00  0.00    -0.017 C 
ATOM      5  C   UNL     1      33.650 -15.393 -22.276  0.00  0.00    -0.077 C 
ATOM      6  C   UNL     1      34.554 -16.423 -24.275  0.00  0.00    -0.077 C 
ATOM      7  H   UNL     1      35.363 -14.876 -23.237  0.00  0.00    -0.080 HD
ENDROOT
BRANCH   2  11
ATOM      8  F   UNL     1      34.061 -23.217 -18.214  0.00  0.00    -0.204 F 
ATOM      9  O   UNL     1      36.808 -19.880 -20.323  0.00  0.00    -0.354 OA
ATOM     10  N   UNL     1      36.514 -18.800 -21.145  0.00  0.00    -0.081 NA
ATOM     11  C   UNL     1      35.190 -18.823 -21.282  0.00  0.00    +0.100 A 
ATOM     12  C   UNL     1      34.583 -19.878 -20.584  0.00  0.00    +0.054 A 
ATOM     13  C   UNL     1      35.655 -20.522 -19.990  0.00  0.00    +0.179 A 
ATOM     14  C   UNL     1      33.288 -20.373 -20.374  0.00  0.00    +0.007 C 
ATOM     15  C   UNL     1      35.542 -21.649 -19.182  0.00  0.00    +0.070 C 
ATOM     16  C   UNL     1      33.137 -21.509 -19.565  0.00  0.00    +0.030 C 
ATOM     17  C   UNL     1      34.245 -22.133 -18.981  0.00  0.00    +0.143 C 
ENDBRANCH   2  11
BRANCH   1  18
ATOM     18  C   UNL     1      33.811 -14.132 -24.322  0.00  0.00    -0.076 C 
BRANCH  18  19
ATOM     19  C   UNL     1      32.639 -13.514 -23.574  0.00  0.00    -0.007 C 
BRANCH  19  23
ATOM     20  O   UNL     1      31.732 -12.197 -21.307  0.00  0.00    -0.274 OA
ATOM     21  N   UNL     1      32.439 -10.076 -21.989  0.00  0.00    -0.211 N 
ATOM     22  N   UNL     1      33.586  -9.851 -24.056  0.00  0.00    -0.395 NA
ATOM     23  C   UNL     1      32.843 -12.039 -23.387  0.00  0.00    +0.123 C 
ATOM     24  C   UNL     1      33.455 -11.203 -24.249  0.00  0.00    +0.097 C 
ATOM     25  C   UNL     1      32.280 -11.459 -22.126  0.00  0.00    +0.241 C 
ATOM     26  C   UNL     1      33.094  -9.328 -22.975  0.00  0.00    +0.188 C 
ATOM     27  C   UNL     1      34.094 -11.676 -25.529  0.00  0.00    +0.062 C 
ATOM     28  C   UNL     1      33.222  -7.845 -22.742  0.00  0.00    +0.023 C 
ATOM     29  C   UNL     1      31.936  -9.458 -20.849  0.00  0.00    +0.074 C 
ATOM     30  C   UNL     1      32.711  -7.322 -21.618  0.00  0.00    +0.001 C 
ATOM     31  C   UNL     1      32.051  -8.144 -20.644  0.00  0.00    +0.016 C 
ATOM     32  C   UNL     1      33.916  -7.020 -23.781  0.00  0.00    +0.035 C 
ENDBRANCH  19  23
ENDBRANCH  18  19
ENDBRANCH   1  18
TORSDOF 4
ENDMDL
MODEL 2
REMARK VINA RESULT:     -13.4      3.286      6.169
REMARK  Name = 71351
REMARK  4 active torsions:
REMARK  status: ('A' for Active; 'I' for Inactive)
REMARK    1  A    between atoms: N_1  and  C_18
REMARK    2  A    between atoms: C_2  and  C_11
REMARK    3  A    between atoms: C_18  and  C_19
REMARK    4  A    between atoms: C_19  and  C_23
REMARK                            x       y       z     vdW  Elec       q    Type
REMARK                         _______ _______ _______ _____ _____    ______ ____
ROOT
ATOM      1  N   UNL     1      34.450 -20.125 -20.646  0.00  0.00    +0.387 N 
ATOM      2  C   UNL     1      34.335 -22.326 -18.709  0.00  0.00    +0.039 C 
ATOM      3  C   UNL     1      33.124 -21.427 -19.011  0.00  0.00    -0.017 C 
ATOM      4  C   UNL     1      35.636 -21.570 -19.024  0.00  0.00    -0.017 C 
ATOM      5  C   UNL     1      33.195 -20.858 -20.430  0.00  0.00    -0.077 C 
ATOM      6  C   UNL     1      35.615 -20.997 -20.443  0.00  0.00    -0.077 C 
ATOM      7  H   UNL     1      34.497 -19.372 -19.959  0.00  0.00    -0.080 HD
ENDROOT
BRANCH   2  11
ATOM      8  F   UNL     1      30.826 -24.507 -13.403  0.00  0.00    -0.204 F 
ATOM      9  O   UNL     1      35.094 -23.620 -15.433  0.00  0.00    -0.354 OA
ATOM     10  N   UNL     1      35.461 -23.117 -16.676  0.00  0.00    -0.081 NA
ATOM     11  C   UNL     1      34.311 -22.886 -17.305  0.00  0.00    +0.100 A 
ATOM     12  C   UNL     1      33.186 -23.214 -16.533  0.00  0.00    +0.054 A 
ATOM     13  C   UNL     1      33.737 -23.677 -15.351  0.00  0.00    +0.179 A 
ATOM     14  C   UNL     1      31.790 -23.183 -16.669  0.00  0.00    +0.007 C 
ATOM     15  C   UNL     1      32.995 -24.124 -14.262  0.00  0.00    +0.070 C 
ATOM     16  C   UNL     1      31.011 -23.628 -15.592  0.00  0.00    +0.030 C 
ATOM     17  C   UNL     1      31.604 -24.090 -14.412  0.00  0.00    +0.143 C 
ENDBRANCH   2  11
BRANCH   1  18
ATOM     18  C   UNL     1      34.476 -19.540 -21.987  0.00  0.00    -0.076 C 
BRANCH  18  19
ATOM     19  C   UNL     1      35.496 -18.412 -22.039  0.00  0.00    -0.007 C 
BRANCH  19  23
ATOM     20  O   UNL     1      34.801 -18.138 -24.711  0.00  0.00    -0.274 OA
ATOM     21  N   UNL     1      34.035 -15.939 -24.513  0.00  0.00    -0.211 N 
ATOM     22  N   UNL     1      34.055 -14.897 -22.379  0.00  0.00    -0.395 NA
ATOM     23  C   UNL     1      34.873 -17.151 -22.564  0.00  0.00    +0.123 C 
ATOM     24  C   UNL     1      34.589 -16.045 -21.850  0.00  0.00    +0.097 C 
ATOM     25  C   UNL     1      34.572 -17.137 -24.032  0.00  0.00    +0.241 C 
ATOM     26  C   UNL     1      33.798 -14.861 -23.651  0.00  0.00    +0.188 C 
ATOM     27  C   UNL     1      34.809 -15.955 -20.362  0.00  0.00    +0.062 C 
ATOM     28  C   UNL     1      33.214 -13.612 -24.256  0.00  0.00    +0.023 C 
ATOM     29  C   UNL     1      33.736 -15.841 -25.867  0.00  0.00    +0.074 C 
ATOM     30  C   UNL     1      32.953 -13.593 -25.572  0.00  0.00    +0.001 C 
ATOM     31  C   UNL     1      33.218 -14.733 -26.402  0.00  0.00    +0.016 C 
ATOM     32  C   UNL     1      32.952 -12.442 -23.358  0.00  0.00    +0.035 C 
ENDBRANCH  19  23
ENDBRANCH  18  19
ENDBRANCH   1  18
TORSDOF 4
ENDMDL
MODEL 3
REMARK VINA RESULT:     -13.4      3.364      6.339
REMARK  Name = 71351
REMARK  4 active torsions:
REMARK  status: ('A' for Active; 'I' for Inactive)
REMARK    1  A    between atoms: N_1  and  C_18
REMARK    2  A    between atoms: C_2  and  C_11
REMARK    3  A    between atoms: C_18  and  C_19
REMARK    4  A    between atoms: C_19  and  C_23
REMARK                            x       y       z     vdW  Elec       q    Type
REMARK                         _______ _______ _______ _____ _____    ______ ____
ROOT
ATOM      1  N   UNL     1      34.535 -20.472 -20.285  0.00  0.00    +0.387 N 
ATOM      2  C   UNL     1      34.267 -22.625 -18.311  0.00  0.00    +0.039 C 
ATOM      3  C   UNL     1      33.091 -21.717 -18.707  0.00  0.00    -0.017 C 
ATOM      4  C   UNL     1      35.597 -21.896 -18.561  0.00  0.00    -0.017 C 
ATOM      5  C   UNL     1      33.258 -21.181 -20.131  0.00  0.00    -0.077 C 
ATOM      6  C   UNL     1      35.672 -21.354 -19.991  0.00  0.00    -0.077 C 
ATOM      7  H   UNL     1      34.551 -19.704 -19.614  0.00  0.00    -0.080 HD
ENDROOT
BRANCH   2  11
ATOM      8  F   UNL     1      30.410 -24.331 -13.073  0.00  0.00    -0.204 F 
ATOM      9  O   UNL     1      34.800 -23.926 -14.993  0.00  0.00    -0.354 OA
ATOM     10  N   UNL     1      35.250 -23.488 -16.234  0.00  0.00    -0.081 NA
ATOM     11  C   UNL     1      34.147 -23.152 -16.899  0.00  0.00    +0.100 A 
ATOM     12  C   UNL     1      32.974 -23.348 -16.155  0.00  0.00    +0.054 A 
ATOM     13  C   UNL     1      33.442 -23.842 -14.950  0.00  0.00    +0.179 A 
ATOM     14  C   UNL     1      31.593 -23.177 -16.331  0.00  0.00    +0.007 C 
ATOM     15  C   UNL     1      32.629 -24.190 -13.876  0.00  0.00    +0.070 C 
ATOM     16  C   UNL     1      30.743 -23.519 -15.269  0.00  0.00    +0.030 C 
ATOM     17  C   UNL     1      31.254 -24.016 -14.065  0.00  0.00    +0.143 C 
ENDBRANCH   2  11
BRANCH   1  18
ATOM     18  C   UNL     1      34.653 -19.917 -21.635  0.00  0.00    -0.076 C 
BRANCH  18  19
ATOM     19  C   UNL     1      35.541 -18.682 -21.610  0.00  0.00    -0.007 C 
BRANCH  19  23
ATOM     20  O   UNL     1      35.036 -16.097 -20.737  0.00  0.00    -0.274 OA
ATOM     21  N   UNL     1      34.233 -15.326 -22.792  0.00  0.00    -0.211 N 
ATOM     22  N   UNL     1      34.209 -16.804 -24.651  0.00  0.00    -0.395 NA
ATOM     23  C   UNL     1      35.014 -17.627 -22.539  0.00  0.00    +0.123 C 
ATOM     24  C   UNL     1      34.728 -17.786 -23.846  0.00  0.00    +0.097 C 
ATOM     25  C   UNL     1      34.767 -16.283 -21.924  0.00  0.00    +0.241 C 
ATOM     26  C   UNL     1      33.977 -15.636 -24.133  0.00  0.00    +0.188 C 
ATOM     27  C   UNL     1      34.972 -19.078 -24.583  0.00  0.00    +0.062 C 
ATOM     28  C   UNL     1      33.405 -14.541 -24.995  0.00  0.00    +0.023 C 
ATOM     29  C   UNL     1      33.966 -14.054 -22.296  0.00  0.00    +0.074 C 
ATOM     30  C   UNL     1      33.174 -13.340 -24.445  0.00  0.00    +0.001 C 
ATOM     31  C   UNL     1      33.459 -13.085 -23.063  0.00  0.00    +0.016 C 
ATOM     32  C   UNL     1      33.119 -14.846 -26.434  0.00  0.00    +0.035 C 
ENDBRANCH  19  23
ENDBRANCH  18  19
ENDBRANCH   1  18
TORSDOF 4
ENDMDL
MODEL 4
REMARK VINA RESULT:     -13.4      1.048      2.020
REMARK  Name = 71351
REMARK  4 active torsions:
REMARK  status: ('A' for Active; 'I' for Inactive)
REMARK    1  A    between atoms: N_1  and  C_18
REMARK    2  A    between atoms: C_2  and  C_11
REMARK    3  A    between atoms: C_18  and  C_19
REMARK    4  A    between atoms: C_19  and  C_23
REMARK                            x       y       z     vdW  Elec       q    Type
REMARK                         _______ _______ _______ _____ _____    ______ ____
ROOT
ATOM      1  N   UNL     1      34.510 -14.818 -23.178  0.00  0.00    +0.387 N 
ATOM      2  C   UNL     1      34.490 -17.479 -21.945  0.00  0.00    +0.039 C 
ATOM      3  C   UNL     1      34.557 -16.186 -21.116  0.00  0.00    -0.017 C 
ATOM      4  C   UNL     1      35.052 -17.227 -23.354  0.00  0.00    -0.017 C 
ATOM      5  C   UNL     1      33.901 -15.018 -21.856  0.00  0.00    -0.077 C 
ATOM      6  C   UNL     1      34.377 -16.020 -24.011  0.00  0.00    -0.077 C 
ATOM      7  H   UNL     1      35.505 -14.637 -23.043  0.00  0.00    -0.080 HD
ENDROOT
BRANCH   2  11
ATOM      8  F   UNL     1      33.952 -23.299 -18.617  0.00  0.00    -0.204 F 
ATOM      9  O   UNL     1      36.759 -19.882 -20.508  0.00  0.00    -0.354 OA
ATOM     10  N   UNL     1      36.480 -18.704 -21.192  0.00  0.00    -0.081 NA
ATOM     11  C   UNL     1      35.152 -18.650 -21.255  0.00  0.00    +0.100 A 
ATOM     12  C   UNL     1      34.527 -19.747 -20.641  0.00  0.00    +0.054 A 
ATOM     13  C   UNL     1      35.592 -20.502 -20.182  0.00  0.00    +0.179 A 
ATOM     14  C   UNL     1      33.220 -20.201 -20.412  0.00  0.00    +0.007 C 
ATOM     15  C   UNL     1      35.463 -21.704 -19.494  0.00  0.00    +0.070 C 
ATOM     16  C   UNL     1      33.052 -21.411 -19.722  0.00  0.00    +0.030 C 
ATOM     17  C   UNL     1      34.154 -22.147 -19.273  0.00  0.00    +0.143 C 
ENDBRANCH   2  11
BRANCH   1  18
ATOM     18  C   UNL     1      33.911 -13.662 -23.847  0.00  0.00    -0.076 C 
BRANCH  18  19
ATOM     19  C   UNL     1      32.666 -13.216 -23.094  0.00  0.00    -0.007 C 
BRANCH  19  23
ATOM     20  O   UNL     1      34.272 -11.555 -24.630  0.00  0.00    -0.274 OA
ATOM     21  N   UNL     1      33.603  -9.575 -23.582  0.00  0.00    -0.211 N 
ATOM     22  N   UNL     1      31.963  -9.674 -21.867  0.00  0.00    -0.395 NA
ATOM     23  C   UNL     1      32.657 -11.726 -22.913  0.00  0.00    +0.123 C 
ATOM     24  C   UNL     1      31.912 -11.036 -22.027  0.00  0.00    +0.097 C 
ATOM     25  C   UNL     1      33.592 -10.957 -23.795  0.00  0.00    +0.241 C 
ATOM     26  C   UNL     1      32.777  -8.992 -22.615  0.00  0.00    +0.188 C 
ATOM     27  C   UNL     1      30.909 -11.694 -21.116  0.00  0.00    +0.062 C 
ATOM     28  C   UNL     1      32.853  -7.496 -22.456  0.00  0.00    +0.023 C 
ATOM     29  C   UNL     1      34.452  -8.790 -24.355  0.00  0.00    +0.074 C 
ATOM     30  C   UNL     1      33.696  -6.806 -23.238  0.00  0.00    +0.001 C 
ATOM     31  C   UNL     1      34.518  -7.464 -24.213  0.00  0.00    +0.016 C 
ATOM     32  C   UNL     1      31.981  -6.844 -21.427  0.00  0.00    +0.035 C 
ENDBRANCH  19  23
ENDBRANCH  18  19
ENDBRANCH   1  18
TORSDOF 4
ENDMDL
MODEL 5
REMARK VINA RESULT:     -13.2      4.606     11.134
REMARK  Name = 71351
REMARK  4 active torsions:
REMARK  status: ('A' for Active; 'I' for Inactive)
REMARK    1  A    between atoms: N_1  and  C_18
REMARK    2  A    between atoms: C_2  and  C_11
REMARK    3  A    between atoms: C_18  and  C_19
REMARK    4  A    between atoms: C_19  and  C_23
REMARK                            x       y       z     vdW  Elec       q    Type
REMARK                         _______ _______ _______ _____ _____    ______ ____
ROOT
ATOM      1  N   UNL     1      35.914 -19.587 -20.241  0.00  0.00    +0.387 N 
ATOM      2  C   UNL     1      35.195 -18.712 -22.947  0.00  0.00    +0.039 C 
ATOM      3  C   UNL     1      36.475 -18.237 -22.239  0.00  0.00    -0.017 C 
ATOM      4  C   UNL     1      34.141 -19.119 -21.905  0.00  0.00    -0.017 C 
ATOM      5  C   UNL     1      36.962 -19.271 -21.221  0.00  0.00    -0.077 C 
ATOM      6  C   UNL     1      34.715 -20.122 -20.900  0.00  0.00    -0.077 C 
ATOM      7  H   UNL     1      35.653 -18.720 -19.769  0.00  0.00    -0.080 HD
ENDROOT
BRANCH   2  11
ATOM      8  F   UNL     1      33.258 -12.426 -24.348  0.00  0.00    -0.204 F 
ATOM      9  O   UNL     1      33.961 -16.945 -25.836  0.00  0.00    -0.354 OA
ATOM     10  N   UNL     1      34.421 -18.088 -25.192  0.00  0.00    -0.081 NA
ATOM     11  C   UNL     1      34.670 -17.703 -23.943  0.00  0.00    +0.100 A 
ATOM     12  C   UNL     1      34.396 -16.345 -23.722  0.00  0.00    +0.054 A 
ATOM     13  C   UNL     1      33.948 -15.907 -24.956  0.00  0.00    +0.179 A 
ATOM     14  C   UNL     1      34.464 -15.433 -22.658  0.00  0.00    +0.007 C 
ATOM     15  C   UNL     1      33.551 -14.601 -25.228  0.00  0.00    +0.070 C 
ATOM     16  C   UNL     1      34.072 -14.108 -22.897  0.00  0.00    +0.030 C 
ATOM     17  C   UNL     1      33.625 -13.702 -24.159  0.00  0.00    +0.143 C 
ENDBRANCH   2  11
BRANCH   1  18
ATOM     18  C   UNL     1      36.414 -20.532 -19.243  0.00  0.00    -0.076 C 
BRANCH  18  19
ATOM     19  C   UNL     1      35.729 -21.880 -19.417  0.00  0.00    -0.007 C 
BRANCH  19  23
ATOM     20  O   UNL     1      33.048 -22.539 -19.145  0.00  0.00    -0.274 OA
ATOM     21  N   UNL     1      33.183 -23.070 -16.873  0.00  0.00    -0.211 N 
ATOM     22  N   UNL     1      35.288 -22.943 -15.781  0.00  0.00    -0.395 NA
ATOM     23  C   UNL     1      35.167 -22.366 -18.113  0.00  0.00    +0.123 C 
ATOM     24  C   UNL     1      35.850 -22.533 -16.964  0.00  0.00    +0.097 C 
ATOM     25  C   UNL     1      33.699 -22.662 -18.107  0.00  0.00    +0.241 C 
ATOM     26  C   UNL     1      34.014 -23.192 -15.753  0.00  0.00    +0.188 C 
ATOM     27  C   UNL     1      37.336 -22.306 -16.856  0.00  0.00    +0.062 C 
ATOM     28  C   UNL     1      33.373 -23.641 -14.466  0.00  0.00    +0.023 C 
ATOM     29  C   UNL     1      31.825 -23.355 -16.781  0.00  0.00    +0.074 C 
ATOM     30  C   UNL     1      32.057 -23.898 -14.456  0.00  0.00    +0.001 C 
ATOM     31  C   UNL     1      31.258 -23.753 -15.639  0.00  0.00    +0.016 C 
ATOM     32  C   UNL     1      34.238 -23.780 -13.251  0.00  0.00    +0.035 C 
ENDBRANCH  19  23
ENDBRANCH  18  19
ENDBRANCH   1  18
TORSDOF 4
ENDMDL
MODEL 6
REMARK VINA RESULT:     -13.0      2.929      5.253
REMARK  Name = 71351
REMARK  4 active torsions:
REMARK  status: ('A' for Active; 'I' for Inactive)
REMARK    1  A    between atoms: N_1  and  C_18
REMARK    2  A    between atoms: C_2  and  C_11
REMARK    3  A    between atoms: C_18  and  C_19
REMARK    4  A    between atoms: C_19  and  C_23
REMARK                            x       y       z     vdW  Elec       q    Type
REMARK                         _______ _______ _______ _____ _____    ______ ____
ROOT
ATOM      1  N   UNL     1      35.475 -18.764 -21.212  0.00  0.00    +0.387 N 
ATOM      2  C   UNL     1      35.158 -21.348 -19.860  0.00  0.00    +0.039 C 
ATOM      3  C   UNL     1      33.961 -20.452 -20.218  0.00  0.00    -0.017 C 
ATOM      4  C   UNL     1      36.427 -20.492 -19.717  0.00  0.00    -0.017 C 
ATOM      5  C   UNL     1      34.270 -19.574 -21.434  0.00  0.00    -0.077 C 
ATOM      6  C   UNL     1      36.645 -19.613 -20.952  0.00  0.00    -0.077 C 
ATOM      7  H   UNL     1      35.317 -18.184 -20.387  0.00  0.00    -0.080 HD
ENDROOT
BRANCH   2  11
ATOM      8  F   UNL     1      37.088 -23.572 -13.813  0.00  0.00    -0.204 F 
ATOM      9  O   UNL     1      33.856 -23.609 -17.375  0.00  0.00    -0.354 OA
ATOM     10  N   UNL     1      33.792 -22.950 -18.596  0.00  0.00    -0.081 NA
ATOM     11  C   UNL     1      34.898 -22.211 -18.646  0.00  0.00    +0.100 A 
ATOM     12  C   UNL     1      35.703 -22.348 -17.505  0.00  0.00    +0.054 A 
ATOM     13  C   UNL     1      34.997 -23.248 -16.726  0.00  0.00    +0.179 A 
ATOM     14  C   UNL     1      36.920 -21.841 -17.027  0.00  0.00    +0.007 C 
ATOM     15  C   UNL     1      35.411 -23.698 -15.476  0.00  0.00    +0.070 C 
ATOM     16  C   UNL     1      37.368 -22.273 -15.770  0.00  0.00    +0.030 C 
ATOM     17  C   UNL     1      36.626 -23.183 -15.011  0.00  0.00    +0.143 C 
ENDBRANCH   2  11
BRANCH   1  18
ATOM     18  C   UNL     1      35.722 -17.890 -22.359  0.00  0.00    -0.076 C 
BRANCH  18  19
ATOM     19  C   UNL     1      34.452 -17.750 -23.186  0.00  0.00    -0.007 C 
BRANCH  19  23
ATOM     20  O   UNL     1      33.820 -17.044 -25.793  0.00  0.00    -0.274 OA
ATOM     21  N   UNL     1      33.752 -14.744 -25.386  0.00  0.00    -0.211 N 
ATOM     22  N   UNL     1      34.124 -13.950 -23.179  0.00  0.00    -0.395 NA
ATOM     23  C   UNL     1      34.225 -16.320 -23.580  0.00  0.00    +0.123 C 
ATOM     24  C   UNL     1      34.299 -15.248 -22.768  0.00  0.00    +0.097 C 
ATOM     25  C   UNL     1      33.915 -16.085 -25.027  0.00  0.00    +0.241 C 
ATOM     26  C   UNL     1      33.866 -13.726 -24.431  0.00  0.00    +0.188 C 
ATOM     27  C   UNL     1      34.565 -15.361 -21.289  0.00  0.00    +0.062 C 
ATOM     28  C   UNL     1      33.672 -12.310 -24.908  0.00  0.00    +0.023 C 
ATOM     29  C   UNL     1      33.471 -14.440 -26.713  0.00  0.00    +0.074 C 
ATOM     30  C   UNL     1      33.403 -12.097 -26.204  0.00  0.00    +0.001 C 
ATOM     31  C   UNL     1      33.298 -13.184 -27.134  0.00  0.00    +0.016 C 
ATOM     32  C   UNL     1      33.789 -11.201 -23.908  0.00  0.00    +0.035 C 
ENDBRANCH  19  23
ENDBRANCH  18  19
ENDBRANCH   1  18
TORSDOF 4
ENDMDL
MODEL 7
REMARK VINA RESULT:     -12.9      4.203     10.752
REMARK  Name = 71351
REMARK  4 active torsions:
REMARK  status: ('A' for Active; 'I' for Inactive)
REMARK    1  A    between atoms: N_1  and  C_18
REMARK    2  A    between atoms: C_2  and  C_11
REMARK    3  A    between atoms: C_18  and  C_19
REMARK    4  A    between atoms: C_19  and  C_23
REMARK                            x       y       z     vdW  Elec       q    Type
REMARK                         _______ _______ _______ _____ _____    ______ ____
ROOT
ATOM      1  N   UNL     1      35.955 -18.518 -21.435  0.00  0.00    +0.387 N 
ATOM      2  C   UNL     1      34.227 -17.113 -23.345  0.00  0.00    +0.039 C 
ATOM      3  C   UNL     1      35.095 -18.316 -23.748  0.00  0.00    -0.017 C 
ATOM      4  C   UNL     1      34.837 -16.417 -22.117  0.00  0.00    -0.017 C 
ATOM      5  C   UNL     1      35.344 -19.244 -22.556  0.00  0.00    -0.077 C 
ATOM      6  C   UNL     1      35.094 -17.416 -20.985  0.00  0.00    -0.077 C 
ATOM      7  H   UNL     1      36.834 -18.117 -21.762  0.00  0.00    -0.080 HD
ENDROOT
BRANCH   2  11
ATOM      8  F   UNL     1      33.408 -10.821 -25.575  0.00  0.00    -0.204 F 
ATOM      9  O   UNL     1      33.630 -15.530 -26.527  0.00  0.00    -0.354 OA
ATOM     10  N   UNL     1      33.837 -16.645 -25.724  0.00  0.00    -0.081 NA
ATOM     11  C   UNL     1      33.981 -16.160 -24.493  0.00  0.00    +0.100 A 
ATOM     12  C   UNL     1      33.881 -14.761 -24.438  0.00  0.00    +0.054 A 
ATOM     13  C   UNL     1      33.658 -14.408 -25.757  0.00  0.00    +0.179 A 
ATOM     14  C   UNL     1      33.947 -13.754 -23.464  0.00  0.00    +0.007 C 
ATOM     15  C   UNL     1      33.490 -13.100 -26.202  0.00  0.00    +0.070 C 
ATOM     16  C   UNL     1      33.783 -12.424 -23.876  0.00  0.00    +0.030 C 
ATOM     17  C   UNL     1      33.560 -12.105 -25.220  0.00  0.00    +0.143 C 
ENDBRANCH   2  11
BRANCH   1  18
ATOM     18  C   UNL     1      36.239 -19.431 -20.328  0.00  0.00    -0.076 C 
BRANCH  18  19
ATOM     19  C   UNL     1      35.763 -20.833 -20.678  0.00  0.00    -0.007 C 
BRANCH  19  23
ATOM     20  O   UNL     1      36.714 -22.130 -18.418  0.00  0.00    -0.274 OA
ATOM     21  N   UNL     1      34.603 -22.584 -17.523  0.00  0.00    -0.211 N 
ATOM     22  N   UNL     1      32.672 -21.815 -18.672  0.00  0.00    -0.395 NA
ATOM     23  C   UNL     1      34.833 -21.361 -19.625  0.00  0.00    +0.123 C 
ATOM     24  C   UNL     1      33.488 -21.283 -19.638  0.00  0.00    +0.097 C 
ATOM     25  C   UNL     1      35.486 -22.059 -18.471  0.00  0.00    +0.241 C 
ATOM     26  C   UNL     1      33.219 -22.435 -17.670  0.00  0.00    +0.188 C 
ATOM     27  C   UNL     1      32.722 -20.572 -20.723  0.00  0.00    +0.062 C 
ATOM     28  C   UNL     1      32.344 -23.030 -16.598  0.00  0.00    +0.023 C 
ATOM     29  C   UNL     1      35.129 -23.256 -16.425  0.00  0.00    +0.074 C 
ATOM     30  C   UNL     1      32.926 -23.664 -15.569  0.00  0.00    +0.001 C 
ATOM     31  C   UNL     1      34.352 -23.782 -15.475  0.00  0.00    +0.016 C 
ATOM     32  C   UNL     1      30.859 -22.886 -16.731  0.00  0.00    +0.035 C 
ENDBRANCH  19  23
ENDBRANCH  18  19
ENDBRANCH   1  18
TORSDOF 4
ENDMDL
MODEL 8
REMARK VINA RESULT:     -12.7      4.264     11.539
REMARK  Name = 71351
REMARK  4 active torsions:
REMARK  status: ('A' for Active; 'I' for Inactive)
REMARK    1  A    between atoms: N_1  and  C_18
REMARK    2  A    between atoms: C_2  and  C_11
REMARK    3  A    between atoms: C_18  and  C_19
REMARK    4  A    between atoms: C_19  and  C_23
REMARK                            x       y       z     vdW  Elec       q    Type
REMARK                         _______ _______ _______ _____ _____    ______ ____
ROOT
ATOM      1  N   UNL     1      35.378 -20.837 -20.594  0.00  0.00    +0.387 N 
ATOM      2  C   UNL     1      34.988 -17.976 -21.111  0.00  0.00    +0.039 C 
ATOM      3  C   UNL     1      33.869 -19.011 -21.311  0.00  0.00    -0.017 C 
ATOM      4  C   UNL     1      36.359 -18.659 -21.241  0.00  0.00    -0.017 C 
ATOM      5  C   UNL     1      34.061 -20.221 -20.393  0.00  0.00    -0.077 C 
ATOM      6  C   UNL     1      36.459 -19.881 -20.324  0.00  0.00    -0.077 C 
ATOM      7  H   UNL     1      35.447 -21.121 -21.572  0.00  0.00    -0.080 HD
ENDROOT
BRANCH   2  11
ATOM      8  F   UNL     1      32.015 -12.118 -22.550  0.00  0.00    -0.204 F 
ATOM      9  O   UNL     1      35.235 -15.496 -23.714  0.00  0.00    -0.354 OA
ATOM     10  N   UNL     1      35.607 -16.691 -23.109  0.00  0.00    -0.081 NA
ATOM     11  C   UNL     1      34.845 -16.778 -22.022  0.00  0.00    +0.100 A 
ATOM     12  C   UNL     1      33.975 -15.688 -21.872  0.00  0.00    +0.054 A 
ATOM     13  C   UNL     1      34.261 -14.899 -22.972  0.00  0.00    +0.179 A 
ATOM     14  C   UNL     1      32.993 -15.262 -20.965  0.00  0.00    +0.007 C 
ATOM     15  C   UNL     1      33.636 -13.689 -23.255  0.00  0.00    +0.070 C 
ATOM     16  C   UNL     1      32.342 -14.046 -21.218  0.00  0.00    +0.030 C 
ATOM     17  C   UNL     1      32.659 -13.275 -22.342  0.00  0.00    +0.143 C 
ENDBRANCH   2  11
BRANCH   1  18
ATOM     18  C   UNL     1      35.522 -22.025 -19.751  0.00  0.00    -0.076 C 
BRANCH  18  19
ATOM     19  C   UNL     1      36.296 -21.672 -18.489  0.00  0.00    -0.007 C 
BRANCH  19  23
ATOM     20  O   UNL     1      37.690 -21.968 -16.109  0.00  0.00    -0.274 OA
ATOM     21  N   UNL     1      35.956 -23.049 -14.974  0.00  0.00    -0.211 N 
ATOM     22  N   UNL     1      33.886 -23.393 -16.086  0.00  0.00    -0.395 NA
ATOM     23  C   UNL     1      35.666 -22.303 -17.282  0.00  0.00    +0.123 C 
ATOM     24  C   UNL     1      34.411 -22.787 -17.199  0.00  0.00    +0.097 C 
ATOM     25  C   UNL     1      36.544 -22.418 -16.074  0.00  0.00    +0.241 C 
ATOM     26  C   UNL     1      34.637 -23.513 -15.033  0.00  0.00    +0.188 C 
ATOM     27  C   UNL     1      33.423 -22.693 -18.333  0.00  0.00    +0.062 C 
ATOM     28  C   UNL     1      34.084 -24.177 -13.799  0.00  0.00    +0.023 C 
ATOM     29  C   UNL     1      36.709 -23.203 -13.815  0.00  0.00    +0.074 C 
ATOM     30  C   UNL     1      34.872 -24.290 -12.720  0.00  0.00    +0.001 C 
ATOM     31  C   UNL     1      36.218 -23.792 -12.722  0.00  0.00    +0.016 C 
ATOM     32  C   UNL     1      32.676 -24.685 -13.835  0.00  0.00    +0.035 C 
ENDBRANCH  19  23
ENDBRANCH  18  19
ENDBRANCH   1  18
TORSDOF 4
ENDMDL
MODEL 9
REMARK VINA RESULT:     -12.5      5.005     12.535
REMARK  Name = 71351
REMARK  4 active torsions:
REMARK  status: ('A' for Active; 'I' for Inactive)
REMARK    1  A    between atoms: N_1  and  C_18
REMARK    2  A    between atoms: C_2  and  C_11
REMARK    3  A    between atoms: C_18  and  C_19
REMARK    4  A    between atoms: C_19  and  C_23
REMARK                            x       y       z     vdW  Elec       q    Type
REMARK                         _______ _______ _______ _____ _____    ______ ____
ROOT
ATOM      1  N   UNL     1      34.341 -22.242 -19.249  0.00  0.00    +0.387 N 
ATOM      2  C   UNL     1      34.544 -19.670 -20.645  0.00  0.00    +0.039 C 
ATOM      3  C   UNL     1      33.224 -20.452 -20.544  0.00  0.00    -0.017 C 
ATOM      4  C   UNL     1      35.734 -20.634 -20.516  0.00  0.00    -0.017 C 
ATOM      5  C   UNL     1      33.193 -21.327 -19.288  0.00  0.00    -0.077 C 
ATOM      6  C   UNL     1      35.610 -21.502 -19.260  0.00  0.00    -0.077 C 
ATOM      7  H   UNL     1      34.309 -22.823 -20.087  0.00  0.00    -0.080 HD
ENDROOT
BRANCH   2  11
ATOM      8  F   UNL     1      34.446 -13.580 -23.498  0.00  0.00    -0.204 F 
ATOM      9  O   UNL     1      34.817 -18.350 -23.988  0.00  0.00    -0.354 OA
ATOM     10  N   UNL     1      34.789 -19.397 -23.073  0.00  0.00    -0.081 NA
ATOM     11  C   UNL     1      34.620 -18.813 -21.889  0.00  0.00    +0.100 A 
ATOM     12  C   UNL     1      34.536 -17.415 -21.972  0.00  0.00    +0.054 A 
ATOM     13  C   UNL     1      34.667 -17.170 -23.327  0.00  0.00    +0.179 A 
ATOM     14  C   UNL     1      34.367 -16.332 -21.096  0.00  0.00    +0.007 C 
ATOM     15  C   UNL     1      34.644 -15.902 -23.901  0.00  0.00    +0.070 C 
ATOM     16  C   UNL     1      34.340 -15.040 -21.639  0.00  0.00    +0.030 C 
ATOM     17  C   UNL     1      34.477 -14.831 -23.016  0.00  0.00    +0.143 C 
ENDBRANCH   2  11
BRANCH   1  18
ATOM     18  C   UNL     1      34.265 -23.109 -18.073  0.00  0.00    -0.076 C 
BRANCH  18  19
ATOM     19  C   UNL     1      34.655 -22.328 -16.827  0.00  0.00    -0.007 C 
BRANCH  19  23
ATOM     20  O   UNL     1      37.425 -22.433 -16.934  0.00  0.00    -0.274 OA
ATOM     21  N   UNL     1      37.650 -24.001 -15.216  0.00  0.00    -0.211 N 
ATOM     22  N   UNL     1      35.703 -24.779 -14.100  0.00  0.00    -0.395 NA
ATOM     23  C   UNL     1      35.446 -23.186 -15.884  0.00  0.00    +0.123 C 
ATOM     24  C   UNL     1      34.944 -23.978 -14.917  0.00  0.00    +0.097 C 
ATOM     25  C   UNL     1      36.932 -23.162 -16.073  0.00  0.00    +0.241 C 
ATOM     26  C   UNL     1      36.992 -24.781 -14.257  0.00  0.00    +0.188 C 
ATOM     27  C   UNL     1      33.472 -24.056 -14.607  0.00  0.00    +0.062 C 
ATOM     28  C   UNL     1      37.846 -25.653 -13.375  0.00  0.00    +0.023 C 
ATOM     29  C   UNL     1      39.035 -24.044 -15.333  0.00  0.00    +0.074 C 
ATOM     30  C   UNL     1      39.176 -25.641 -13.548  0.00  0.00    +0.001 C 
ATOM     31  C   UNL     1      39.791 -24.818 -14.550  0.00  0.00    +0.016 C 
ATOM     32  C   UNL     1      37.169 -26.499 -12.341  0.00  0.00    +0.035 C 
ENDBRANCH  19  23
ENDBRANCH  18  19
ENDBRANCH   1  18
TORSDOF 4
ENDMDL
