MODEL 1
REMARK VINA RESULT:      -5.8      0.000      0.000
REMARK  Name = 46878457
REMARK  5 active torsions:
REMARK  status: ('A' for Active; 'I' for Inactive)
REMARK    1  A    between atoms: CA_1  and  N_2
REMARK    2  A    between atoms: CA_1  and  C_8
REMARK    3  A    between atoms: CA_1  and  C_9
REMARK    4  A    between atoms: C_9  and  C_12
REMARK    5  A    between atoms: C_9  and  O_15
REMARK                            x       y       z     vdW  Elec       q    Type
REMARK                         _______ _______ _______ _____ _____    ______ ____
ROOT
ATOM      1  CA  UNL     1      38.653 -24.961 -14.602  0.00  0.00    +0.077 C 
ENDROOT
BRANCH   1   2
ATOM      2  N   UNL     1      38.486 -23.941 -15.688  0.00  0.00    +0.391 N 
ATOM      3  H1  UNL     1      38.399 -23.013 -15.274  0.00  0.00    -0.088 HD
ATOM      4  H2  UNL     1      37.648 -24.152 -16.228  0.00  0.00    -0.088 HD
ATOM      5  H3  UNL     1      39.300 -23.963 -16.303  0.00  0.00    -0.088 HD
ENDBRANCH   1   2
BRANCH   1   8
ATOM      6  O   UNL     1      41.010 -24.787 -14.648  0.00  0.00    -0.248 OA
ATOM      7  OXT UNL     1      40.086 -26.873 -14.613  0.00  0.00    -0.248 OA
ATOM      8  C   UNL     1      40.050 -25.612 -14.618  0.00  0.00    +0.348 C 
ENDBRANCH   1   8
BRANCH   1   9
ATOM      9  C   UNL     1      37.474 -25.941 -14.692  0.00  0.00    +0.177 C 
BRANCH   9  12
ATOM     10  O   UNL     1      35.586 -24.791 -15.687  0.00  0.00    -0.273 OA
ATOM     11  N   UNL     1      35.574 -25.141 -13.416  0.00  0.00    -0.327 N 
ATOM     12  C   UNL     1      36.121 -25.240 -14.677  0.00  0.00    +0.245 C 
ATOM     13  H   UNL     1      34.700 -24.705 -13.291  0.00  0.00    +0.145 HD
ATOM     14  H   UNL     1      36.057 -25.506 -12.639  0.00  0.00    +0.145 HD
ENDBRANCH   9  12
BRANCH   9  15
ATOM     15  O   UNL     1      37.580 -26.705 -15.885  0.00  0.00    -0.377 OA
ATOM     16  H   UNL     1      38.057 -26.192 -16.556  0.00  0.00    +0.211 HD
ENDBRANCH   9  15
ENDBRANCH   1   9
TORSDOF 5
ENDMDL
MODEL 2
REMARK VINA RESULT:      -5.7      3.076      3.477
REMARK  Name = 46878457
REMARK  5 active torsions:
REMARK  status: ('A' for Active; 'I' for Inactive)
REMARK    1  A    between atoms: CA_1  and  N_2
REMARK    2  A    between atoms: CA_1  and  C_8
REMARK    3  A    between atoms: CA_1  and  C_9
REMARK    4  A    between atoms: C_9  and  C_12
REMARK    5  A    between atoms: C_9  and  O_15
REMARK                            x       y       z     vdW  Elec       q    Type
REMARK                         _______ _______ _______ _____ _____    ______ ____
ROOT
ATOM      1  CA  UNL     1      37.834 -24.545 -13.065  0.00  0.00    +0.077 C 
ENDROOT
BRANCH   1   2
ATOM      2  N   UNL     1      39.245 -25.031 -13.213  0.00  0.00    +0.391 N 
ATOM      3  H1  UNL     1      39.424 -25.265 -14.189  0.00  0.00    -0.088 HD
ATOM      4  H2  UNL     1      39.382 -25.860 -12.634  0.00  0.00    -0.088 HD
ATOM      5  H3  UNL     1      39.890 -24.299 -12.916  0.00  0.00    -0.088 HD
ENDBRANCH   1   2
BRANCH   1   8
ATOM      6  O   UNL     1      38.213 -22.495 -11.949  0.00  0.00    -0.248 OA
ATOM      7  OXT UNL     1      37.000 -24.098 -10.871  0.00  0.00    -0.248 OA
ATOM      8  C   UNL     1      37.657 -23.627 -11.839  0.00  0.00    +0.348 C 
ENDBRANCH   1   8
BRANCH   1   9
ATOM      9  C   UNL     1      36.908 -25.769 -13.104  0.00  0.00    +0.177 C 
BRANCH   9  12
ATOM     10  O   UNL     1      38.161 -27.218 -14.591  0.00  0.00    -0.273 OA
ATOM     11  N   UNL     1      36.016 -26.643 -15.183  0.00  0.00    -0.327 N 
ATOM     12  C   UNL     1      37.113 -26.624 -14.349  0.00  0.00    +0.245 C 
ATOM     13  H   UNL     1      36.040 -27.166 -16.017  0.00  0.00    +0.145 HD
ATOM     14  H   UNL     1      35.207 -26.135 -14.945  0.00  0.00    +0.145 HD
ENDBRANCH   9  12
BRANCH   9  15
ATOM     15  O   UNL     1      37.131 -26.572 -11.955  0.00  0.00    -0.377 OA
ATOM     16  H   UNL     1      38.056 -26.867 -11.941  0.00  0.00    +0.211 HD
ENDBRANCH   9  15
ENDBRANCH   1   9
TORSDOF 5
ENDMDL
MODEL 3
REMARK VINA RESULT:      -5.7      2.082      2.397
REMARK  Name = 46878457
REMARK  5 active torsions:
REMARK  status: ('A' for Active; 'I' for Inactive)
REMARK    1  A    between atoms: CA_1  and  N_2
REMARK    2  A    between atoms: CA_1  and  C_8
REMARK    3  A    between atoms: CA_1  and  C_9
REMARK    4  A    between atoms: C_9  and  C_12
REMARK    5  A    between atoms: C_9  and  O_15
REMARK                            x       y       z     vdW  Elec       q    Type
REMARK                         _______ _______ _______ _____ _____    ______ ____
ROOT
ATOM      1  CA  UNL     1      38.732 -25.655 -14.590  0.00  0.00    +0.077 C 
ENDROOT
BRANCH   1   2
ATOM      2  N   UNL     1      38.486 -26.017 -13.155  0.00  0.00    +0.391 N 
ATOM      3  H1  UNL     1      39.057 -25.425 -12.552  0.00  0.00    -0.088 HD
ATOM      4  H2  UNL     1      38.732 -26.995 -13.004  0.00  0.00    -0.088 HD
ATOM      5  H3  UNL     1      37.500 -25.877 -12.933  0.00  0.00    -0.088 HD
ENDBRANCH   1   2
BRANCH   1   8
ATOM      6  O   UNL     1      40.636 -26.092 -15.921  0.00  0.00    -0.248 OA
ATOM      7  OXT UNL     1      40.882 -24.732 -14.105  0.00  0.00    -0.248 OA
ATOM      8  C   UNL     1      40.230 -25.466 -14.898  0.00  0.00    +0.348 C 
ENDBRANCH   1   8
BRANCH   1   9
ATOM      9  C   UNL     1      37.838 -24.455 -14.933  0.00  0.00    +0.177 C 
BRANCH   9  12
ATOM     10  O   UNL     1      38.077 -23.261 -12.835  0.00  0.00    -0.273 OA
ATOM     11  N   UNL     1      35.956 -23.660 -13.626  0.00  0.00    -0.327 N 
ATOM     12  C   UNL     1      37.331 -23.725 -13.694  0.00  0.00    +0.245 C 
ATOM     13  H   UNL     1      35.522 -23.209 -12.866  0.00  0.00    +0.145 HD
ATOM     14  H   UNL     1      35.408 -24.064 -14.337  0.00  0.00    +0.145 HD
ENDBRANCH   9  12
BRANCH   9  15
ATOM     15  O   UNL     1      38.561 -23.538 -15.741  0.00  0.00    -0.377 OA
ATOM     16  H   UNL     1      38.103 -22.683 -15.749  0.00  0.00    +0.211 HD
ENDBRANCH   9  15
ENDBRANCH   1   9
TORSDOF 5
ENDMDL
MODEL 4
REMARK VINA RESULT:      -5.7      2.642      3.497
REMARK  Name = 46878457
REMARK  5 active torsions:
REMARK  status: ('A' for Active; 'I' for Inactive)
REMARK    1  A    between atoms: CA_1  and  N_2
REMARK    2  A    between atoms: CA_1  and  C_8
REMARK    3  A    between atoms: CA_1  and  C_9
REMARK    4  A    between atoms: C_9  and  C_12
REMARK    5  A    between atoms: C_9  and  O_15
REMARK                            x       y       z     vdW  Elec       q    Type
REMARK                         _______ _______ _______ _____ _____    ______ ____
ROOT
ATOM      1  CA  UNL     1      36.678 -25.277 -13.887  0.00  0.00    +0.077 C 
ENDROOT
BRANCH   1   2
ATOM      2  N   UNL     1      35.202 -25.009 -13.879  0.00  0.00    +0.391 N 
ATOM      3  H1  UNL     1      35.038 -24.003 -13.907  0.00  0.00    -0.088 HD
ATOM      4  H2  UNL     1      34.790 -25.398 -13.031  0.00  0.00    -0.088 HD
ATOM      5  H3  UNL     1      34.773 -25.446 -14.695  0.00  0.00    -0.088 HD
ENDBRANCH   1   2
BRANCH   1   8
ATOM      6  O   UNL     1      38.206 -26.914 -14.643  0.00  0.00    -0.248 OA
ATOM      7  OXT UNL     1      36.212 -26.721 -15.734  0.00  0.00    -0.248 OA
ATOM      8  C   UNL     1      37.061 -26.418 -14.851  0.00  0.00    +0.348 C 
ENDBRANCH   1   8
BRANCH   1   9
ATOM      9  C   UNL     1      37.129 -25.471 -12.433  0.00  0.00    +0.177 C 
BRANCH   9  12
ATOM     10  O   UNL     1      35.344 -24.916 -10.887  0.00  0.00    -0.273 OA
ATOM     11  N   UNL     1      36.959 -23.334 -11.300  0.00  0.00    -0.327 N 
ATOM     12  C   UNL     1      36.377 -24.573 -11.457  0.00  0.00    +0.245 C 
ATOM     13  H   UNL     1      36.555 -22.674 -10.691  0.00  0.00    +0.145 HD
ATOM     14  H   UNL     1      37.779 -23.108 -11.795  0.00  0.00    +0.145 HD
ENDBRANCH   9  12
BRANCH   9  15
ATOM     15  O   UNL     1      36.935 -26.825 -12.050  0.00  0.00    -0.377 OA
ATOM     16  H   UNL     1      36.032 -27.100 -12.277  0.00  0.00    +0.211 HD
ENDBRANCH   9  15
ENDBRANCH   1   9
TORSDOF 5
ENDMDL
MODEL 5
REMARK VINA RESULT:      -5.6      2.318      2.439
REMARK  Name = 46878457
REMARK  5 active torsions:
REMARK  status: ('A' for Active; 'I' for Inactive)
REMARK    1  A    between atoms: CA_1  and  N_2
REMARK    2  A    between atoms: CA_1  and  C_8
REMARK    3  A    between atoms: CA_1  and  C_9
REMARK    4  A    between atoms: C_9  and  C_12
REMARK    5  A    between atoms: C_9  and  O_15
REMARK                            x       y       z     vdW  Elec       q    Type
REMARK                         _______ _______ _______ _____ _____    ______ ____
ROOT
ATOM      1  CA  UNL     1      38.809 -25.614 -14.491  0.00  0.00    +0.077 C 
ENDROOT
BRANCH   1   2
ATOM      2  N   UNL     1      38.203 -26.985 -14.433  0.00  0.00    +0.391 N 
ATOM      3  H1  UNL     1      38.844 -27.658 -14.852  0.00  0.00    -0.088 HD
ATOM      4  H2  UNL     1      37.322 -26.989 -14.946  0.00  0.00    -0.088 HD
ATOM      5  H3  UNL     1      38.031 -27.240 -13.460  0.00  0.00    -0.088 HD
ENDBRANCH   1   2
BRANCH   1   8
ATOM      6  O   UNL     1      40.936 -24.637 -14.821  0.00  0.00    -0.248 OA
ATOM      7  OXT UNL     1      40.834 -26.659 -13.770  0.00  0.00    -0.248 OA
ATOM      8  C   UNL     1      40.343 -25.645 -14.338  0.00  0.00    +0.348 C 
ENDBRANCH   1   8
BRANCH   1   9
ATOM      9  C   UNL     1      38.070 -24.729 -13.477  0.00  0.00    +0.177 C 
BRANCH   9  12
ATOM     10  O   UNL     1      37.170 -26.331 -11.894  0.00  0.00    -0.273 OA
ATOM     11  N   UNL     1      35.695 -25.102 -13.156  0.00  0.00    -0.327 N 
ATOM     12  C   UNL     1      36.957 -25.473 -12.746  0.00  0.00    +0.245 C 
ATOM     13  H   UNL     1      34.902 -25.520 -12.748  0.00  0.00    +0.145 HD
ATOM     14  H   UNL     1      35.585 -24.418 -13.855  0.00  0.00    +0.145 HD
ENDBRANCH   9  12
BRANCH   9  15
ATOM     15  O   UNL     1      38.991 -24.229 -12.520  0.00  0.00    -0.377 OA
ATOM     16  H   UNL     1      39.804 -24.759 -12.545  0.00  0.00    +0.211 HD
ENDBRANCH   9  15
ENDBRANCH   1   9
TORSDOF 5
ENDMDL
MODEL 6
REMARK VINA RESULT:      -5.5      3.392      4.322
REMARK  Name = 46878457
REMARK  5 active torsions:
REMARK  status: ('A' for Active; 'I' for Inactive)
REMARK    1  A    between atoms: CA_1  and  N_2
REMARK    2  A    between atoms: CA_1  and  C_8
REMARK    3  A    between atoms: CA_1  and  C_9
REMARK    4  A    between atoms: C_9  and  C_12
REMARK    5  A    between atoms: C_9  and  O_15
REMARK                            x       y       z     vdW  Elec       q    Type
REMARK                         _______ _______ _______ _____ _____    ______ ____
ROOT
ATOM      1  CA  UNL     1      35.814 -24.396 -12.424  0.00  0.00    +0.077 C 
ENDROOT
BRANCH   1   2
ATOM      2  N   UNL     1      36.032 -23.146 -13.224  0.00  0.00    +0.391 N 
ATOM      3  H1  UNL     1      35.414 -23.149 -14.035  0.00  0.00    -0.088 HD
ATOM      4  H2  UNL     1      37.003 -23.107 -13.536  0.00  0.00    -0.088 HD
ATOM      5  H3  UNL     1      35.829 -22.332 -12.644  0.00  0.00    -0.088 HD
ENDBRANCH   1   2
BRANCH   1   8
ATOM      6  O   UNL     1      36.911 -23.300 -10.640  0.00  0.00    -0.248 OA
ATOM      7  OXT UNL     1      35.344 -24.878 -10.131  0.00  0.00    -0.248 OA
ATOM      8  C   UNL     1      36.036 -24.172 -10.915  0.00  0.00    +0.348 C 
ENDBRANCH   1   8
BRANCH   1   9
ATOM      9  C   UNL     1      36.664 -25.511 -13.051  0.00  0.00    +0.177 C 
BRANCH   9  12
ATOM     10  O   UNL     1      38.753 -24.293 -13.229  0.00  0.00    -0.273 OA
ATOM     11  N   UNL     1      37.928 -25.321 -15.111  0.00  0.00    -0.327 N 
ATOM     12  C   UNL     1      37.893 -24.978 -13.777  0.00  0.00    +0.245 C 
ATOM     13  H   UNL     1      38.680 -25.028 -15.675  0.00  0.00    +0.145 HD
ATOM     14  H   UNL     1      37.202 -25.859 -15.501  0.00  0.00    +0.145 HD
ENDBRANCH   9  12
BRANCH   9  15
ATOM     15  O   UNL     1      37.085 -26.414 -12.039  0.00  0.00    -0.377 OA
ATOM     16  H   UNL     1      37.586 -27.141 -12.443  0.00  0.00    +0.211 HD
ENDBRANCH   9  15
ENDBRANCH   1   9
TORSDOF 5
ENDMDL
MODEL 7
REMARK VINA RESULT:      -5.4      3.093      3.905
REMARK  Name = 46878457
REMARK  5 active torsions:
REMARK  status: ('A' for Active; 'I' for Inactive)
REMARK    1  A    between atoms: CA_1  and  N_2
REMARK    2  A    between atoms: CA_1  and  C_8
REMARK    3  A    between atoms: CA_1  and  C_9
REMARK    4  A    between atoms: C_9  and  C_12
REMARK    5  A    between atoms: C_9  and  O_15
REMARK                            x       y       z     vdW  Elec       q    Type
REMARK                         _______ _______ _______ _____ _____    ______ ____
ROOT
ATOM      1  CA  UNL     1      35.720 -24.590 -12.644  0.00  0.00    +0.077 C 
ENDROOT
BRANCH   1   2
ATOM      2  N   UNL     1      35.561 -23.223 -13.241  0.00  0.00    +0.391 N 
ATOM      3  H1  UNL     1      35.083 -23.298 -14.139  0.00  0.00    -0.088 HD
ATOM      4  H2  UNL     1      36.479 -22.802 -13.378  0.00  0.00    -0.088 HD
ATOM      5  H3  UNL     1      35.011 -22.639 -12.611  0.00  0.00    -0.088 HD
ENDBRANCH   1   2
BRANCH   1   8
ATOM      6  O   UNL     1      37.061 -23.891 -10.827  0.00  0.00    -0.248 OA
ATOM      7  OXT UNL     1      35.209 -25.144 -10.376  0.00  0.00    -0.248 OA
ATOM      8  C   UNL     1      36.017 -24.538 -11.132  0.00  0.00    +0.348 C 
ENDBRANCH   1   8
BRANCH   1   9
ATOM      9  C   UNL     1      36.752 -25.354 -13.486  0.00  0.00    +0.177 C 
BRANCH   9  12
ATOM     10  O   UNL     1      36.017 -24.708 -15.705  0.00  0.00    -0.273 OA
ATOM     11  N   UNL     1      36.146 -26.948 -15.210  0.00  0.00    -0.327 N 
ATOM     12  C   UNL     1      36.277 -25.609 -14.912  0.00  0.00    +0.245 C 
ATOM     13  H   UNL     1      35.845 -27.226 -16.105  0.00  0.00    +0.145 HD
ATOM     14  H   UNL     1      36.354 -27.628 -14.528  0.00  0.00    +0.145 HD
ENDBRANCH   9  12
BRANCH   9  15
ATOM     15  O   UNL     1      37.966 -24.619 -13.533  0.00  0.00    -0.377 OA
ATOM     16  H   UNL     1      38.708 -25.206 -13.315  0.00  0.00    +0.211 HD
ENDBRANCH   9  15
ENDBRANCH   1   9
TORSDOF 5
ENDMDL
MODEL 8
REMARK VINA RESULT:      -5.4      2.989      3.354
REMARK  Name = 46878457
REMARK  5 active torsions:
REMARK  status: ('A' for Active; 'I' for Inactive)
REMARK    1  A    between atoms: CA_1  and  N_2
REMARK    2  A    between atoms: CA_1  and  C_8
REMARK    3  A    between atoms: CA_1  and  C_9
REMARK    4  A    between atoms: C_9  and  C_12
REMARK    5  A    between atoms: C_9  and  O_15
REMARK                            x       y       z     vdW  Elec       q    Type
REMARK                         _______ _______ _______ _____ _____    ______ ____
ROOT
ATOM      1  CA  UNL     1      36.664 -23.647 -13.057  0.00  0.00    +0.077 C 
ENDROOT
BRANCH   1   2
ATOM      2  N   UNL     1      37.139 -23.200 -14.407  0.00  0.00    +0.391 N 
ATOM      3  H1  UNL     1      37.904 -22.534 -14.296  0.00  0.00    -0.088 HD
ATOM      4  H2  UNL     1      36.371 -22.755 -14.909  0.00  0.00    -0.088 HD
ATOM      5  H3  UNL     1      37.467 -24.008 -14.937  0.00  0.00    -0.088 HD
ENDBRANCH   1   2
BRANCH   1   8
ATOM      6  O   UNL     1      38.865 -23.849 -12.216  0.00  0.00    -0.248 OA
ATOM      7  OXT UNL     1      37.313 -22.789 -10.923  0.00  0.00    -0.248 OA
ATOM      8  C   UNL     1      37.712 -23.396 -11.954  0.00  0.00    +0.348 C 
ENDBRANCH   1   8
BRANCH   1   9
ATOM      9  C   UNL     1      36.184 -25.100 -13.184  0.00  0.00    +0.177 C 
BRANCH   9  12
ATOM     10  O   UNL     1      36.458 -25.902 -15.456  0.00  0.00    -0.273 OA
ATOM     11  N   UNL     1      38.031 -26.503 -13.893  0.00  0.00    -0.327 N 
ATOM     12  C   UNL     1      36.886 -25.857 -14.305  0.00  0.00    +0.245 C 
ATOM     13  H   UNL     1      38.563 -27.022 -14.538  0.00  0.00    +0.145 HD
ATOM     14  H   UNL     1      38.318 -26.444 -12.953  0.00  0.00    +0.145 HD
ENDBRANCH   9  12
BRANCH   9  15
ATOM     15  O   UNL     1      36.409 -25.784 -11.960  0.00  0.00    -0.377 OA
ATOM     16  H   UNL     1      36.120 -26.707 -12.047  0.00  0.00    +0.211 HD
ENDBRANCH   9  15
ENDBRANCH   1   9
TORSDOF 5
ENDMDL
MODEL 9
REMARK VINA RESULT:      -5.4      2.189      2.719
REMARK  Name = 46878457
REMARK  5 active torsions:
REMARK  status: ('A' for Active; 'I' for Inactive)
REMARK    1  A    between atoms: CA_1  and  N_2
REMARK    2  A    between atoms: CA_1  and  C_8
REMARK    3  A    between atoms: CA_1  and  C_9
REMARK    4  A    between atoms: C_9  and  C_12
REMARK    5  A    between atoms: C_9  and  O_15
REMARK                            x       y       z     vdW  Elec       q    Type
REMARK                         _______ _______ _______ _____ _____    ______ ____
ROOT
ATOM      1  CA  UNL     1      38.679 -25.257 -14.174  0.00  0.00    +0.077 C 
ENDROOT
BRANCH   1   2
ATOM      2  N   UNL     1      37.724 -25.872 -15.155  0.00  0.00    +0.391 N 
ATOM      3  H1  UNL     1      37.881 -25.471 -16.079  0.00  0.00    -0.088 HD
ATOM      4  H2  UNL     1      36.766 -25.683 -14.860  0.00  0.00    -0.088 HD
ATOM      5  H3  UNL     1      37.875 -26.879 -15.190  0.00  0.00    -0.088 HD
ENDBRANCH   1   2
BRANCH   1   8
ATOM      6  O   UNL     1      40.317 -26.917 -14.561  0.00  0.00    -0.248 OA
ATOM      7  OXT UNL     1      40.988 -24.737 -14.503  0.00  0.00    -0.248 OA
ATOM      8  C   UNL     1      40.140 -25.669 -14.443  0.00  0.00    +0.348 C 
ENDBRANCH   1   8
BRANCH   1   9
ATOM      9  C   UNL     1      38.163 -25.562 -12.761  0.00  0.00    +0.177 C 
BRANCH   9  12
ATOM     10  O   UNL     1      38.740 -23.458 -11.702  0.00  0.00    -0.273 OA
ATOM     11  N   UNL     1      36.581 -24.219 -11.507  0.00  0.00    -0.327 N 
ATOM     12  C   UNL     1      37.882 -24.302 -11.950  0.00  0.00    +0.245 C 
ATOM     13  H   UNL     1      36.291 -23.444 -10.973  0.00  0.00    +0.145 HD
ATOM     14  H   UNL     1      35.940 -24.934 -11.723  0.00  0.00    +0.145 HD
ENDBRANCH   9  12
BRANCH   9  15
ATOM     15  O   UNL     1      36.970 -26.328 -12.843  0.00  0.00    -0.377 OA
ATOM     16  H   UNL     1      36.463 -26.054 -13.625  0.00  0.00    +0.211 HD
ENDBRANCH   9  15
ENDBRANCH   1   9
TORSDOF 5
ENDMDL
