MODEL 1
REMARK VINA RESULT:      -5.1      0.000      0.000
REMARK  Name = 24250
REMARK  9 active torsions:
REMARK  status: ('A' for Active; 'I' for Inactive)
REMARK    1  A    between atoms: C_1  and  C_2
REMARK    2  A    between atoms: C_1  and  C_10
REMARK    3  A    between atoms: C_2  and  C_3
REMARK    4  A    between atoms: C_3  and  C_4
REMARK    5  A    between atoms: C_4  and  C_5
REMARK    6  A    between atoms: C_5  and  N_6
REMARK    7  A    between atoms: C_10  and  C_11
REMARK    8  A    between atoms: C_11  and  C_12
REMARK    9  A    between atoms: C_12  and  N_13
REMARK                            x       y       z     vdW  Elec       q    Type
REMARK                         _______ _______ _______ _____ _____    ______ ____
ROOT
ATOM      1  C   UNL     1      34.859 -18.816 -21.122  0.00  0.00    -0.000 C 
ENDROOT
BRANCH   1   2
ATOM      2  C   UNL     1      33.520 -19.517 -21.359  0.00  0.00    -0.000 C 
BRANCH   2   3
ATOM      3  C   UNL     1      33.167 -20.450 -20.198  0.00  0.00    -0.002 C 
BRANCH   3   4
ATOM      4  C   UNL     1      34.395 -21.229 -19.720  0.00  0.00    -0.024 C 
BRANCH   4   5
ATOM      5  C   UNL     1      34.037 -22.486 -18.927  0.00  0.00    -0.086 C 
BRANCH   5   6
ATOM      6  N   UNL     1      32.681 -22.428 -18.394  0.00  0.00    +0.380 N 
ATOM      7  H   UNL     1      32.682 -21.903 -17.520  0.00  0.00    -0.089 HD
ATOM      8  H   UNL     1      32.342 -23.374 -18.222  0.00  0.00    -0.089 HD
ATOM      9  H   UNL     1      32.071 -21.966 -19.068  0.00  0.00    -0.089 HD
ENDBRANCH   5   6
ENDBRANCH   4   5
ENDBRANCH   3   4
ENDBRANCH   2   3
ENDBRANCH   1   2
BRANCH   1  10
ATOM     10  C   UNL     1      35.635 -18.641 -22.429  0.00  0.00    -0.002 C 
BRANCH  10  11
ATOM     11  C   UNL     1      34.754 -18.949 -23.643  0.00  0.00    -0.024 C 
BRANCH  11  12
ATOM     12  C   UNL     1      34.737 -17.820 -24.676  0.00  0.00    -0.086 C 
BRANCH  12  13
ATOM     13  N   UNL     1      35.389 -16.616 -24.177  0.00  0.00    +0.380 N 
ATOM     14  H   UNL     1      34.734 -15.835 -24.213  0.00  0.00    -0.089 HD
ATOM     15  H   UNL     1      36.202 -16.404 -24.755  0.00  0.00    -0.089 HD
ATOM     16  H   UNL     1      35.687 -16.765 -23.212  0.00  0.00    -0.089 HD
ENDBRANCH  12  13
ENDBRANCH  11  12
ENDBRANCH  10  11
ENDBRANCH   1  10
TORSDOF 9
ENDMDL
MODEL 2
REMARK VINA RESULT:      -5.0      0.166      5.756
REMARK  Name = 24250
REMARK  9 active torsions:
REMARK  status: ('A' for Active; 'I' for Inactive)
REMARK    1  A    between atoms: C_1  and  C_2
REMARK    2  A    between atoms: C_1  and  C_10
REMARK    3  A    between atoms: C_2  and  C_3
REMARK    4  A    between atoms: C_3  and  C_4
REMARK    5  A    between atoms: C_4  and  C_5
REMARK    6  A    between atoms: C_5  and  N_6
REMARK    7  A    between atoms: C_10  and  C_11
REMARK    8  A    between atoms: C_11  and  C_12
REMARK    9  A    between atoms: C_12  and  N_13
REMARK                            x       y       z     vdW  Elec       q    Type
REMARK                         _______ _______ _______ _____ _____    ______ ____
ROOT
ATOM      1  C   UNL     1      33.584 -19.455 -21.267  0.00  0.00    -0.000 C 
ENDROOT
BRANCH   1   2
ATOM      2  C   UNL     1      34.987 -18.877 -21.068  0.00  0.00    -0.000 C 
BRANCH   2   3
ATOM      3  C   UNL     1      35.681 -18.628 -22.409  0.00  0.00    -0.002 C 
BRANCH   3   4
ATOM      4  C   UNL     1      34.800 -19.069 -23.580  0.00  0.00    -0.024 C 
BRANCH   4   5
ATOM      5  C   UNL     1      34.650 -17.994 -24.658  0.00  0.00    -0.086 C 
BRANCH   5   6
ATOM      6  N   UNL     1      35.322 -16.754 -24.289  0.00  0.00    +0.380 N 
ATOM      7  H   UNL     1      35.934 -16.460 -25.050  0.00  0.00    -0.089 HD
ATOM      8  H   UNL     1      35.875 -16.905 -23.446  0.00  0.00    -0.089 HD
ATOM      9  H   UNL     1      34.626 -16.030 -24.113  0.00  0.00    -0.089 HD
ENDBRANCH   5   6
ENDBRANCH   4   5
ENDBRANCH   3   4
ENDBRANCH   2   3
ENDBRANCH   1   2
BRANCH   1  10
ATOM     10  C   UNL     1      33.247 -20.483 -20.186  0.00  0.00    -0.002 C 
BRANCH  10  11
ATOM     11  C   UNL     1      34.493 -21.264 -19.754  0.00  0.00    -0.024 C 
BRANCH  11  12
ATOM     12  C   UNL     1      34.198 -22.329 -18.697  0.00  0.00    -0.086 C 
BRANCH  12  13
ATOM     13  N   UNL     1      32.768 -22.480 -18.459  0.00  0.00    +0.380 N 
ATOM     14  H   UNL     1      32.295 -21.600 -18.666  0.00  0.00    -0.089 HD
ATOM     15  H   UNL     1      32.609 -22.729 -17.483  0.00  0.00    -0.089 HD
ATOM     16  H   UNL     1      32.398 -23.215 -19.062  0.00  0.00    -0.089 HD
ENDBRANCH  12  13
ENDBRANCH  11  12
ENDBRANCH  10  11
ENDBRANCH   1  10
TORSDOF 9
ENDMDL
MODEL 3
REMARK VINA RESULT:      -4.9      0.945      1.577
REMARK  Name = 24250
REMARK  9 active torsions:
REMARK  status: ('A' for Active; 'I' for Inactive)
REMARK    1  A    between atoms: C_1  and  C_2
REMARK    2  A    between atoms: C_1  and  C_10
REMARK    3  A    between atoms: C_2  and  C_3
REMARK    4  A    between atoms: C_3  and  C_4
REMARK    5  A    between atoms: C_4  and  C_5
REMARK    6  A    between atoms: C_5  and  N_6
REMARK    7  A    between atoms: C_10  and  C_11
REMARK    8  A    between atoms: C_11  and  C_12
REMARK    9  A    between atoms: C_12  and  N_13
REMARK                            x       y       z     vdW  Elec       q    Type
REMARK                         _______ _______ _______ _____ _____    ______ ____
ROOT
ATOM      1  C   UNL     1      35.463 -18.725 -22.670  0.00  0.00    -0.000 C 
ENDROOT
BRANCH   1   2
ATOM      2  C   UNL     1      34.985 -19.514 -21.450  0.00  0.00    -0.000 C 
BRANCH   2   3
ATOM      3  C   UNL     1      33.572 -19.096 -21.035  0.00  0.00    -0.002 C 
BRANCH   3   4
ATOM      4  C   UNL     1      32.856 -20.226 -20.290  0.00  0.00    -0.024 C 
BRANCH   4   5
ATOM      5  C   UNL     1      33.816 -21.265 -19.708  0.00  0.00    -0.086 C 
BRANCH   5   6
ATOM      6  N   UNL     1      33.107 -22.402 -19.134  0.00  0.00    +0.380 N 
ATOM      7  H   UNL     1      32.410 -22.067 -18.468  0.00  0.00    -0.089 HD
ATOM      8  H   UNL     1      33.770 -23.010 -18.654  0.00  0.00    -0.089 HD
ATOM      9  H   UNL     1      32.643 -22.924 -19.877  0.00  0.00    -0.089 HD
ENDBRANCH   5   6
ENDBRANCH   4   5
ENDBRANCH   3   4
ENDBRANCH   2   3
ENDBRANCH   1   2
BRANCH   1  10
ATOM     10  C   UNL     1      34.936 -19.336 -23.970  0.00  0.00    -0.002 C 
BRANCH  10  11
ATOM     11  C   UNL     1      34.481 -18.249 -24.950  0.00  0.00    -0.024 C 
BRANCH  11  12
ATOM     12  C   UNL     1      34.610 -16.835 -24.381  0.00  0.00    -0.086 C 
BRANCH  12  13
ATOM     13  N   UNL     1      33.805 -15.873 -25.124  0.00  0.00    +0.380 N 
ATOM     14  H   UNL     1      34.376 -15.441 -25.850  0.00  0.00    -0.089 HD
ATOM     15  H   UNL     1      33.460 -15.154 -24.489  0.00  0.00    -0.089 HD
ATOM     16  H   UNL     1      33.014 -16.353 -25.556  0.00  0.00    -0.089 HD
ENDBRANCH  12  13
ENDBRANCH  11  12
ENDBRANCH  10  11
ENDBRANCH   1  10
TORSDOF 9
ENDMDL
MODEL 4
REMARK VINA RESULT:      -4.8      2.043      2.240
REMARK  Name = 24250
REMARK  9 active torsions:
REMARK  status: ('A' for Active; 'I' for Inactive)
REMARK    1  A    between atoms: C_1  and  C_2
REMARK    2  A    between atoms: C_1  and  C_10
REMARK    3  A    between atoms: C_2  and  C_3
REMARK    4  A    between atoms: C_3  and  C_4
REMARK    5  A    between atoms: C_4  and  C_5
REMARK    6  A    between atoms: C_5  and  N_6
REMARK    7  A    between atoms: C_10  and  C_11
REMARK    8  A    between atoms: C_11  and  C_12
REMARK    9  A    between atoms: C_12  and  N_13
REMARK                            x       y       z     vdW  Elec       q    Type
REMARK                         _______ _______ _______ _____ _____    ______ ____
ROOT
ATOM      1  C   UNL     1      34.891 -19.828 -20.690  0.00  0.00    -0.000 C 
ENDROOT
BRANCH   1   2
ATOM      2  C   UNL     1      33.851 -20.781 -20.099  0.00  0.00    -0.000 C 
BRANCH   2   3
ATOM      3  C   UNL     1      34.498 -21.786 -19.142  0.00  0.00    -0.002 C 
BRANCH   3   4
ATOM      4  C   UNL     1      36.003 -21.537 -19.011  0.00  0.00    -0.024 C 
BRANCH   4   5
ATOM      5  C   UNL     1      36.555 -21.902 -17.633  0.00  0.00    -0.086 C 
BRANCH   5   6
ATOM      6  N   UNL     1      37.261 -20.787 -17.014  0.00  0.00    +0.380 N 
ATOM      7  H   UNL     1      36.753 -19.921 -17.195  0.00  0.00    -0.089 HD
ATOM      8  H   UNL     1      38.199 -20.718 -17.408  0.00  0.00    -0.089 HD
ATOM      9  H   UNL     1      37.325 -20.941 -16.009  0.00  0.00    -0.089 HD
ENDBRANCH   5   6
ENDBRANCH   4   5
ENDBRANCH   3   4
ENDBRANCH   2   3
ENDBRANCH   1   2
BRANCH   1  10
ATOM     10  C   UNL     1      34.265 -18.897 -21.730  0.00  0.00    -0.002 C 
BRANCH  10  11
ATOM     11  C   UNL     1      34.791 -19.202 -23.137  0.00  0.00    -0.024 C 
BRANCH  11  12
ATOM     12  C   UNL     1      34.851 -17.966 -24.037  0.00  0.00    -0.086 C 
BRANCH  12  13
ATOM     13  N   UNL     1      35.657 -16.903 -23.450  0.00  0.00    +0.380 N 
ATOM     14  H   UNL     1      35.067 -16.092 -23.265  0.00  0.00    -0.089 HD
ATOM     15  H   UNL     1      36.400 -16.641 -24.098  0.00  0.00    -0.089 HD
ATOM     16  H   UNL     1      36.068 -17.231 -22.576  0.00  0.00    -0.089 HD
ENDBRANCH  12  13
ENDBRANCH  11  12
ENDBRANCH  10  11
ENDBRANCH   1  10
TORSDOF 9
ENDMDL
MODEL 5
REMARK VINA RESULT:      -4.8      1.176      5.917
REMARK  Name = 24250
REMARK  9 active torsions:
REMARK  status: ('A' for Active; 'I' for Inactive)
REMARK    1  A    between atoms: C_1  and  C_2
REMARK    2  A    between atoms: C_1  and  C_10
REMARK    3  A    between atoms: C_2  and  C_3
REMARK    4  A    between atoms: C_3  and  C_4
REMARK    5  A    between atoms: C_4  and  C_5
REMARK    6  A    between atoms: C_5  and  N_6
REMARK    7  A    between atoms: C_10  and  C_11
REMARK    8  A    between atoms: C_11  and  C_12
REMARK    9  A    between atoms: C_12  and  N_13
REMARK                            x       y       z     vdW  Elec       q    Type
REMARK                         _______ _______ _______ _____ _____    ______ ____
ROOT
ATOM      1  C   UNL     1      35.126 -18.323 -21.474  0.00  0.00    -0.000 C 
ENDROOT
BRANCH   1   2
ATOM      2  C   UNL     1      35.715 -18.286 -22.886  0.00  0.00    -0.000 C 
BRANCH   2   3
ATOM      3  C   UNL     1      34.785 -18.965 -23.894  0.00  0.00    -0.002 C 
BRANCH   3   4
ATOM      4  C   UNL     1      34.508 -18.054 -25.093  0.00  0.00    -0.024 C 
BRANCH   4   5
ATOM      5  C   UNL     1      34.476 -16.570 -24.725  0.00  0.00    -0.086 C 
BRANCH   5   6
ATOM      6  N   UNL     1      33.660 -15.795 -25.652  0.00  0.00    +0.380 N 
ATOM      7  H   UNL     1      33.960 -15.984 -26.608  0.00  0.00    -0.089 HD
ATOM      8  H   UNL     1      33.769 -14.801 -25.452  0.00  0.00    -0.089 HD
ATOM      9  H   UNL     1      32.681 -16.058 -25.544  0.00  0.00    -0.089 HD
ENDBRANCH   5   6
ENDBRANCH   4   5
ENDBRANCH   3   4
ENDBRANCH   2   3
ENDBRANCH   1   2
BRANCH   1  10
ATOM     10  C   UNL     1      33.973 -19.323 -21.378  0.00  0.00    -0.002 C 
BRANCH  10  11
ATOM     11  C   UNL     1      34.284 -20.434 -20.370  0.00  0.00    -0.024 C 
BRANCH  11  12
ATOM     12  C   UNL     1      33.043 -20.945 -19.636  0.00  0.00    -0.086 C 
BRANCH  12  13
ATOM     13  N   UNL     1      33.133 -22.370 -19.340  0.00  0.00    +0.380 N 
ATOM     14  H   UNL     1      34.079 -22.697 -19.530  0.00  0.00    -0.089 HD
ATOM     15  H   UNL     1      32.473 -22.881 -19.926  0.00  0.00    -0.089 HD
ATOM     16  H   UNL     1      32.909 -22.528 -18.357  0.00  0.00    -0.089 HD
ENDBRANCH  12  13
ENDBRANCH  11  12
ENDBRANCH  10  11
ENDBRANCH   1  10
TORSDOF 9
ENDMDL
MODEL 6
REMARK VINA RESULT:      -4.7      2.267      6.022
REMARK  Name = 24250
REMARK  9 active torsions:
REMARK  status: ('A' for Active; 'I' for Inactive)
REMARK    1  A    between atoms: C_1  and  C_2
REMARK    2  A    between atoms: C_1  and  C_10
REMARK    3  A    between atoms: C_2  and  C_3
REMARK    4  A    between atoms: C_3  and  C_4
REMARK    5  A    between atoms: C_4  and  C_5
REMARK    6  A    between atoms: C_5  and  N_6
REMARK    7  A    between atoms: C_10  and  C_11
REMARK    8  A    between atoms: C_11  and  C_12
REMARK    9  A    between atoms: C_12  and  N_13
REMARK                            x       y       z     vdW  Elec       q    Type
REMARK                         _______ _______ _______ _____ _____    ______ ____
ROOT
ATOM      1  C   UNL     1      35.462 -18.034 -22.389  0.00  0.00    -0.000 C 
ENDROOT
BRANCH   1   2
ATOM      2  C   UNL     1      35.082 -17.106 -21.234  0.00  0.00    -0.000 C 
BRANCH   2   3
ATOM      3  C   UNL     1      34.633 -15.735 -21.747  0.00  0.00    -0.002 C 
BRANCH   3   4
ATOM      4  C   UNL     1      34.685 -15.671 -23.277  0.00  0.00    -0.024 C 
BRANCH   4   5
ATOM      5  C   UNL     1      33.776 -14.591 -23.864  0.00  0.00    -0.086 C 
BRANCH   5   6
ATOM      6  N   UNL     1      34.183 -13.253 -23.452  0.00  0.00    +0.380 N 
ATOM      7  H   UNL     1      33.678 -12.990 -22.605  0.00  0.00    -0.089 HD
ATOM      8  H   UNL     1      33.969 -12.588 -24.195  0.00  0.00    -0.089 HD
ATOM      9  H   UNL     1      35.185 -13.244 -23.266  0.00  0.00    -0.089 HD
ENDBRANCH   5   6
ENDBRANCH   4   5
ENDBRANCH   3   4
ENDBRANCH   2   3
ENDBRANCH   1   2
BRANCH   1  10
ATOM     10  C   UNL     1      34.725 -19.372 -22.295  0.00  0.00    -0.002 C 
BRANCH  10  11
ATOM     11  C   UNL     1      34.385 -19.716 -20.841  0.00  0.00    -0.024 C 
BRANCH  11  12
ATOM     12  C   UNL     1      32.914 -20.083 -20.639  0.00  0.00    -0.086 C 
BRANCH  12  13
ATOM     13  N   UNL     1      32.721 -20.941 -19.477  0.00  0.00    +0.380 N 
ATOM     14  H   UNL     1      31.746 -21.235 -19.430  0.00  0.00    -0.089 HD
ATOM     15  H   UNL     1      32.961 -20.426 -18.630  0.00  0.00    -0.089 HD
ATOM     16  H   UNL     1      33.321 -21.763 -19.557  0.00  0.00    -0.089 HD
ENDBRANCH  12  13
ENDBRANCH  11  12
ENDBRANCH  10  11
ENDBRANCH   1  10
TORSDOF 9
ENDMDL
MODEL 7
REMARK VINA RESULT:      -4.7      2.728      3.290
REMARK  Name = 24250
REMARK  9 active torsions:
REMARK  status: ('A' for Active; 'I' for Inactive)
REMARK    1  A    between atoms: C_1  and  C_2
REMARK    2  A    between atoms: C_1  and  C_10
REMARK    3  A    between atoms: C_2  and  C_3
REMARK    4  A    between atoms: C_3  and  C_4
REMARK    5  A    between atoms: C_4  and  C_5
REMARK    6  A    between atoms: C_5  and  N_6
REMARK    7  A    between atoms: C_10  and  C_11
REMARK    8  A    between atoms: C_11  and  C_12
REMARK    9  A    between atoms: C_12  and  N_13
REMARK                            x       y       z     vdW  Elec       q    Type
REMARK                         _______ _______ _______ _____ _____    ______ ____
ROOT
ATOM      1  C   UNL     1      34.961 -16.794 -20.979  0.00  0.00    -0.000 C 
ENDROOT
BRANCH   1   2
ATOM      2  C   UNL     1      34.579 -17.378 -22.341  0.00  0.00    -0.000 C 
BRANCH   2   3
ATOM      3  C   UNL     1      34.604 -18.909 -22.316  0.00  0.00    -0.002 C 
BRANCH   3   4
ATOM      4  C   UNL     1      34.332 -19.445 -20.907  0.00  0.00    -0.024 C 
BRANCH   4   5
ATOM      5  C   UNL     1      32.888 -19.909 -20.710  0.00  0.00    -0.086 C 
BRANCH   5   6
ATOM      6  N   UNL     1      32.775 -20.902 -19.649  0.00  0.00    +0.380 N 
ATOM      7  H   UNL     1      32.919 -21.834 -20.038  0.00  0.00    -0.089 HD
ATOM      8  H   UNL     1      31.846 -20.849 -19.231  0.00  0.00    -0.089 HD
ATOM      9  H   UNL     1      33.480 -20.719 -18.935  0.00  0.00    -0.089 HD
ENDBRANCH   5   6
ENDBRANCH   4   5
ENDBRANCH   3   4
ENDBRANCH   2   3
ENDBRANCH   1   2
BRANCH   1  10
ATOM     10  C   UNL     1      34.324 -15.419 -20.765  0.00  0.00    -0.002 C 
BRANCH  10  11
ATOM     11  C   UNL     1      33.016 -15.285 -21.551  0.00  0.00    -0.024 C 
BRANCH  11  12
ATOM     12  C   UNL     1      32.973 -14.037 -22.437  0.00  0.00    -0.086 C 
BRANCH  12  13
ATOM     13  N   UNL     1      34.269 -13.752 -23.039  0.00  0.00    +0.380 N 
ATOM     14  H   UNL     1      34.540 -14.526 -23.645  0.00  0.00    -0.089 HD
ATOM     15  H   UNL     1      34.968 -13.634 -22.305  0.00  0.00    -0.089 HD
ATOM     16  H   UNL     1      34.207 -12.895 -23.590  0.00  0.00    -0.089 HD
ENDBRANCH  12  13
ENDBRANCH  11  12
ENDBRANCH  10  11
ENDBRANCH   1  10
TORSDOF 9
ENDMDL
MODEL 8
REMARK VINA RESULT:      -4.7      1.840      2.167
REMARK  Name = 24250
REMARK  9 active torsions:
REMARK  status: ('A' for Active; 'I' for Inactive)
REMARK    1  A    between atoms: C_1  and  C_2
REMARK    2  A    between atoms: C_1  and  C_10
REMARK    3  A    between atoms: C_2  and  C_3
REMARK    4  A    between atoms: C_3  and  C_4
REMARK    5  A    between atoms: C_4  and  C_5
REMARK    6  A    between atoms: C_5  and  N_6
REMARK    7  A    between atoms: C_10  and  C_11
REMARK    8  A    between atoms: C_11  and  C_12
REMARK    9  A    between atoms: C_12  and  N_13
REMARK                            x       y       z     vdW  Elec       q    Type
REMARK                         _______ _______ _______ _____ _____    ______ ____
ROOT
ATOM      1  C   UNL     1      35.897 -18.597 -21.958  0.00  0.00    -0.000 C 
ENDROOT
BRANCH   1   2
ATOM      2  C   UNL     1      35.137 -19.565 -21.049  0.00  0.00    -0.000 C 
BRANCH   2   3
ATOM      3  C   UNL     1      33.640 -19.247 -21.025  0.00  0.00    -0.002 C 
BRANCH   3   4
ATOM      4  C   UNL     1      32.853 -20.338 -20.294  0.00  0.00    -0.024 C 
BRANCH   4   5
ATOM      5  C   UNL     1      33.750 -21.346 -19.574  0.00  0.00    -0.086 C 
BRANCH   5   6
ATOM      6  N   UNL     1      32.976 -22.354 -18.861  0.00  0.00    +0.380 N 
ATOM      7  H   UNL     1      32.360 -22.836 -19.516  0.00  0.00    -0.089 HD
ATOM      8  H   UNL     1      32.417 -21.904 -18.137  0.00  0.00    -0.089 HD
ATOM      9  H   UNL     1      33.609 -23.028 -18.432  0.00  0.00    -0.089 HD
ENDBRANCH   5   6
ENDBRANCH   4   5
ENDBRANCH   3   4
ENDBRANCH   2   3
ENDBRANCH   1   2
BRANCH   1  10
ATOM     10  C   UNL     1      34.954 -17.898 -22.939  0.00  0.00    -0.002 C 
BRANCH  10  11
ATOM     11  C   UNL     1      35.182 -16.383 -22.946  0.00  0.00    -0.024 C 
BRANCH  11  12
ATOM     12  C   UNL     1      34.192 -15.622 -22.063  0.00  0.00    -0.086 C 
BRANCH  12  13
ATOM     13  N   UNL     1      34.578 -15.657 -20.657  0.00  0.00    +0.380 N 
ATOM     14  H   UNL     1      34.086 -14.920 -20.152  0.00  0.00    -0.089 HD
ATOM     15  H   UNL     1      35.584 -15.512 -20.576  0.00  0.00    -0.089 HD
ATOM     16  H   UNL     1      34.332 -16.564 -20.259  0.00  0.00    -0.089 HD
ENDBRANCH  12  13
ENDBRANCH  11  12
ENDBRANCH  10  11
ENDBRANCH   1  10
TORSDOF 9
ENDMDL
MODEL 9
REMARK VINA RESULT:      -4.7      1.913      5.787
REMARK  Name = 24250
REMARK  9 active torsions:
REMARK  status: ('A' for Active; 'I' for Inactive)
REMARK    1  A    between atoms: C_1  and  C_2
REMARK    2  A    between atoms: C_1  and  C_10
REMARK    3  A    between atoms: C_2  and  C_3
REMARK    4  A    between atoms: C_3  and  C_4
REMARK    5  A    between atoms: C_4  and  C_5
REMARK    6  A    between atoms: C_5  and  N_6
REMARK    7  A    between atoms: C_10  and  C_11
REMARK    8  A    between atoms: C_11  and  C_12
REMARK    9  A    between atoms: C_12  and  N_13
REMARK                            x       y       z     vdW  Elec       q    Type
REMARK                         _______ _______ _______ _____ _____    ______ ____
ROOT
ATOM      1  C   UNL     1      33.458 -20.933 -19.827  0.00  0.00    -0.000 C 
ENDROOT
BRANCH   1   2
ATOM      2  C   UNL     1      33.140 -19.851 -20.861  0.00  0.00    -0.000 C 
BRANCH   2   3
ATOM      3  C   UNL     1      34.403 -19.094 -21.280  0.00  0.00    -0.002 C 
BRANCH   3   4
ATOM      4  C   UNL     1      34.712 -19.309 -22.764  0.00  0.00    -0.024 C 
BRANCH   4   5
ATOM      5  C   UNL     1      34.707 -18.012 -23.573  0.00  0.00    -0.086 C 
BRANCH   5   6
ATOM      6  N   UNL     1      35.757 -17.097 -23.143  0.00  0.00    +0.380 N 
ATOM      7  H   UNL     1      35.878 -17.170 -22.132  0.00  0.00    -0.089 HD
ATOM      8  H   UNL     1      35.497 -16.141 -23.385  0.00  0.00    -0.089 HD
ATOM      9  H   UNL     1      36.631 -17.339 -23.609  0.00  0.00    -0.089 HD
ENDBRANCH   5   6
ENDBRANCH   4   5
ENDBRANCH   3   4
ENDBRANCH   2   3
ENDBRANCH   1   2
BRANCH   1  10
ATOM     10  C   UNL     1      34.961 -21.209 -19.754  0.00  0.00    -0.002 C 
BRANCH  10  11
ATOM     11  C   UNL     1      35.315 -22.026 -18.507  0.00  0.00    -0.024 C 
BRANCH  11  12
ATOM     12  C   UNL     1      36.695 -21.688 -17.939  0.00  0.00    -0.086 C 
BRANCH  12  13
ATOM     13  N   UNL     1      36.926 -22.331 -16.651  0.00  0.00    +0.380 N 
ATOM     14  H   UNL     1      36.720 -21.672 -15.901  0.00  0.00    -0.089 HD
ATOM     15  H   UNL     1      37.901 -22.625 -16.587  0.00  0.00    -0.089 HD
ATOM     16  H   UNL     1      36.319 -23.147 -16.564  0.00  0.00    -0.089 HD
ENDBRANCH  12  13
ENDBRANCH  11  12
ENDBRANCH  10  11
ENDBRANCH   1  10
TORSDOF 9
ENDMDL
