MODEL 1
REMARK VINA RESULT:      -7.1      0.000      0.000
REMARK  Name = 7047041
REMARK  4 active torsions:
REMARK  status: ('A' for Active; 'I' for Inactive)
REMARK    1  A    between atoms: CA_1  and  N_2
REMARK    2  A    between atoms: CA_1  and  C_8
REMARK    3  A    between atoms: CA_1  and  C_9
REMARK    4  A    between atoms: C_9  and  C_11
REMARK                            x       y       z     vdW  Elec       q    Type
REMARK                         _______ _______ _______ _____ _____    ______ ____
ROOT
ATOM      1  CA  UNL     1      34.577 -17.151 -23.394  0.00  0.00    +0.045 C 
ENDROOT
BRANCH   1   2
ATOM      2  N   UNL     1      34.634 -15.656 -23.331  0.00  0.00    +0.389 N 
ATOM      3  H1  UNL     1      35.557 -15.365 -23.007  0.00  0.00    -0.088 HD
ATOM      4  H2  UNL     1      33.924 -15.316 -22.682  0.00  0.00    -0.088 HD
ATOM      5  H3  UNL     1      34.461 -15.270 -24.258  0.00  0.00    -0.088 HD
ENDBRANCH   1   2
BRANCH   1   8
ATOM      6  O   UNL     1      34.446 -18.902 -24.974  0.00  0.00    -0.248 OA
ATOM      7  OXT UNL     1      34.947 -16.797 -25.712  0.00  0.00    -0.248 OA
ATOM      8  C   UNL     1      34.670 -17.665 -24.838  0.00  0.00    +0.345 C 
ENDBRANCH   1   8
BRANCH   1   9
ATOM      9  C   UNL     1      35.714 -17.691 -22.518  0.00  0.00    +0.016 C 
BRANCH   9  11
ATOM     10  I   UNL     1      33.833 -22.446 -18.738  0.00  0.00    -0.043 I 
ATOM     11  C   UNL     1      35.268 -18.820 -21.618  0.00  0.00    -0.024 C 
ATOM     12  C   UNL     1      33.915 -19.080 -21.478  0.00  0.00    -0.004 C 
ATOM     13  C   UNL     1      36.220 -19.573 -20.951  0.00  0.00    -0.004 C 
ATOM     14  C   UNL     1      33.503 -20.122 -20.648  0.00  0.00    +0.005 C 
ATOM     15  C   UNL     1      35.808 -20.616 -20.121  0.00  0.00    +0.005 C 
ATOM     16  C   UNL     1      34.449 -20.891 -19.970  0.00  0.00    +0.030 C 
ENDBRANCH   9  11
ENDBRANCH   1   9
TORSDOF 4
ENDMDL
MODEL 2
REMARK VINA RESULT:      -7.1      0.044      1.613
REMARK  Name = 7047041
REMARK  4 active torsions:
REMARK  status: ('A' for Active; 'I' for Inactive)
REMARK    1  A    between atoms: CA_1  and  N_2
REMARK    2  A    between atoms: CA_1  and  C_8
REMARK    3  A    between atoms: CA_1  and  C_9
REMARK    4  A    between atoms: C_9  and  C_11
REMARK                            x       y       z     vdW  Elec       q    Type
REMARK                         _______ _______ _______ _____ _____    ______ ____
ROOT
ATOM      1  CA  UNL     1      34.575 -17.118 -23.402  0.00  0.00    +0.045 C 
ENDROOT
BRANCH   1   2
ATOM      2  N   UNL     1      34.636 -15.622 -23.380  0.00  0.00    +0.389 N 
ATOM      3  H1  UNL     1      33.871 -15.243 -23.938  0.00  0.00    -0.088 HD
ATOM      4  H2  UNL     1      35.526 -15.312 -23.770  0.00  0.00    -0.088 HD
ATOM      5  H3  UNL     1      34.553 -15.292 -22.419  0.00  0.00    -0.088 HD
ENDBRANCH   1   2
BRANCH   1   8
ATOM      6  O   UNL     1      34.919 -16.806 -25.718  0.00  0.00    -0.248 OA
ATOM      7  OXT UNL     1      34.502 -18.918 -24.948  0.00  0.00    -0.248 OA
ATOM      8  C   UNL     1      34.671 -17.672 -24.831  0.00  0.00    +0.345 C 
ENDBRANCH   1   8
BRANCH   1   9
ATOM      9  C   UNL     1      35.706 -17.638 -22.507  0.00  0.00    +0.016 C 
BRANCH   9  11
ATOM     10  I   UNL     1      33.870 -22.444 -18.771  0.00  0.00    -0.043 I 
ATOM     11  C   UNL     1      35.269 -18.780 -21.621  0.00  0.00    -0.024 C 
ATOM     12  C   UNL     1      36.228 -19.549 -20.984  0.00  0.00    -0.004 C 
ATOM     13  C   UNL     1      33.917 -19.038 -21.463  0.00  0.00    -0.004 C 
ATOM     14  C   UNL     1      35.826 -20.604 -20.165  0.00  0.00    +0.005 C 
ATOM     15  C   UNL     1      33.514 -20.093 -20.644  0.00  0.00    +0.005 C 
ATOM     16  C   UNL     1      34.468 -20.875 -19.995  0.00  0.00    +0.030 C 
ENDBRANCH   9  11
ENDBRANCH   1   9
TORSDOF 4
ENDMDL
MODEL 3
REMARK VINA RESULT:      -7.0      2.281      2.527
REMARK  Name = 7047041
REMARK  4 active torsions:
REMARK  status: ('A' for Active; 'I' for Inactive)
REMARK    1  A    between atoms: CA_1  and  N_2
REMARK    2  A    between atoms: CA_1  and  C_8
REMARK    3  A    between atoms: CA_1  and  C_9
REMARK    4  A    between atoms: C_9  and  C_11
REMARK                            x       y       z     vdW  Elec       q    Type
REMARK                         _______ _______ _______ _____ _____    ______ ____
ROOT
ATOM      1  CA  UNL     1      35.239 -17.340 -22.108  0.00  0.00    +0.045 C 
ENDROOT
BRANCH   1   2
ATOM      2  N   UNL     1      35.622 -16.590 -23.346  0.00  0.00    +0.389 N 
ATOM      3  H1  UNL     1      36.209 -17.182 -23.934  0.00  0.00    -0.088 HD
ATOM      4  H2  UNL     1      36.138 -15.749 -23.089  0.00  0.00    -0.088 HD
ATOM      5  H3  UNL     1      34.780 -16.329 -23.859  0.00  0.00    -0.088 HD
ENDBRANCH   1   2
BRANCH   1   8
ATOM      6  O   UNL     1      35.100 -16.173 -20.059  0.00  0.00    -0.248 OA
ATOM      7  OXT UNL     1      33.311 -16.105 -21.481  0.00  0.00    -0.248 OA
ATOM      8  C   UNL     1      34.469 -16.453 -21.118  0.00  0.00    +0.345 C 
ENDBRANCH   1   8
BRANCH   1   9
ATOM      9  C   UNL     1      34.419 -18.560 -22.544  0.00  0.00    +0.016 C 
BRANCH   9  11
ATOM     10  I   UNL     1      33.772 -22.870 -17.915  0.00  0.00    -0.043 I 
ATOM     11  C   UNL     1      34.267 -19.582 -21.443  0.00  0.00    -0.024 C 
ATOM     12  C   UNL     1      33.003 -19.870 -20.956  0.00  0.00    -0.004 C 
ATOM     13  C   UNL     1      35.394 -20.214 -20.942  0.00  0.00    -0.004 C 
ATOM     14  C   UNL     1      32.861 -20.815 -19.940  0.00  0.00    +0.005 C 
ATOM     15  C   UNL     1      35.251 -21.158 -19.925  0.00  0.00    +0.005 C 
ATOM     16  C   UNL     1      33.985 -21.460 -19.425  0.00  0.00    +0.030 C 
ENDBRANCH   9  11
ENDBRANCH   1   9
TORSDOF 4
ENDMDL
MODEL 4
REMARK VINA RESULT:      -7.0      1.369      1.552
REMARK  Name = 7047041
REMARK  4 active torsions:
REMARK  status: ('A' for Active; 'I' for Inactive)
REMARK    1  A    between atoms: CA_1  and  N_2
REMARK    2  A    between atoms: CA_1  and  C_8
REMARK    3  A    between atoms: CA_1  and  C_9
REMARK    4  A    between atoms: C_9  and  C_11
REMARK                            x       y       z     vdW  Elec       q    Type
REMARK                         _______ _______ _______ _____ _____    ______ ____
ROOT
ATOM      1  CA  UNL     1      34.681 -17.549 -22.081  0.00  0.00    +0.045 C 
ENDROOT
BRANCH   1   2
ATOM      2  N   UNL     1      34.998 -16.637 -20.937  0.00  0.00    +0.389 N 
ATOM      3  H1  UNL     1      35.239 -15.713 -21.296  0.00  0.00    -0.088 HD
ATOM      4  H2  UNL     1      35.786 -17.013 -20.411  0.00  0.00    -0.088 HD
ATOM      5  H3  UNL     1      34.185 -16.563 -20.326  0.00  0.00    -0.088 HD
ENDBRANCH   1   2
BRANCH   1   8
ATOM      6  O   UNL     1      34.436 -17.513 -24.430  0.00  0.00    -0.248 OA
ATOM      7  OXT UNL     1      35.305 -15.671 -23.392  0.00  0.00    -0.248 OA
ATOM      8  C   UNL     1      34.826 -16.838 -23.435  0.00  0.00    +0.345 C 
ENDBRANCH   1   8
BRANCH   1   9
ATOM      9  C   UNL     1      35.607 -18.766 -21.969  0.00  0.00    +0.016 C 
BRANCH   9  11
ATOM     10  I   UNL     1      33.485 -23.081 -17.809  0.00  0.00    -0.043 I 
ATOM     11  C   UNL     1      35.104 -19.790 -20.979  0.00  0.00    -0.024 C 
ATOM     12  C   UNL     1      33.740 -19.941 -20.795  0.00  0.00    -0.004 C 
ATOM     13  C   UNL     1      36.016 -20.559 -20.275  0.00  0.00    -0.004 C 
ATOM     14  C   UNL     1      33.274 -20.887 -19.882  0.00  0.00    +0.005 C 
ATOM     15  C   UNL     1      35.550 -21.505 -19.362  0.00  0.00    +0.005 C 
ATOM     16  C   UNL     1      34.180 -21.670 -19.165  0.00  0.00    +0.030 C 
ENDBRANCH   9  11
ENDBRANCH   1   9
TORSDOF 4
ENDMDL
MODEL 5
REMARK VINA RESULT:      -7.0      1.381      2.198
REMARK  Name = 7047041
REMARK  4 active torsions:
REMARK  status: ('A' for Active; 'I' for Inactive)
REMARK    1  A    between atoms: CA_1  and  N_2
REMARK    2  A    between atoms: CA_1  and  C_8
REMARK    3  A    between atoms: CA_1  and  C_9
REMARK    4  A    between atoms: C_9  and  C_11
REMARK                            x       y       z     vdW  Elec       q    Type
REMARK                         _______ _______ _______ _____ _____    ______ ____
ROOT
ATOM      1  CA  UNL     1      34.716 -17.605 -22.073  0.00  0.00    +0.045 C 
ENDROOT
BRANCH   1   2
ATOM      2  N   UNL     1      34.999 -16.686 -20.925  0.00  0.00    +0.389 N 
ATOM      3  H1  UNL     1      34.249 -15.998 -20.848  0.00  0.00    -0.088 HD
ATOM      4  H2  UNL     1      35.884 -16.206 -21.083  0.00  0.00    -0.088 HD
ATOM      5  H3  UNL     1      35.054 -17.226 -20.062  0.00  0.00    -0.088 HD
ENDBRANCH   1   2
BRANCH   1   8
ATOM      6  O   UNL     1      35.283 -15.699 -23.348  0.00  0.00    -0.248 OA
ATOM      7  OXT UNL     1      34.650 -17.601 -24.446  0.00  0.00    -0.248 OA
ATOM      8  C   UNL     1      34.897 -16.900 -23.425  0.00  0.00    +0.345 C 
ENDBRANCH   1   8
BRANCH   1   9
ATOM      9  C   UNL     1      35.642 -18.818 -21.929  0.00  0.00    +0.016 C 
BRANCH   9  11
ATOM     10  I   UNL     1      33.448 -23.090 -17.761  0.00  0.00    -0.043 I 
ATOM     11  C   UNL     1      35.119 -19.834 -20.941  0.00  0.00    -0.024 C 
ATOM     12  C   UNL     1      36.019 -20.602 -20.220  0.00  0.00    -0.004 C 
ATOM     13  C   UNL     1      33.752 -19.979 -20.773  0.00  0.00    -0.004 C 
ATOM     14  C   UNL     1      35.538 -21.540 -19.306  0.00  0.00    +0.005 C 
ATOM     15  C   UNL     1      33.271 -20.916 -19.860  0.00  0.00    +0.005 C 
ATOM     16  C   UNL     1      34.164 -21.696 -19.126  0.00  0.00    +0.030 C 
ENDBRANCH   9  11
ENDBRANCH   1   9
TORSDOF 4
ENDMDL
MODEL 6
REMARK VINA RESULT:      -6.7      5.731      7.239
REMARK  Name = 7047041
REMARK  4 active torsions:
REMARK  status: ('A' for Active; 'I' for Inactive)
REMARK    1  A    between atoms: CA_1  and  N_2
REMARK    2  A    between atoms: CA_1  and  C_8
REMARK    3  A    between atoms: CA_1  and  C_9
REMARK    4  A    between atoms: C_9  and  C_11
REMARK                            x       y       z     vdW  Elec       q    Type
REMARK                         _______ _______ _______ _____ _____    ______ ____
ROOT
ATOM      1  CA  UNL     1      33.354 -22.905 -16.949  0.00  0.00    +0.045 C 
ENDROOT
BRANCH   1   2
ATOM      2  N   UNL     1      31.931 -23.294 -16.691  0.00  0.00    +0.389 N 
ATOM      3  H1  UNL     1      31.806 -24.284 -16.906  0.00  0.00    -0.088 HD
ATOM      4  H2  UNL     1      31.314 -22.738 -17.282  0.00  0.00    -0.088 HD
ATOM      5  H3  UNL     1      31.705 -23.128 -15.711  0.00  0.00    -0.088 HD
ENDBRANCH   1   2
BRANCH   1   8
ATOM      6  O   UNL     1      33.794 -23.926 -14.865  0.00  0.00    -0.248 OA
ATOM      7  OXT UNL     1      35.507 -23.713 -16.363  0.00  0.00    -0.248 OA
ATOM      8  C   UNL     1      34.318 -23.579 -15.961  0.00  0.00    +0.345 C 
ENDBRANCH   1   8
BRANCH   1   9
ATOM      9  C   UNL     1      33.674 -23.269 -18.403  0.00  0.00    +0.016 C 
BRANCH   9  11
ATOM     10  I   UNL     1      35.439 -18.225 -21.849  0.00  0.00    -0.043 I 
ATOM     11  C   UNL     1      34.094 -22.073 -19.224  0.00  0.00    -0.024 C 
ATOM     12  C   UNL     1      33.125 -21.216 -19.718  0.00  0.00    -0.004 C 
ATOM     13  C   UNL     1      35.441 -21.854 -19.465  0.00  0.00    -0.004 C 
ATOM     14  C   UNL     1      33.512 -20.110 -20.475  0.00  0.00    +0.005 C 
ATOM     15  C   UNL     1      35.828 -20.748 -20.221  0.00  0.00    +0.005 C 
ATOM     16  C   UNL     1      34.863 -19.876 -20.726  0.00  0.00    +0.030 C 
ENDBRANCH   9  11
ENDBRANCH   1   9
TORSDOF 4
ENDMDL
MODEL 7
REMARK VINA RESULT:      -6.7      5.238      6.375
REMARK  Name = 7047041
REMARK  4 active torsions:
REMARK  status: ('A' for Active; 'I' for Inactive)
REMARK    1  A    between atoms: CA_1  and  N_2
REMARK    2  A    between atoms: CA_1  and  C_8
REMARK    3  A    between atoms: CA_1  and  C_9
REMARK    4  A    between atoms: C_9  and  C_11
REMARK                            x       y       z     vdW  Elec       q    Type
REMARK                         _______ _______ _______ _____ _____    ______ ____
ROOT
ATOM      1  CA  UNL     1      34.094 -22.509 -18.702  0.00  0.00    +0.045 C 
ENDROOT
BRANCH   1   2
ATOM      2  N   UNL     1      33.825 -23.609 -19.682  0.00  0.00    +0.389 N 
ATOM      3  H1  UNL     1      33.378 -23.221 -20.513  0.00  0.00    -0.088 HD
ATOM      4  H2  UNL     1      33.207 -24.300 -19.256  0.00  0.00    -0.088 HD
ATOM      5  H3  UNL     1      34.704 -24.053 -19.944  0.00  0.00    -0.088 HD
ENDBRANCH   1   2
BRANCH   1   8
ATOM      6  O   UNL     1      32.893 -23.222 -16.797  0.00  0.00    -0.248 OA
ATOM      7  OXT UNL     1      35.177 -23.168 -16.695  0.00  0.00    -0.248 OA
ATOM      8  C   UNL     1      34.054 -23.014 -17.252  0.00  0.00    +0.345 C 
ENDBRANCH   1   8
BRANCH   1   9
ATOM      9  C   UNL     1      35.453 -21.896 -19.060  0.00  0.00    +0.016 C 
BRANCH   9  11
ATOM     10  I   UNL     1      34.920 -16.803 -22.829  0.00  0.00    -0.043 I 
ATOM     11  C   UNL     1      35.328 -20.687 -19.957  0.00  0.00    -0.024 C 
ATOM     12  C   UNL     1      34.072 -20.283 -20.377  0.00  0.00    -0.004 C 
ATOM     13  C   UNL     1      36.471 -20.006 -20.342  0.00  0.00    -0.004 C 
ATOM     14  C   UNL     1      33.955 -19.166 -21.204  0.00  0.00    +0.005 C 
ATOM     15  C   UNL     1      36.354 -18.889 -21.170  0.00  0.00    +0.005 C 
ATOM     16  C   UNL     1      35.096 -18.469 -21.600  0.00  0.00    +0.030 C 
ENDBRANCH   9  11
ENDBRANCH   1   9
TORSDOF 4
ENDMDL
MODEL 8
REMARK VINA RESULT:      -6.7      8.671      9.555
REMARK  Name = 7047041
REMARK  4 active torsions:
REMARK  status: ('A' for Active; 'I' for Inactive)
REMARK    1  A    between atoms: CA_1  and  N_2
REMARK    2  A    between atoms: CA_1  and  C_8
REMARK    3  A    between atoms: CA_1  and  C_9
REMARK    4  A    between atoms: C_9  and  C_11
REMARK                            x       y       z     vdW  Elec       q    Type
REMARK                         _______ _______ _______ _____ _____    ______ ____
ROOT
ATOM      1  CA  UNL     1      29.370 -23.811 -16.114  0.00  0.00    +0.045 C 
ENDROOT
BRANCH   1   2
ATOM      2  N   UNL     1      28.818 -24.790 -15.125  0.00  0.00    +0.389 N 
ATOM      3  H1  UNL     1      28.557 -25.651 -15.608  0.00  0.00    -0.088 HD
ATOM      4  H2  UNL     1      27.994 -24.391 -14.674  0.00  0.00    -0.088 HD
ATOM      5  H3  UNL     1      29.525 -24.997 -14.420  0.00  0.00    -0.088 HD
ENDBRANCH   1   2
BRANCH   1   8
ATOM      6  O   UNL     1      28.174 -21.892 -16.798  0.00  0.00    -0.248 OA
ATOM      7  OXT UNL     1      27.573 -23.922 -17.661  0.00  0.00    -0.248 OA
ATOM      8  C   UNL     1      28.258 -23.146 -16.939  0.00  0.00    +0.345 C 
ENDBRANCH   1   8
BRANCH   1   9
ATOM      9  C   UNL     1      30.197 -22.785 -15.332  0.00  0.00    +0.016 C 
BRANCH   9  11
ATOM     10  I   UNL     1      36.298 -24.486 -14.767  0.00  0.00    -0.043 I 
ATOM     11  C   UNL     1      31.647 -23.186 -15.198  0.00  0.00    -0.024 C 
ATOM     12  C   UNL     1      32.141 -23.539 -13.953  0.00  0.00    -0.004 C 
ATOM     13  C   UNL     1      32.456 -23.196 -16.323  0.00  0.00    -0.004 C 
ATOM     14  C   UNL     1      33.479 -23.912 -13.829  0.00  0.00    +0.005 C 
ATOM     15  C   UNL     1      33.794 -23.568 -16.199  0.00  0.00    +0.005 C 
ATOM     16  C   UNL     1      34.306 -23.927 -14.952  0.00  0.00    +0.030 C 
ENDBRANCH   9  11
ENDBRANCH   1   9
TORSDOF 4
ENDMDL
MODEL 9
REMARK VINA RESULT:      -6.6      6.098      7.710
REMARK  Name = 7047041
REMARK  4 active torsions:
REMARK  status: ('A' for Active; 'I' for Inactive)
REMARK    1  A    between atoms: CA_1  and  N_2
REMARK    2  A    between atoms: CA_1  and  C_8
REMARK    3  A    between atoms: CA_1  and  C_9
REMARK    4  A    between atoms: C_9  and  C_11
REMARK                            x       y       z     vdW  Elec       q    Type
REMARK                         _______ _______ _______ _____ _____    ______ ____
ROOT
ATOM      1  CA  UNL     1      35.277 -22.704 -15.925  0.00  0.00    +0.045 C 
ENDROOT
BRANCH   1   2
ATOM      2  N   UNL     1      34.291 -22.760 -14.800  0.00  0.00    +0.389 N 
ATOM      3  H1  UNL     1      33.979 -21.815 -14.575  0.00  0.00    -0.088 HD
ATOM      4  H2  UNL     1      34.733 -23.175 -13.980  0.00  0.00    -0.088 HD
ATOM      5  H3  UNL     1      33.490 -23.325 -15.078  0.00  0.00    -0.088 HD
ENDBRANCH   1   2
BRANCH   1   8
ATOM      6  O   UNL     1      37.585 -22.788 -15.427  0.00  0.00    -0.248 OA
ATOM      7  OXT UNL     1      36.419 -24.751 -15.549  0.00  0.00    -0.248 OA
ATOM      8  C   UNL     1      36.553 -23.497 -15.605  0.00  0.00    +0.345 C 
ENDBRANCH   1   8
BRANCH   1   9
ATOM      9  C   UNL     1      34.573 -23.232 -17.180  0.00  0.00    +0.016 C 
BRANCH   9  11
ATOM     10  I   UNL     1      34.755 -19.104 -22.013  0.00  0.00    -0.043 I 
ATOM     11  C   UNL     1      34.615 -22.250 -18.327  0.00  0.00    -0.024 C 
ATOM     12  C   UNL     1      35.840 -21.791 -18.781  0.00  0.00    -0.004 C 
ATOM     13  C   UNL     1      33.428 -21.827 -18.903  0.00  0.00    -0.004 C 
ATOM     14  C   UNL     1      35.880 -20.885 -19.841  0.00  0.00    +0.005 C 
ATOM     15  C   UNL     1      33.468 -20.921 -19.963  0.00  0.00    +0.005 C 
ATOM     16  C   UNL     1      34.694 -20.450 -20.432  0.00  0.00    +0.030 C 
ENDBRANCH   9  11
ENDBRANCH   1   9
TORSDOF 4
ENDMDL
