MODEL 1
REMARK VINA RESULT:      -9.3      0.000      0.000
REMARK  Name = 4494
REMARK  8 active torsions:
REMARK  status: ('A' for Active; 'I' for Inactive)
REMARK    1  A    between atoms: C_2  and  C_9
REMARK    2  A    between atoms: C_3  and  C_19
REMARK    3  A    between atoms: C_4  and  C_25
REMARK    4  A    between atoms: C_6  and  C_29
REMARK    5  A    between atoms: C_12  and  N_17
REMARK    6  A    between atoms: C_19  and  O_20
REMARK    7  A    between atoms: O_20  and  C_21
REMARK    8  A    between atoms: C_25  and  O_26
REMARK                            x       y       z     vdW  Elec       q    Type
REMARK                         _______ _______ _______ _____ _____    ______ ____
ROOT
ATOM      1  N   UNL     1      33.562 -23.701 -13.039  0.00  0.00    -0.322 N 
ATOM      2  C   UNL     1      33.963 -24.243 -15.803  0.00  0.00    +0.012 C 
ATOM      3  C   UNL     1      32.681 -23.615 -15.238  0.00  0.00    +0.071 C 
ATOM      4  C   UNL     1      34.936 -24.687 -14.708  0.00  0.00    +0.099 C 
ATOM      5  C   UNL     1      32.545 -23.352 -13.916  0.00  0.00    +0.099 C 
ATOM      6  C   UNL     1      34.695 -24.384 -13.419  0.00  0.00    +0.121 C 
ATOM      7  C   UNL     1      31.350 -22.698 -13.275  0.00  0.00    +0.026 C 
ATOM      8  H   UNL     1      33.467 -23.448 -12.093  0.00  0.00    +0.148 HD
ENDROOT
BRANCH   2   9
ATOM      9  C   UNL     1      34.641 -23.278 -16.733  0.00  0.00    +0.002 C 
ATOM     10  C   UNL     1      33.975 -22.833 -17.868  0.00  0.00    +0.024 C 
ATOM     11  C   UNL     1      35.929 -22.840 -16.448  0.00  0.00    +0.000 C 
ATOM     12  C   UNL     1      34.606 -21.938 -18.732  0.00  0.00    +0.143 C 
ATOM     13  C   UNL     1      36.560 -21.945 -17.312  0.00  0.00    +0.002 C 
ATOM     14  C   UNL     1      35.898 -21.494 -18.454  0.00  0.00    +0.024 C 
BRANCH  12  17
ATOM     15  O   UNL     1      34.503 -20.635 -20.628  0.00  0.00    -0.126 OA
ATOM     16  O   UNL     1      32.789 -21.928 -20.146  0.00  0.00    -0.126 OA
ATOM     17  N   UNL     1      33.932 -21.477 -19.894  0.00  0.00    +0.058 N 
ENDBRANCH  12  17
ENDBRANCH   2   9
BRANCH   3  19
ATOM     18  O   UNL     1      31.508 -22.350 -16.864  0.00  0.00    -0.245 OA
ATOM     19  C   UNL     1      31.593 -23.366 -16.199  0.00  0.00    +0.339 C 
BRANCH  19  20
ATOM     20  O   UNL     1      30.760 -24.434 -16.189  0.00  0.00    -0.449 OA
BRANCH  20  21
ATOM     21  C   UNL     1      29.442 -24.170 -15.697  0.00  0.00    +0.169 C 
ATOM     22  C   UNL     1      28.470 -24.131 -16.868  0.00  0.00    +0.047 C 
ATOM     23  C   UNL     1      29.064 -25.239 -14.683  0.00  0.00    +0.047 C 
ENDBRANCH  20  21
ENDBRANCH  19  20
ENDBRANCH   3  19
BRANCH   4  25
ATOM     24  O   UNL     1      36.036 -26.536 -15.702  0.00  0.00    -0.245 OA
ATOM     25  C   UNL     1      36.112 -25.473 -15.114  0.00  0.00    +0.343 C 
BRANCH  25  26
ATOM     26  O   UNL     1      37.227 -24.809 -14.722  0.00  0.00    -0.441 OA
ATOM     27  C   UNL     1      38.409 -25.610 -14.628  0.00  0.00    +0.256 C 
ENDBRANCH  25  26
ENDBRANCH   4  25
BRANCH   6  29
ATOM     28  N   UNL     1      36.235 -25.032 -11.452  0.00  0.00    -0.190 NA
ATOM     29  C   UNL     1      35.543 -24.740 -12.336  0.00  0.00    +0.115 C 
ENDBRANCH   6  29
TORSDOF 8
ENDMDL
MODEL 2
REMARK VINA RESULT:      -8.9      2.201      6.000
REMARK  Name = 4494
REMARK  8 active torsions:
REMARK  status: ('A' for Active; 'I' for Inactive)
REMARK    1  A    between atoms: C_2  and  C_9
REMARK    2  A    between atoms: C_3  and  C_19
REMARK    3  A    between atoms: C_4  and  C_25
REMARK    4  A    between atoms: C_6  and  C_29
REMARK    5  A    between atoms: C_12  and  N_17
REMARK    6  A    between atoms: C_19  and  O_20
REMARK    7  A    between atoms: O_20  and  C_21
REMARK    8  A    between atoms: C_25  and  O_26
REMARK                            x       y       z     vdW  Elec       q    Type
REMARK                         _______ _______ _______ _____ _____    ______ ____
ROOT
ATOM      1  N   UNL     1      36.819 -22.058 -16.894  0.00  0.00    -0.322 N 
ATOM      2  C   UNL     1      34.540 -23.755 -16.747  0.00  0.00    +0.012 C 
ATOM      3  C   UNL     1      35.720 -23.829 -15.766  0.00  0.00    +0.071 C 
ATOM      4  C   UNL     1      34.790 -22.780 -17.899  0.00  0.00    +0.099 C 
ATOM      5  C   UNL     1      36.773 -22.983 -15.861  0.00  0.00    +0.099 C 
ATOM      6  C   UNL     1      35.881 -21.992 -17.901  0.00  0.00    +0.121 C 
ATOM      7  C   UNL     1      37.950 -22.947 -14.924  0.00  0.00    +0.026 C 
ATOM      8  H   UNL     1      37.564 -21.415 -16.910  0.00  0.00    +0.148 HD
ENDROOT
BRANCH   2   9
ATOM      9  C   UNL     1      33.286 -23.373 -16.013  0.00  0.00    +0.002 C 
ATOM     10  C   UNL     1      32.053 -23.523 -16.635  0.00  0.00    +0.024 C 
ATOM     11  C   UNL     1      33.373 -22.873 -14.720  0.00  0.00    +0.000 C 
ATOM     12  C   UNL     1      30.888 -23.167 -15.953  0.00  0.00    +0.143 C 
ATOM     13  C   UNL     1      32.209 -22.517 -14.038  0.00  0.00    +0.002 C 
ATOM     14  C   UNL     1      30.967 -22.665 -14.655  0.00  0.00    +0.024 C 
BRANCH  12  17
ATOM     15  O   UNL     1      29.147 -22.350 -17.219  0.00  0.00    -0.126 OA
ATOM     16  O   UNL     1      29.026 -24.416 -16.474  0.00  0.00    -0.126 OA
ATOM     17  N   UNL     1      29.623 -23.319 -16.580  0.00  0.00    +0.058 N 
ENDBRANCH  12  17
ENDBRANCH   2   9
BRANCH   3  19
ATOM     18  O   UNL     1      35.524 -26.077 -15.038  0.00  0.00    -0.245 OA
ATOM     19  C   UNL     1      35.668 -24.901 -14.757  0.00  0.00    +0.339 C 
BRANCH  19  20
ATOM     20  O   UNL     1      35.805 -24.342 -13.531  0.00  0.00    -0.449 OA
BRANCH  20  21
ATOM     21  C   UNL     1      36.143 -25.255 -12.482  0.00  0.00    +0.169 C 
ATOM     22  C   UNL     1      37.648 -25.483 -12.483  0.00  0.00    +0.047 C 
ATOM     23  C   UNL     1      35.656 -24.694 -11.155  0.00  0.00    +0.047 C 
ENDBRANCH  20  21
ENDBRANCH  19  20
ENDBRANCH   3  19
BRANCH   4  25
ATOM     24  O   UNL     1      33.758 -23.625 -19.859  0.00  0.00    -0.245 OA
ATOM     25  C   UNL     1      33.818 -22.760 -19.004  0.00  0.00    +0.343 C 
BRANCH  25  26
ATOM     26  O   UNL     1      33.051 -21.649 -18.880  0.00  0.00    -0.441 OA
ATOM     27  C   UNL     1      32.947 -20.849 -20.062  0.00  0.00    +0.256 C 
ENDBRANCH  25  26
ENDBRANCH   4  25
BRANCH   6  29
ATOM     28  N   UNL     1      36.448 -20.278 -19.745  0.00  0.00    -0.190 NA
ATOM     29  C   UNL     1      36.193 -21.049 -18.916  0.00  0.00    +0.115 C 
ENDBRANCH   6  29
TORSDOF 8
ENDMDL
MODEL 3
REMARK VINA RESULT:      -8.7      2.689      6.156
REMARK  Name = 4494
REMARK  8 active torsions:
REMARK  status: ('A' for Active; 'I' for Inactive)
REMARK    1  A    between atoms: C_2  and  C_9
REMARK    2  A    between atoms: C_3  and  C_19
REMARK    3  A    between atoms: C_4  and  C_25
REMARK    4  A    between atoms: C_6  and  C_29
REMARK    5  A    between atoms: C_12  and  N_17
REMARK    6  A    between atoms: C_19  and  O_20
REMARK    7  A    between atoms: O_20  and  C_21
REMARK    8  A    between atoms: C_25  and  O_26
REMARK                            x       y       z     vdW  Elec       q    Type
REMARK                         _______ _______ _______ _____ _____    ______ ____
ROOT
ATOM      1  N   UNL     1      32.867 -23.487 -15.837  0.00  0.00    -0.322 N 
ATOM      2  C   UNL     1      35.550 -23.448 -14.892  0.00  0.00    +0.012 C 
ATOM      3  C   UNL     1      34.345 -23.824 -14.015  0.00  0.00    +0.071 C 
ATOM      4  C   UNL     1      35.138 -22.949 -16.278  0.00  0.00    +0.099 C 
ATOM      5  C   UNL     1      33.087 -23.852 -14.517  0.00  0.00    +0.099 C 
ATOM      6  C   UNL     1      33.852 -23.011 -16.672  0.00  0.00    +0.121 C 
ATOM      7  C   UNL     1      31.853 -24.251 -13.754  0.00  0.00    +0.026 C 
ATOM      8  H   UNL     1      31.954 -23.571 -16.196  0.00  0.00    +0.148 HD
ENDROOT
BRANCH   2   9
ATOM      9  C   UNL     1      36.476 -24.623 -15.021  0.00  0.00    +0.002 C 
ATOM     10  C   UNL     1      37.836 -24.454 -14.793  0.00  0.00    +0.024 C 
ATOM     11  C   UNL     1      35.963 -25.867 -15.369  0.00  0.00    +0.000 C 
ATOM     12  C   UNL     1      38.697 -25.546 -14.914  0.00  0.00    +0.143 C 
ATOM     13  C   UNL     1      36.824 -26.958 -15.491  0.00  0.00    +0.002 C 
ATOM     14  C   UNL     1      38.190 -26.797 -15.263  0.00  0.00    +0.024 C 
BRANCH  12  17
ATOM     15  O   UNL     1      40.460 -24.626 -13.753  0.00  0.00    -0.126 OA
ATOM     16  O   UNL     1      40.898 -26.003 -15.411  0.00  0.00    -0.126 OA
ATOM     17  N   UNL     1      40.088 -25.383 -14.681  0.00  0.00    +0.058 N 
ENDBRANCH  12  17
ENDBRANCH   2   9
BRANCH   3  19
ATOM     18  O   UNL     1      34.149 -25.037 -11.988  0.00  0.00    -0.245 OA
ATOM     19  C   UNL     1      34.625 -24.096 -12.596  0.00  0.00    +0.339 C 
BRANCH  19  20
ATOM     20  O   UNL     1      35.470 -23.142 -12.136  0.00  0.00    -0.449 OA
BRANCH  20  21
ATOM     21  C   UNL     1      36.557 -23.626 -11.341  0.00  0.00    +0.169 C 
ATOM     22  C   UNL     1      36.770 -25.105 -11.631  0.00  0.00    +0.047 C 
ATOM     23  C   UNL     1      37.801 -22.805 -11.643  0.00  0.00    +0.047 C 
ENDBRANCH  20  21
ENDBRANCH  19  20
ENDBRANCH   3  19
BRANCH   4  25
ATOM     24  O   UNL     1      37.201 -21.865 -16.710  0.00  0.00    -0.245 OA
ATOM     25  C   UNL     1      36.187 -22.382 -17.142  0.00  0.00    +0.343 C 
BRANCH  25  26
ATOM     26  O   UNL     1      35.813 -22.544 -18.434  0.00  0.00    -0.441 OA
ATOM     27  C   UNL     1      36.416 -21.634 -19.359  0.00  0.00    +0.256 C 
ENDBRANCH  25  26
ENDBRANCH   4  25
BRANCH   6  29
ATOM     28  N   UNL     1      32.988 -22.239 -18.977  0.00  0.00    -0.190 NA
ATOM     29  C   UNL     1      33.377 -22.587 -17.941  0.00  0.00    +0.115 C 
ENDBRANCH   6  29
TORSDOF 8
ENDMDL
MODEL 4
REMARK VINA RESULT:      -8.7      1.412      2.060
REMARK  Name = 4494
REMARK  8 active torsions:
REMARK  status: ('A' for Active; 'I' for Inactive)
REMARK    1  A    between atoms: C_2  and  C_9
REMARK    2  A    between atoms: C_3  and  C_19
REMARK    3  A    between atoms: C_4  and  C_25
REMARK    4  A    between atoms: C_6  and  C_29
REMARK    5  A    between atoms: C_12  and  N_17
REMARK    6  A    between atoms: C_19  and  O_20
REMARK    7  A    between atoms: O_20  and  C_21
REMARK    8  A    between atoms: C_25  and  O_26
REMARK                            x       y       z     vdW  Elec       q    Type
REMARK                         _______ _______ _______ _____ _____    ______ ____
ROOT
ATOM      1  N   UNL     1      33.328 -23.590 -13.153  0.00  0.00    -0.322 N 
ATOM      2  C   UNL     1      33.679 -24.298 -15.886  0.00  0.00    +0.012 C 
ATOM      3  C   UNL     1      32.410 -23.627 -15.338  0.00  0.00    +0.071 C 
ATOM      4  C   UNL     1      34.666 -24.685 -14.784  0.00  0.00    +0.099 C 
ATOM      5  C   UNL     1      32.299 -23.286 -14.032  0.00  0.00    +0.099 C 
ATOM      6  C   UNL     1      34.450 -24.303 -13.511  0.00  0.00    +0.121 C 
ATOM      7  C   UNL     1      31.120 -22.586 -13.411  0.00  0.00    +0.026 C 
ATOM      8  H   UNL     1      33.251 -23.281 -12.222  0.00  0.00    +0.148 HD
ENDROOT
BRANCH   2   9
ATOM      9  C   UNL     1      34.347 -23.395 -16.883  0.00  0.00    +0.002 C 
ATOM     10  C   UNL     1      35.482 -22.685 -16.514  0.00  0.00    +0.024 C 
ATOM     11  C   UNL     1      33.821 -23.278 -18.164  0.00  0.00    +0.000 C 
ATOM     12  C   UNL     1      36.102 -21.845 -17.440  0.00  0.00    +0.143 C 
ATOM     13  C   UNL     1      34.441 -22.439 -19.090  0.00  0.00    +0.002 C 
ATOM     14  C   UNL     1      35.581 -21.722 -18.727  0.00  0.00    +0.024 C 
BRANCH  12  17
ATOM     15  O   UNL     1      37.562 -20.087 -17.723  0.00  0.00    -0.126 OA
ATOM     16  O   UNL     1      37.954 -21.528 -16.109  0.00  0.00    -0.126 OA
ATOM     17  N   UNL     1      37.264 -21.116 -17.072  0.00  0.00    +0.058 N 
ENDBRANCH  12  17
ENDBRANCH   2   9
BRANCH   3  19
ATOM     18  O   UNL     1      31.098 -22.370 -16.861  0.00  0.00    -0.245 OA
ATOM     19  C   UNL     1      31.308 -23.427 -16.294  0.00  0.00    +0.339 C 
BRANCH  19  20
ATOM     20  O   UNL     1      30.620 -24.589 -16.403  0.00  0.00    -0.449 OA
BRANCH  20  21
ATOM     21  C   UNL     1      29.233 -24.507 -16.062  0.00  0.00    +0.169 C 
ATOM     22  C   UNL     1      29.011 -25.169 -14.709  0.00  0.00    +0.047 C 
ATOM     23  C   UNL     1      28.805 -23.048 -16.055  0.00  0.00    +0.047 C 
ENDBRANCH  20  21
ENDBRANCH  19  20
ENDBRANCH   3  19
BRANCH   4  25
ATOM     24  O   UNL     1      35.738 -26.625 -15.624  0.00  0.00    -0.245 OA
ATOM     25  C   UNL     1      35.830 -25.502 -15.161  0.00  0.00    +0.343 C 
BRANCH  25  26
ATOM     26  O   UNL     1      36.955 -24.791 -14.904  0.00  0.00    -0.441 OA
ATOM     27  C   UNL     1      38.129 -25.576 -14.671  0.00  0.00    +0.256 C 
ENDBRANCH  25  26
ENDBRANCH   4  25
BRANCH   6  29
ATOM     28  N   UNL     1      36.020 -24.845 -11.535  0.00  0.00    -0.190 NA
ATOM     29  C   UNL     1      35.314 -24.601 -12.423  0.00  0.00    +0.115 C 
ENDBRANCH   6  29
TORSDOF 8
ENDMDL
MODEL 5
REMARK VINA RESULT:      -8.5     13.457     16.573
REMARK  Name = 4494
REMARK  8 active torsions:
REMARK  status: ('A' for Active; 'I' for Inactive)
REMARK    1  A    between atoms: C_2  and  C_9
REMARK    2  A    between atoms: C_3  and  C_19
REMARK    3  A    between atoms: C_4  and  C_25
REMARK    4  A    between atoms: C_6  and  C_29
REMARK    5  A    between atoms: C_12  and  N_17
REMARK    6  A    between atoms: C_19  and  O_20
REMARK    7  A    between atoms: O_20  and  C_21
REMARK    8  A    between atoms: C_25  and  O_26
REMARK                            x       y       z     vdW  Elec       q    Type
REMARK                         _______ _______ _______ _____ _____    ______ ____
ROOT
ATOM      1  N   UNL     1      32.123  -7.959 -20.429  0.00  0.00    -0.322 N 
ATOM      2  C   UNL     1      31.754  -9.281 -22.921  0.00  0.00    +0.012 C 
ATOM      3  C   UNL     1      31.848  -7.755 -22.774  0.00  0.00    +0.071 C 
ATOM      4  C   UNL     1      31.725 -10.003 -21.572  0.00  0.00    +0.099 C 
ATOM      5  C   UNL     1      32.049  -7.171 -21.569  0.00  0.00    +0.099 C 
ATOM      6  C   UNL     1      31.924  -9.321 -20.429  0.00  0.00    +0.121 C 
ATOM      7  C   UNL     1      32.200  -5.693 -21.330  0.00  0.00    +0.026 C 
ATOM      8  H   UNL     1      32.328  -7.519 -19.573  0.00  0.00    +0.148 HD
ENDROOT
BRANCH   2   9
ATOM      9  C   UNL     1      32.898  -9.788 -23.752  0.00  0.00    +0.002 C 
ATOM     10  C   UNL     1      32.748 -10.955 -24.490  0.00  0.00    +0.024 C 
ATOM     11  C   UNL     1      34.096  -9.084 -23.772  0.00  0.00    +0.000 C 
ATOM     12  C   UNL     1      33.811 -11.426 -25.261  0.00  0.00    +0.143 C 
ATOM     13  C   UNL     1      35.159  -9.555 -24.543  0.00  0.00    +0.002 C 
ATOM     14  C   UNL     1      35.016 -10.726 -25.287  0.00  0.00    +0.024 C 
BRANCH  12  17
ATOM     15  O   UNL     1      33.873 -12.574 -27.256  0.00  0.00    -0.126 OA
ATOM     16  O   UNL     1      33.333 -13.672 -25.428  0.00  0.00    -0.126 OA
ATOM     17  N   UNL     1      33.665 -12.617 -26.020  0.00  0.00    +0.058 N 
ENDBRANCH  12  17
ENDBRANCH   2   9
BRANCH   3  19
ATOM     18  O   UNL     1      30.663  -7.056 -24.705  0.00  0.00    -0.245 OA
ATOM     19  C   UNL     1      31.653  -6.965 -24.001  0.00  0.00    +0.339 C 
BRANCH  19  20
ATOM     20  O   UNL     1      32.733  -6.167 -24.173  0.00  0.00    -0.449 OA
BRANCH  20  21
ATOM     21  C   UNL     1      32.941  -5.707 -25.512  0.00  0.00    +0.169 C 
ATOM     22  C   UNL     1      32.455  -4.269 -25.629  0.00  0.00    +0.047 C 
ATOM     23  C   UNL     1      34.416  -5.836 -25.861  0.00  0.00    +0.047 C 
ENDBRANCH  20  21
ENDBRANCH  19  20
ENDBRANCH   3  19
BRANCH   4  25
ATOM     24  O   UNL     1      30.324 -11.914 -21.643  0.00  0.00    -0.245 OA
ATOM     25  C   UNL     1      31.448 -11.449 -21.574  0.00  0.00    +0.343 C 
BRANCH  25  26
ATOM     26  O   UNL     1      32.626 -12.112 -21.489  0.00  0.00    -0.441 OA
ATOM     27  C   UNL     1      32.557 -13.512 -21.773  0.00  0.00    +0.256 C 
ENDBRANCH  25  26
ENDBRANCH   4  25
BRANCH   6  29
ATOM     28  N   UNL     1      31.933 -10.378 -18.075  0.00  0.00    -0.190 NA
ATOM     29  C   UNL     1      31.929  -9.903 -19.134  0.00  0.00    +0.115 C 
ENDBRANCH   6  29
TORSDOF 8
ENDMDL
MODEL 6
REMARK VINA RESULT:      -7.8      9.644     13.565
REMARK  Name = 4494
REMARK  8 active torsions:
REMARK  status: ('A' for Active; 'I' for Inactive)
REMARK    1  A    between atoms: C_2  and  C_9
REMARK    2  A    between atoms: C_3  and  C_19
REMARK    3  A    between atoms: C_4  and  C_25
REMARK    4  A    between atoms: C_6  and  C_29
REMARK    5  A    between atoms: C_12  and  N_17
REMARK    6  A    between atoms: C_19  and  O_20
REMARK    7  A    between atoms: O_20  and  C_21
REMARK    8  A    between atoms: C_25  and  O_26
REMARK                            x       y       z     vdW  Elec       q    Type
REMARK                         _______ _______ _______ _____ _____    ______ ____
ROOT
ATOM      1  N   UNL     1      33.597 -10.460 -23.930  0.00  0.00    -0.322 N 
ATOM      2  C   UNL     1      32.369 -12.882 -23.081  0.00  0.00    +0.012 C 
ATOM      3  C   UNL     1      33.174 -12.747 -24.383  0.00  0.00    +0.071 C 
ATOM      4  C   UNL     1      32.168 -11.542 -22.370  0.00  0.00    +0.099 C 
ATOM      5  C   UNL     1      33.762 -11.579 -24.733  0.00  0.00    +0.099 C 
ATOM      6  C   UNL     1      32.793 -10.434 -22.813  0.00  0.00    +0.121 C 
ATOM      7  C   UNL     1      34.606 -11.361 -25.960  0.00  0.00    +0.026 C 
ATOM      8  H   UNL     1      34.082  -9.638 -24.173  0.00  0.00    +0.148 HD
ENDROOT
BRANCH   2   9
ATOM      9  C   UNL     1      33.042 -13.858 -22.160  0.00  0.00    +0.002 C 
ATOM     10  C   UNL     1      32.432 -15.074 -21.881  0.00  0.00    +0.024 C 
ATOM     11  C   UNL     1      34.269 -13.533 -21.593  0.00  0.00    +0.000 C 
ATOM     12  C   UNL     1      33.057 -15.980 -21.024  0.00  0.00    +0.143 C 
ATOM     13  C   UNL     1      34.894 -14.439 -20.736  0.00  0.00    +0.002 C 
ATOM     14  C   UNL     1      34.288 -15.662 -20.452  0.00  0.00    +0.024 C 
BRANCH  12  17
ATOM     15  O   UNL     1      31.209 -17.252 -20.506  0.00  0.00    -0.126 OA
ATOM     16  O   UNL     1      33.151 -18.260 -20.720  0.00  0.00    -0.126 OA
ATOM     17  N   UNL     1      32.441 -17.227 -20.736  0.00  0.00    +0.058 N 
ENDBRANCH  12  17
ENDBRANCH   2   9
BRANCH   3  19
ATOM     18  O   UNL     1      32.371 -14.196 -26.080  0.00  0.00    -0.245 OA
ATOM     19  C   UNL     1      33.223 -13.937 -25.249  0.00  0.00    +0.339 C 
BRANCH  19  20
ATOM     20  O   UNL     1      34.342 -14.639 -24.949  0.00  0.00    -0.449 OA
BRANCH  20  21
ATOM     21  C   UNL     1      34.120 -15.999 -24.561  0.00  0.00    +0.169 C 
ATOM     22  C   UNL     1      33.867 -16.839 -25.805  0.00  0.00    +0.047 C 
ATOM     23  C   UNL     1      35.323 -16.497 -23.776  0.00  0.00    +0.047 C 
ENDBRANCH  20  21
ENDBRANCH  19  20
ENDBRANCH   3  19
BRANCH   4  25
ATOM     24  O   UNL     1      30.046 -11.426 -21.322  0.00  0.00    -0.245 OA
ATOM     25  C   UNL     1      31.256 -11.508 -21.216  0.00  0.00    +0.343 C 
BRANCH  25  26
ATOM     26  O   UNL     1      31.995 -11.582 -20.082  0.00  0.00    -0.441 OA
ATOM     27  C   UNL     1      31.525 -10.777 -18.997  0.00  0.00    +0.256 C 
ENDBRANCH  25  26
ENDBRANCH   4  25
BRANCH   6  29
ATOM     28  N   UNL     1      32.589  -8.104 -21.724  0.00  0.00    -0.190 NA
ATOM     29  C   UNL     1      32.680  -9.152 -22.214  0.00  0.00    +0.115 C 
ENDBRANCH   6  29
TORSDOF 8
ENDMDL
MODEL 7
REMARK VINA RESULT:      -7.7     11.720     14.586
REMARK  Name = 4494
REMARK  8 active torsions:
REMARK  status: ('A' for Active; 'I' for Inactive)
REMARK    1  A    between atoms: C_2  and  C_9
REMARK    2  A    between atoms: C_3  and  C_19
REMARK    3  A    between atoms: C_4  and  C_25
REMARK    4  A    between atoms: C_6  and  C_29
REMARK    5  A    between atoms: C_12  and  N_17
REMARK    6  A    between atoms: C_19  and  O_20
REMARK    7  A    between atoms: O_20  and  C_21
REMARK    8  A    between atoms: C_25  and  O_26
REMARK                            x       y       z     vdW  Elec       q    Type
REMARK                         _______ _______ _______ _____ _____    ______ ____
ROOT
ATOM      1  N   UNL     1      33.590 -14.646 -22.397  0.00  0.00    -0.322 N 
ATOM      2  C   UNL     1      32.458 -12.371 -23.675  0.00  0.00    +0.012 C 
ATOM      3  C   UNL     1      32.285 -12.680 -22.181  0.00  0.00    +0.071 C 
ATOM      4  C   UNL     1      33.171 -13.494 -24.432  0.00  0.00    +0.099 C 
ATOM      5  C   UNL     1      32.864 -13.763 -21.611  0.00  0.00    +0.099 C 
ATOM      6  C   UNL     1      33.700 -14.537 -23.765  0.00  0.00    +0.121 C 
ATOM      7  C   UNL     1      32.792 -14.125 -20.152  0.00  0.00    +0.026 C 
ATOM      8  H   UNL     1      34.050 -15.394 -21.952  0.00  0.00    +0.148 HD
ENDROOT
BRANCH   2   9
ATOM      9  C   UNL     1      33.203 -11.079 -23.849  0.00  0.00    +0.002 C 
ATOM     10  C   UNL     1      32.555  -9.873 -23.614  0.00  0.00    +0.024 C 
ATOM     11  C   UNL     1      34.535 -11.103 -24.247  0.00  0.00    +0.000 C 
ATOM     12  C   UNL     1      33.247  -8.673 -23.777  0.00  0.00    +0.143 C 
ATOM     13  C   UNL     1      35.228  -9.903 -24.410  0.00  0.00    +0.002 C 
ATOM     14  C   UNL     1      34.583  -8.689 -24.175  0.00  0.00    +0.024 C 
BRANCH  12  17
ATOM     15  O   UNL     1      31.571  -7.154 -24.207  0.00  0.00    -0.126 OA
ATOM     16  O   UNL     1      33.059  -6.668 -22.661  0.00  0.00    -0.126 OA
ATOM     17  N   UNL     1      32.593  -7.436 -23.536  0.00  0.00    +0.058 N 
ENDBRANCH  12  17
ENDBRANCH   2   9
BRANCH   3  19
ATOM     18  O   UNL     1      30.212 -11.691 -21.592  0.00  0.00    -0.245 OA
ATOM     19  C   UNL     1      31.415 -11.769 -21.419  0.00  0.00    +0.339 C 
BRANCH  19  20
ATOM     20  O   UNL     1      32.182 -11.079 -20.541  0.00  0.00    -0.449 OA
BRANCH  20  21
ATOM     21  C   UNL     1      31.484 -10.100 -19.764  0.00  0.00    +0.169 C 
ATOM     22  C   UNL     1      31.414 -10.567 -18.317  0.00  0.00    +0.047 C 
ATOM     23  C   UNL     1      32.193  -8.761 -19.894  0.00  0.00    +0.047 C 
ENDBRANCH  20  21
ENDBRANCH  19  20
ENDBRANCH   3  19
BRANCH   4  25
ATOM     24  O   UNL     1      34.112 -12.816 -26.499  0.00  0.00    -0.245 OA
ATOM     25  C   UNL     1      33.229 -13.402 -25.900  0.00  0.00    +0.343 C 
BRANCH  25  26
ATOM     26  O   UNL     1      32.163 -14.063 -26.413  0.00  0.00    -0.441 OA
ATOM     27  C   UNL     1      32.456 -15.351 -26.964  0.00  0.00    +0.256 C 
ENDBRANCH  25  26
ENDBRANCH   4  25
BRANCH   6  29
ATOM     28  N   UNL     1      34.953 -16.500 -24.874  0.00  0.00    -0.190 NA
ATOM     29  C   UNL     1      34.390 -15.617 -24.376  0.00  0.00    +0.115 C 
ENDBRANCH   6  29
TORSDOF 8
ENDMDL
MODEL 8
REMARK VINA RESULT:      -7.4      2.165      6.062
REMARK  Name = 4494
REMARK  8 active torsions:
REMARK  status: ('A' for Active; 'I' for Inactive)
REMARK    1  A    between atoms: C_2  and  C_9
REMARK    2  A    between atoms: C_3  and  C_19
REMARK    3  A    between atoms: C_4  and  C_25
REMARK    4  A    between atoms: C_6  and  C_29
REMARK    5  A    between atoms: C_12  and  N_17
REMARK    6  A    between atoms: C_19  and  O_20
REMARK    7  A    between atoms: O_20  and  C_21
REMARK    8  A    between atoms: C_25  and  O_26
REMARK                            x       y       z     vdW  Elec       q    Type
REMARK                         _______ _______ _______ _____ _____    ______ ____
ROOT
ATOM      1  N   UNL     1      31.327 -21.916 -17.292  0.00  0.00    -0.322 N 
ATOM      2  C   UNL     1      33.045 -24.107 -16.710  0.00  0.00    +0.012 C 
ATOM      3  C   UNL     1      33.233 -23.177 -17.918  0.00  0.00    +0.071 C 
ATOM      4  C   UNL     1      31.751 -23.825 -15.943  0.00  0.00    +0.099 C 
ATOM      5  C   UNL     1      32.403 -22.131 -18.141  0.00  0.00    +0.099 C 
ATOM      6  C   UNL     1      30.990 -22.760 -16.258  0.00  0.00    +0.121 C 
ATOM      7  C   UNL     1      32.532 -21.140 -19.267  0.00  0.00    +0.026 C 
ATOM      8  H   UNL     1      30.771 -21.116 -17.439  0.00  0.00    +0.148 HD
ENDROOT
BRANCH   2   9
ATOM      9  C   UNL     1      34.225 -23.995 -15.788  0.00  0.00    +0.002 C 
ATOM     10  C   UNL     1      35.009 -25.113 -15.534  0.00  0.00    +0.024 C 
ATOM     11  C   UNL     1      34.519 -22.772 -15.196  0.00  0.00    +0.000 C 
ATOM     12  C   UNL     1      36.105 -25.008 -14.676  0.00  0.00    +0.143 C 
ATOM     13  C   UNL     1      35.615 -22.667 -14.338  0.00  0.00    +0.002 C 
ATOM     14  C   UNL     1      36.407 -23.786 -14.079  0.00  0.00    +0.024 C 
BRANCH  12  17
ATOM     15  O   UNL     1      37.273 -26.865 -15.375  0.00  0.00    -0.126 OA
ATOM     16  O   UNL     1      37.237 -26.393 -13.227  0.00  0.00    -0.126 OA
ATOM     17  N   UNL     1      36.912 -26.146 -14.413  0.00  0.00    +0.058 N 
ENDBRANCH  12  17
ENDBRANCH   2   9
BRANCH   3  19
ATOM     18  O   UNL     1      34.150 -24.099 -19.901  0.00  0.00    -0.245 OA
ATOM     19  C   UNL     1      34.325 -23.519 -18.845  0.00  0.00    +0.339 C 
BRANCH  19  20
ATOM     20  O   UNL     1      35.491 -23.080 -18.312  0.00  0.00    -0.449 OA
BRANCH  20  21
ATOM     21  C   UNL     1      35.786 -21.700 -18.550  0.00  0.00    +0.169 C 
ATOM     22  C   UNL     1      36.903 -21.259 -17.616  0.00  0.00    +0.047 C 
ATOM     23  C   UNL     1      36.163 -21.514 -20.012  0.00  0.00    +0.047 C 
ENDBRANCH  20  21
ENDBRANCH  19  20
ENDBRANCH   3  19
BRANCH   4  25
ATOM     24  O   UNL     1      31.787 -24.700 -13.740  0.00  0.00    -0.245 OA
ATOM     25  C   UNL     1      31.364 -24.767 -14.881  0.00  0.00    +0.343 C 
BRANCH  25  26
ATOM     26  O   UNL     1      30.497 -25.668 -15.402  0.00  0.00    -0.441 OA
ATOM     27  C   UNL     1      29.216 -25.715 -14.765  0.00  0.00    +0.256 C 
ENDBRANCH  25  26
ENDBRANCH   4  25
BRANCH   6  29
ATOM     28  N   UNL     1      28.797 -22.121 -15.058  0.00  0.00    -0.190 NA
ATOM     29  C   UNL     1      29.784 -22.408 -15.597  0.00  0.00    +0.115 C 
ENDBRANCH   6  29
TORSDOF 8
ENDMDL
MODEL 9
REMARK VINA RESULT:      -7.2      2.396      5.383
REMARK  Name = 4494
REMARK  8 active torsions:
REMARK  status: ('A' for Active; 'I' for Inactive)
REMARK    1  A    between atoms: C_2  and  C_9
REMARK    2  A    between atoms: C_3  and  C_19
REMARK    3  A    between atoms: C_4  and  C_25
REMARK    4  A    between atoms: C_6  and  C_29
REMARK    5  A    between atoms: C_12  and  N_17
REMARK    6  A    between atoms: C_19  and  O_20
REMARK    7  A    between atoms: O_20  and  C_21
REMARK    8  A    between atoms: C_25  and  O_26
REMARK                            x       y       z     vdW  Elec       q    Type
REMARK                         _______ _______ _______ _____ _____    ______ ____
ROOT
ATOM      1  N   UNL     1      33.447 -22.856 -17.793  0.00  0.00    -0.322 N 
ATOM      2  C   UNL     1      34.907 -23.010 -15.356  0.00  0.00    +0.012 C 
ATOM      3  C   UNL     1      33.397 -23.272 -15.460  0.00  0.00    +0.071 C 
ATOM      4  C   UNL     1      35.511 -22.508 -16.669  0.00  0.00    +0.099 C 
ATOM      5  C   UNL     1      32.749 -23.211 -16.648  0.00  0.00    +0.099 C 
ATOM      6  C   UNL     1      34.770 -22.476 -17.793  0.00  0.00    +0.121 C 
ATOM      7  C   UNL     1      31.286 -23.496 -16.859  0.00  0.00    +0.026 C 
ATOM      8  H   UNL     1      32.969 -22.875 -18.654  0.00  0.00    +0.148 HD
ENDROOT
BRANCH   2   9
ATOM      9  C   UNL     1      35.614 -24.256 -14.907  0.00  0.00    +0.002 C 
ATOM     10  C   UNL     1      36.288 -24.265 -13.692  0.00  0.00    +0.024 C 
ATOM     11  C   UNL     1      35.589 -25.388 -15.713  0.00  0.00    +0.000 C 
ATOM     12  C   UNL     1      36.946 -25.423 -13.276  0.00  0.00    +0.143 C 
ATOM     13  C   UNL     1      36.247 -26.546 -15.297  0.00  0.00    +0.002 C 
ATOM     14  C   UNL     1      36.925 -26.562 -14.078  0.00  0.00    +0.024 C 
BRANCH  12  17
ATOM     15  O   UNL     1      37.657 -24.397 -11.341  0.00  0.00    -0.126 OA
ATOM     16  O   UNL     1      38.199 -26.502 -11.674  0.00  0.00    -0.126 OA
ATOM     17  N   UNL     1      37.635 -25.441 -12.034  0.00  0.00    +0.058 N 
ENDBRANCH  12  17
ENDBRANCH   2   9
BRANCH   3  19
ATOM     18  O   UNL     1      32.539 -22.700 -13.325  0.00  0.00    -0.245 OA
ATOM     19  C   UNL     1      32.688 -23.537 -14.197  0.00  0.00    +0.339 C 
BRANCH  19  20
ATOM     20  O   UNL     1      32.264 -24.823 -14.205  0.00  0.00    -0.449 OA
BRANCH  20  21
ATOM     21  C   UNL     1      30.947 -25.032 -13.686  0.00  0.00    +0.169 C 
ATOM     22  C   UNL     1      30.366 -23.696 -13.244  0.00  0.00    +0.047 C 
ATOM     23  C   UNL     1      30.089 -25.698 -14.751  0.00  0.00    +0.047 C 
ENDBRANCH  20  21
ENDBRANCH  19  20
ENDBRANCH   3  19
BRANCH   4  25
ATOM     24  O   UNL     1      37.221 -20.876 -16.491  0.00  0.00    -0.245 OA
ATOM     25  C   UNL     1      36.907 -22.042 -16.647  0.00  0.00    +0.343 C 
BRANCH  25  26
ATOM     26  O   UNL     1      37.719 -23.112 -16.826  0.00  0.00    -0.441 OA
ATOM     27  C   UNL     1      38.730 -23.281 -15.827  0.00  0.00    +0.256 C 
ENDBRANCH  25  26
ENDBRANCH   4  25
BRANCH   6  29
ATOM     28  N   UNL     1      35.632 -21.686 -20.092  0.00  0.00    -0.190 NA
ATOM     29  C   UNL     1      35.245 -22.041 -19.058  0.00  0.00    +0.115 C 
ENDBRANCH   6  29
TORSDOF 8
ENDMDL
