MODEL 1
REMARK VINA RESULT:      -8.8      0.000      0.000
REMARK  Name = 5289547
REMARK  5 active torsions:
REMARK  status: ('A' for Active; 'I' for Inactive)
REMARK    1  A    between atoms: C_2  and  C_24
REMARK    2  A    between atoms: C_11  and  C_12
REMARK    3  A    between atoms: C_16  and  O_20
REMARK    4  A    between atoms: C_17  and  O_22
REMARK    5  A    between atoms: C_24  and  C_26
REMARK                            x       y       z     vdW  Elec       q    Type
REMARK                         _______ _______ _______ _____ _____    ______ ____
ROOT
ATOM      1  C   UNL     1      32.197  -7.712 -22.032  0.00  0.00    +0.003 C 
ATOM      2  C   UNL     1      31.479  -6.746 -23.007  0.00  0.00    +0.000 C 
ATOM      3  C   UNL     1      31.227  -8.917 -22.105  0.00  0.00    +0.018 C 
ATOM      4  C   UNL     1      31.027  -7.652 -24.171  0.00  0.00    +0.000 C 
ATOM      5  C   UNL     1      30.964  -9.081 -23.606  0.00  0.00    +0.004 C 
ATOM      6  C   UNL     1      32.277  -7.191 -20.577  0.00  0.00    +0.001 C 
ATOM      7  C   UNL     1      31.705 -10.078 -21.272  0.00  0.00    -0.045 C 
ATOM      8  C   UNL     1      33.626  -8.054 -22.527  0.00  0.00    +0.000 C 
ATOM      9  C   UNL     1      31.932  -8.257 -19.519  0.00  0.00    +0.004 C 
ATOM     10  C   UNL     1      32.290  -9.691 -19.929  0.00  0.00    +0.022 C 
ATOM     11  C   UNL     1      31.626 -11.362 -21.649  0.00  0.00    -0.009 C 
ENDROOT
BRANCH  11  12
ATOM     12  C   UNL     1      32.081 -12.455 -20.827  0.00  0.00    -0.009 C 
ATOM     13  C   UNL     1      32.933 -13.396 -21.259  0.00  0.00    -0.039 C 
ATOM     14  C   UNL     1      33.400 -14.536 -20.383  0.00  0.00    +0.056 C 
ATOM     15  C   UNL     1      33.474 -13.410 -22.667  0.00  0.00    +0.056 C 
ATOM     16  C   UNL     1      33.187 -15.897 -21.063  0.00  0.00    +0.135 C 
ATOM     17  C   UNL     1      33.209 -14.759 -23.347  0.00  0.00    +0.135 C 
ATOM     18  C   UNL     1      33.722 -15.897 -22.481  0.00  0.00    +0.009 C 
ATOM     19  C   UNL     1      34.605 -16.825 -22.885  0.00  0.00    -0.004 C 
BRANCH  16  20
ATOM     20  O   UNL     1      31.790 -16.191 -21.073  0.00  0.00    -0.380 OA
ATOM     21  H   UNL     1      31.632 -16.994 -21.594  0.00  0.00    +0.211 HD
ENDBRANCH  16  20
BRANCH  17  22
ATOM     22  O   UNL     1      33.822 -14.726 -24.632  0.00  0.00    -0.380 OA
ATOM     23  H   UNL     1      33.331 -14.122 -25.210  0.00  0.00    +0.211 HD
ENDBRANCH  17  22
ENDBRANCH  11  12
BRANCH   2  24
ATOM     24  C   UNL     1      32.276  -5.536 -23.475  0.00  0.00    +0.000 C 
ATOM     25  C   UNL     1      32.543  -5.632 -24.980  0.00  0.00    +0.000 C 
BRANCH  24  26
ATOM     26  C   UNL     1      31.536  -4.236 -23.101  0.00  0.00    +0.000 C 
ATOM     27  C   UNL     1      30.398  -4.438 -22.111  0.00  0.00    +0.000 C 
ENDBRANCH  24  26
ENDBRANCH   2  24
TORSDOF 5
ENDMDL
MODEL 2
REMARK VINA RESULT:      -8.5      2.514      8.848
REMARK  Name = 5289547
REMARK  5 active torsions:
REMARK  status: ('A' for Active; 'I' for Inactive)
REMARK    1  A    between atoms: C_2  and  C_24
REMARK    2  A    between atoms: C_11  and  C_12
REMARK    3  A    between atoms: C_16  and  O_20
REMARK    4  A    between atoms: C_17  and  O_22
REMARK    5  A    between atoms: C_24  and  C_26
REMARK                            x       y       z     vdW  Elec       q    Type
REMARK                         _______ _______ _______ _____ _____    ______ ____
ROOT
ATOM      1  C   UNL     1      34.201 -16.278 -22.022  0.00  0.00    +0.003 C 
ATOM      2  C   UNL     1      35.081 -17.215 -22.887  0.00  0.00    +0.000 C 
ATOM      3  C   UNL     1      34.255 -15.000 -22.895  0.00  0.00    +0.018 C 
ATOM      4  C   UNL     1      34.636 -16.921 -24.334  0.00  0.00    +0.000 C 
ATOM      5  C   UNL     1      34.004 -15.519 -24.315  0.00  0.00    +0.004 C 
ATOM      6  C   UNL     1      34.788 -15.982 -20.621  0.00  0.00    +0.001 C 
ATOM      7  C   UNL     1      33.417 -13.887 -22.319  0.00  0.00    -0.045 C 
ATOM      8  C   UNL     1      32.765 -16.841 -21.861  0.00  0.00    +0.000 C 
ATOM      9  C   UNL     1      34.705 -14.496 -20.219  0.00  0.00    +0.004 C 
ATOM     10  C   UNL     1      33.504 -13.748 -20.813  0.00  0.00    +0.022 C 
ATOM     11  C   UNL     1      32.654 -13.061 -23.048  0.00  0.00    -0.009 C 
ENDROOT
BRANCH  11  12
ATOM     12  C   UNL     1      31.870 -11.997 -22.473  0.00  0.00    -0.009 C 
ATOM     13  C   UNL     1      31.994 -10.712 -22.837  0.00  0.00    -0.039 C 
ATOM     14  C   UNL     1      31.163  -9.609 -22.222  0.00  0.00    +0.056 C 
ATOM     15  C   UNL     1      32.994 -10.259 -23.869  0.00  0.00    +0.056 C 
ATOM     16  C   UNL     1      32.042  -8.461 -21.701  0.00  0.00    +0.135 C 
ATOM     17  C   UNL     1      33.895  -9.147 -23.316  0.00  0.00    +0.135 C 
ATOM     18  C   UNL     1      33.052  -8.022 -22.742  0.00  0.00    +0.009 C 
ATOM     19  C   UNL     1      33.136  -6.736 -23.122  0.00  0.00    -0.004 C 
BRANCH  16  20
ATOM     20  O   UNL     1      32.720  -8.902 -20.524  0.00  0.00    -0.380 OA
ATOM     21  H   UNL     1      33.596  -8.487 -20.481  0.00  0.00    +0.211 HD
ENDBRANCH  16  20
BRANCH  17  22
ATOM     22  O   UNL     1      34.748  -8.714 -24.371  0.00  0.00    -0.380 OA
ATOM     23  H   UNL     1      34.763  -9.383 -25.072  0.00  0.00    +0.211 HD
ENDBRANCH  17  22
ENDBRANCH  11  12
BRANCH   2  24
ATOM     24  C   UNL     1      35.036 -18.698 -22.543  0.00  0.00    +0.000 C 
ATOM     25  C   UNL     1      35.058 -19.535 -23.825  0.00  0.00    +0.000 C 
BRANCH  24  26
ATOM     26  C   UNL     1      36.198 -19.059 -21.597  0.00  0.00    +0.000 C 
ATOM     27  C   UNL     1      35.831 -20.086 -20.535  0.00  0.00    +0.000 C 
ENDBRANCH  24  26
ENDBRANCH   2  24
TORSDOF 5
ENDMDL
MODEL 3
REMARK VINA RESULT:      -8.1      2.734      8.856
REMARK  Name = 5289547
REMARK  5 active torsions:
REMARK  status: ('A' for Active; 'I' for Inactive)
REMARK    1  A    between atoms: C_2  and  C_24
REMARK    2  A    between atoms: C_11  and  C_12
REMARK    3  A    between atoms: C_16  and  O_20
REMARK    4  A    between atoms: C_17  and  O_22
REMARK    5  A    between atoms: C_24  and  C_26
REMARK                            x       y       z     vdW  Elec       q    Type
REMARK                         _______ _______ _______ _____ _____    ______ ____
ROOT
ATOM      1  C   UNL     1      33.749 -15.312 -22.700  0.00  0.00    +0.003 C 
ATOM      2  C   UNL     1      33.295 -16.505 -21.821  0.00  0.00    +0.000 C 
ATOM      3  C   UNL     1      32.539 -14.367 -22.492  0.00  0.00    +0.018 C 
ATOM      4  C   UNL     1      32.693 -15.840 -20.565  0.00  0.00    +0.000 C 
ATOM      5  C   UNL     1      32.298 -14.413 -20.980  0.00  0.00    +0.004 C 
ATOM      6  C   UNL     1      33.893 -15.658 -24.201  0.00  0.00    +0.001 C 
ATOM      7  C   UNL     1      32.721 -13.053 -23.207  0.00  0.00    -0.045 C 
ATOM      8  C   UNL     1      35.083 -14.710 -22.188  0.00  0.00    +0.000 C 
ATOM      9  C   UNL     1      33.285 -14.598 -25.140  0.00  0.00    +0.004 C 
ATOM     10  C   UNL     1      33.331 -13.167 -24.589  0.00  0.00    +0.022 C 
ATOM     11  C   UNL     1      32.373 -11.863 -22.699  0.00  0.00    -0.009 C 
ENDROOT
BRANCH  11  12
ATOM     12  C   UNL     1      32.547 -10.620 -23.410  0.00  0.00    -0.009 C 
ATOM     13  C   UNL     1      32.723  -9.441 -22.797  0.00  0.00    -0.039 C 
ATOM     14  C   UNL     1      32.904  -8.147 -23.559  0.00  0.00    +0.056 C 
ATOM     15  C   UNL     1      32.724  -9.303 -21.296  0.00  0.00    +0.056 C 
ATOM     16  C   UNL     1      31.921  -7.067 -23.083  0.00  0.00    +0.135 C 
ATOM     17  C   UNL     1      31.701  -8.256 -20.836  0.00  0.00    +0.135 C 
ATOM     18  C   UNL     1      31.920  -6.946 -21.572  0.00  0.00    +0.009 C 
ATOM     19  C   UNL     1      32.135  -5.762 -20.976  0.00  0.00    -0.004 C 
BRANCH  16  20
ATOM     20  O   UNL     1      30.611  -7.406 -23.542  0.00  0.00    -0.380 OA
ATOM     21  H   UNL     1      30.229  -6.650 -24.016  0.00  0.00    +0.211 HD
ENDBRANCH  16  20
BRANCH  17  22
ATOM     22  O   UNL     1      31.823  -8.120 -19.423  0.00  0.00    -0.380 OA
ATOM     23  H   UNL     1      32.688  -8.454 -19.139  0.00  0.00    +0.211 HD
ENDBRANCH  17  22
ENDBRANCH  11  12
BRANCH   2  24
ATOM     24  C   UNL     1      34.355 -17.546 -21.489  0.00  0.00    +0.000 C 
ATOM     25  C   UNL     1      33.698 -18.789 -20.881  0.00  0.00    +0.000 C 
BRANCH  24  26
ATOM     26  C   UNL     1      35.178 -17.885 -22.747  0.00  0.00    +0.000 C 
ATOM     27  C   UNL     1      34.764 -19.184 -23.423  0.00  0.00    +0.000 C 
ENDBRANCH  24  26
ENDBRANCH   2  24
TORSDOF 5
ENDMDL
MODEL 4
REMARK VINA RESULT:      -8.0      1.595      3.204
REMARK  Name = 5289547
REMARK  5 active torsions:
REMARK  status: ('A' for Active; 'I' for Inactive)
REMARK    1  A    between atoms: C_2  and  C_24
REMARK    2  A    between atoms: C_11  and  C_12
REMARK    3  A    between atoms: C_16  and  O_20
REMARK    4  A    between atoms: C_17  and  O_22
REMARK    5  A    between atoms: C_24  and  C_26
REMARK                            x       y       z     vdW  Elec       q    Type
REMARK                         _______ _______ _______ _____ _____    ______ ____
ROOT
ATOM      1  C   UNL     1      32.569  -8.725 -23.131  0.00  0.00    +0.003 C 
ATOM      2  C   UNL     1      32.362  -7.671 -22.014  0.00  0.00    +0.000 C 
ATOM      3  C   UNL     1      32.905  -9.959 -22.257  0.00  0.00    +0.018 C 
ATOM      4  C   UNL     1      31.570  -8.425 -20.925  0.00  0.00    +0.000 C 
ATOM      5  C   UNL     1      31.844  -9.921 -21.152  0.00  0.00    +0.004 C 
ATOM      6  C   UNL     1      33.753  -8.413 -24.076  0.00  0.00    +0.001 C 
ATOM      7  C   UNL     1      33.112 -11.199 -23.088  0.00  0.00    -0.045 C 
ATOM      8  C   UNL     1      31.282  -8.913 -23.976  0.00  0.00    +0.000 C 
ATOM      9  C   UNL     1      34.639  -9.637 -24.380  0.00  0.00    +0.004 C 
ATOM     10  C   UNL     1      33.890 -10.976 -24.369  0.00  0.00    +0.022 C 
ATOM     11  C   UNL     1      32.669 -12.418 -22.750  0.00  0.00    -0.009 C 
ENDROOT
BRANCH  11  12
ATOM     12  C   UNL     1      32.891 -13.591 -23.559  0.00  0.00    -0.009 C 
ATOM     13  C   UNL     1      33.215 -14.787 -23.047  0.00  0.00    -0.039 C 
ATOM     14  C   UNL     1      33.444 -16.007 -23.911  0.00  0.00    +0.056 C 
ATOM     15  C   UNL     1      33.406 -15.007 -21.568  0.00  0.00    +0.056 C 
ATOM     16  C   UNL     1      34.793 -16.674 -23.602  0.00  0.00    +0.135 C 
ATOM     17  C   UNL     1      34.778 -15.629 -21.274  0.00  0.00    +0.135 C 
ATOM     18  C   UNL     1      34.981 -16.879 -22.112  0.00  0.00    +0.009 C 
ATOM     19  C   UNL     1      35.268 -18.093 -21.614  0.00  0.00    -0.004 C 
BRANCH  16  20
ATOM     20  O   UNL     1      35.840 -15.848 -24.113  0.00  0.00    -0.380 OA
ATOM     21  H   UNL     1      35.694 -15.688 -25.059  0.00  0.00    +0.211 HD
ENDBRANCH  16  20
BRANCH  17  22
ATOM     22  O   UNL     1      34.848 -15.886 -19.875  0.00  0.00    -0.380 OA
ATOM     23  H   UNL     1      34.312 -16.665 -19.662  0.00  0.00    +0.211 HD
ENDBRANCH  17  22
ENDBRANCH  11  12
BRANCH   2  24
ATOM     24  C   UNL     1      31.699  -6.364 -22.428  0.00  0.00    +0.000 C 
ATOM     25  C   UNL     1      31.351  -5.535 -21.188  0.00  0.00    +0.000 C 
BRANCH  24  26
ATOM     26  C   UNL     1      32.612  -5.592 -23.401  0.00  0.00    +0.000 C 
ATOM     27  C   UNL     1      31.924  -5.177 -24.694  0.00  0.00    +0.000 C 
ENDBRANCH  24  26
ENDBRANCH   2  24
TORSDOF 5
ENDMDL
MODEL 5
REMARK VINA RESULT:      -7.8      3.667      6.618
REMARK  Name = 5289547
REMARK  5 active torsions:
REMARK  status: ('A' for Active; 'I' for Inactive)
REMARK    1  A    between atoms: C_2  and  C_24
REMARK    2  A    between atoms: C_11  and  C_12
REMARK    3  A    between atoms: C_16  and  O_20
REMARK    4  A    between atoms: C_17  and  O_22
REMARK    5  A    between atoms: C_24  and  C_26
REMARK                            x       y       z     vdW  Elec       q    Type
REMARK                         _______ _______ _______ _____ _____    ______ ____
ROOT
ATOM      1  C   UNL     1      33.366 -14.132 -21.981  0.00  0.00    +0.003 C 
ATOM      2  C   UNL     1      32.370 -13.254 -22.779  0.00  0.00    +0.000 C 
ATOM      3  C   UNL     1      33.348 -15.404 -22.864  0.00  0.00    +0.018 C 
ATOM      4  C   UNL     1      32.744 -13.504 -24.255  0.00  0.00    +0.000 C 
ATOM      5  C   UNL     1      33.474 -14.858 -24.290  0.00  0.00    +0.004 C 
ATOM      6  C   UNL     1      32.889 -14.480 -20.551  0.00  0.00    +0.001 C 
ATOM      7  C   UNL     1      34.296 -16.459 -22.354  0.00  0.00    -0.045 C 
ATOM      8  C   UNL     1      34.765 -13.469 -21.901  0.00  0.00    +0.000 C 
ATOM      9  C   UNL     1      33.102 -15.959 -20.171  0.00  0.00    +0.004 C 
ATOM     10  C   UNL     1      34.313 -16.615 -20.847  0.00  0.00    +0.022 C 
ATOM     11  C   UNL     1      35.070 -17.223 -23.138  0.00  0.00    -0.009 C 
ENDROOT
BRANCH  11  12
ATOM     12  C   UNL     1      35.961 -18.233 -22.624  0.00  0.00    -0.009 C 
ATOM     13  C   UNL     1      35.534 -19.374 -22.063  0.00  0.00    -0.039 C 
ATOM     14  C   UNL     1      36.483 -20.423 -21.529  0.00  0.00    +0.056 C 
ATOM     15  C   UNL     1      34.070 -19.691 -21.891  0.00  0.00    +0.056 C 
ATOM     16  C   UNL     1      36.147 -20.805 -20.079  0.00  0.00    +0.135 C 
ATOM     17  C   UNL     1      33.744 -20.022 -20.429  0.00  0.00    +0.135 C 
ATOM     18  C   UNL     1      34.672 -21.109 -19.915  0.00  0.00    +0.009 C 
ATOM     19  C   UNL     1      34.262 -22.274 -19.386  0.00  0.00    -0.004 C 
BRANCH  16  20
ATOM     20  O   UNL     1      36.517 -19.724 -19.223  0.00  0.00    -0.380 OA
ATOM     21  H   UNL     1      35.852 -19.623 -18.524  0.00  0.00    +0.211 HD
ENDBRANCH  16  20
BRANCH  17  22
ATOM     22  O   UNL     1      32.371 -20.394 -20.364  0.00  0.00    -0.380 OA
ATOM     23  H   UNL     1      31.913 -20.087 -21.162  0.00  0.00    +0.211 HD
ENDBRANCH  17  22
ENDBRANCH  11  12
BRANCH   2  24
ATOM     24  C   UNL     1      32.332 -11.774 -22.422  0.00  0.00    +0.000 C 
ATOM     25  C   UNL     1      32.724 -10.929 -23.638  0.00  0.00    +0.000 C 
BRANCH  24  26
ATOM     26  C   UNL     1      30.940 -11.395 -21.879  0.00  0.00    +0.000 C 
ATOM     27  C   UNL     1      30.919 -11.103 -20.385  0.00  0.00    +0.000 C 
ENDBRANCH  24  26
ENDBRANCH   2  24
TORSDOF 5
ENDMDL
MODEL 6
REMARK VINA RESULT:      -7.3      3.700      8.618
REMARK  Name = 5289547
REMARK  5 active torsions:
REMARK  status: ('A' for Active; 'I' for Inactive)
REMARK    1  A    between atoms: C_2  and  C_24
REMARK    2  A    between atoms: C_11  and  C_12
REMARK    3  A    between atoms: C_16  and  O_20
REMARK    4  A    between atoms: C_17  and  O_22
REMARK    5  A    between atoms: C_24  and  C_26
REMARK                            x       y       z     vdW  Elec       q    Type
REMARK                         _______ _______ _______ _____ _____    ______ ____
ROOT
ATOM      1  C   UNL     1      32.176 -10.902 -21.959  0.00  0.00    +0.003 C 
ATOM      2  C   UNL     1      33.083 -11.991 -22.584  0.00  0.00    +0.000 C 
ATOM      3  C   UNL     1      32.949  -9.637 -22.408  0.00  0.00    +0.018 C 
ATOM      4  C   UNL     1      33.444 -11.428 -23.975  0.00  0.00    +0.000 C 
ATOM      5  C   UNL     1      33.255  -9.904 -23.885  0.00  0.00    +0.004 C 
ATOM      6  C   UNL     1      32.108 -10.954 -20.414  0.00  0.00    +0.001 C 
ATOM      7  C   UNL     1      32.256  -8.370 -21.978  0.00  0.00    -0.045 C 
ATOM      8  C   UNL     1      30.737 -10.968 -22.532  0.00  0.00    +0.000 C 
ATOM      9  C   UNL     1      32.231  -9.572 -19.743  0.00  0.00    +0.004 C 
ATOM     10  C   UNL     1      31.674  -8.413 -20.580  0.00  0.00    +0.022 C 
ATOM     11  C   UNL     1      32.152  -7.271 -22.739  0.00  0.00    -0.009 C 
ENDROOT
BRANCH  11  12
ATOM     12  C   UNL     1      31.492  -6.067 -22.299  0.00  0.00    -0.009 C 
ATOM     13  C   UNL     1      31.045  -5.123 -23.141  0.00  0.00    -0.039 C 
ATOM     14  C   UNL     1      30.355  -3.866 -22.661  0.00  0.00    +0.056 C 
ATOM     15  C   UNL     1      31.221  -5.225 -24.635  0.00  0.00    +0.056 C 
ATOM     16  C   UNL     1      31.006  -2.604 -23.248  0.00  0.00    +0.135 C 
ATOM     17  C   UNL     1      31.916  -3.978 -25.196  0.00  0.00    +0.135 C 
ATOM     18  C   UNL     1      31.190  -2.722 -24.747  0.00  0.00    +0.009 C 
ATOM     19  C   UNL     1      30.702  -1.786 -25.578  0.00  0.00    -0.004 C 
BRANCH  16  20
ATOM     20  O   UNL     1      32.273  -2.408 -22.619  0.00  0.00    -0.380 OA
ATOM     21  H   UNL     1      32.530  -1.476 -22.692  0.00  0.00    +0.211 HD
ENDBRANCH  16  20
BRANCH  17  22
ATOM     22  O   UNL     1      31.966  -4.109 -26.613  0.00  0.00    -0.380 OA
ATOM     23  H   UNL     1      32.843  -4.426 -26.879  0.00  0.00    +0.211 HD
ENDBRANCH  17  22
ENDBRANCH  11  12
BRANCH   2  24
ATOM     24  C   UNL     1      32.508 -13.400 -22.648  0.00  0.00    +0.000 C 
ATOM     25  C   UNL     1      32.496 -13.898 -24.096  0.00  0.00    +0.000 C 
BRANCH  24  26
ATOM     26  C   UNL     1      33.304 -14.340 -21.720  0.00  0.00    +0.000 C 
ATOM     27  C   UNL     1      32.559 -14.727 -20.450  0.00  0.00    +0.000 C 
ENDBRANCH  24  26
ENDBRANCH   2  24
TORSDOF 5
ENDMDL
MODEL 7
REMARK VINA RESULT:      -7.2      1.677      3.426
REMARK  Name = 5289547
REMARK  5 active torsions:
REMARK  status: ('A' for Active; 'I' for Inactive)
REMARK    1  A    between atoms: C_2  and  C_24
REMARK    2  A    between atoms: C_11  and  C_12
REMARK    3  A    between atoms: C_16  and  O_20
REMARK    4  A    between atoms: C_17  and  O_22
REMARK    5  A    between atoms: C_24  and  C_26
REMARK                            x       y       z     vdW  Elec       q    Type
REMARK                         _______ _______ _______ _____ _____    ______ ____
ROOT
ATOM      1  C   UNL     1      32.266  -6.207 -23.904  0.00  0.00    +0.003 C 
ATOM      2  C   UNL     1      31.902  -5.023 -22.973  0.00  0.00    +0.000 C 
ATOM      3  C   UNL     1      32.668  -7.256 -22.838  0.00  0.00    +0.018 C 
ATOM      4  C   UNL     1      31.126  -5.681 -21.813  0.00  0.00    +0.000 C 
ATOM      5  C   UNL     1      31.550  -7.159 -21.794  0.00  0.00    +0.004 C 
ATOM      6  C   UNL     1      33.466  -5.924 -24.839  0.00  0.00    +0.001 C 
ATOM      7  C   UNL     1      33.035  -8.579 -23.458  0.00  0.00    -0.045 C 
ATOM      8  C   UNL     1      31.051  -6.648 -24.760  0.00  0.00    +0.000 C 
ATOM      9  C   UNL     1      34.478  -7.084 -24.915  0.00  0.00    +0.004 C 
ATOM     10  C   UNL     1      33.857  -8.475 -24.726  0.00  0.00    +0.022 C 
ATOM     11  C   UNL     1      32.689  -9.772 -22.953  0.00  0.00    -0.009 C 
ENDROOT
BRANCH  11  12
ATOM     12  C   UNL     1      33.063 -11.025 -23.561  0.00  0.00    -0.009 C 
ATOM     13  C   UNL     1      32.712 -12.219 -23.062  0.00  0.00    -0.039 C 
ATOM     14  C   UNL     1      33.113 -13.523 -23.714  0.00  0.00    +0.056 C 
ATOM     15  C   UNL     1      31.911 -12.359 -21.792  0.00  0.00    +0.056 C 
ATOM     16  C   UNL     1      33.791 -14.471 -22.713  0.00  0.00    +0.135 C 
ATOM     17  C   UNL     1      32.626 -13.270 -20.786  0.00  0.00    +0.135 C 
ATOM     18  C   UNL     1      32.985 -14.595 -21.435  0.00  0.00    +0.009 C 
ATOM     19  C   UNL     1      32.609 -15.798 -20.971  0.00  0.00    -0.004 C 
BRANCH  16  20
ATOM     20  O   UNL     1      35.094 -13.968 -22.416  0.00  0.00    -0.380 OA
ATOM     21  H   UNL     1      35.737 -14.354 -23.032  0.00  0.00    +0.211 HD
ENDBRANCH  16  20
BRANCH  17  22
ATOM     22  O   UNL     1      31.773 -13.423 -19.656  0.00  0.00    -0.380 OA
ATOM     23  H   UNL     1      31.289 -14.260 -19.726  0.00  0.00    +0.211 HD
ENDBRANCH  17  22
ENDBRANCH  11  12
BRANCH   2  24
ATOM     24  C   UNL     1      31.144  -3.866 -23.611  0.00  0.00    +0.000 C 
ATOM     25  C   UNL     1      30.609  -2.928 -22.526  0.00  0.00    +0.000 C 
BRANCH  24  26
ATOM     26  C   UNL     1      32.050  -3.130 -24.617  0.00  0.00    +0.000 C 
ATOM     27  C   UNL     1      31.374  -2.828 -25.947  0.00  0.00    +0.000 C 
ENDBRANCH  24  26
ENDBRANCH   2  24
TORSDOF 5
ENDMDL
MODEL 8
REMARK VINA RESULT:      -6.9      5.964     12.063
REMARK  Name = 5289547
REMARK  5 active torsions:
REMARK  status: ('A' for Active; 'I' for Inactive)
REMARK    1  A    between atoms: C_2  and  C_24
REMARK    2  A    between atoms: C_11  and  C_12
REMARK    3  A    between atoms: C_16  and  O_20
REMARK    4  A    between atoms: C_17  and  O_22
REMARK    5  A    between atoms: C_24  and  C_26
REMARK                            x       y       z     vdW  Elec       q    Type
REMARK                         _______ _______ _______ _____ _____    ______ ____
ROOT
ATOM      1  C   UNL     1      34.395 -21.454 -19.546  0.00  0.00    +0.003 C 
ATOM      2  C   UNL     1      34.867 -21.768 -18.103  0.00  0.00    +0.000 C 
ATOM      3  C   UNL     1      35.311 -20.245 -19.856  0.00  0.00    +0.018 C 
ATOM      4  C   UNL     1      36.400 -21.610 -18.165  0.00  0.00    +0.000 C 
ATOM      5  C   UNL     1      36.691 -20.701 -19.371  0.00  0.00    +0.004 C 
ATOM      6  C   UNL     1      32.911 -21.026 -19.641  0.00  0.00    +0.001 C 
ATOM      7  C   UNL     1      35.114 -19.733 -21.260  0.00  0.00    -0.045 C 
ATOM      8  C   UNL     1      34.637 -22.657 -20.494  0.00  0.00    +0.000 C 
ATOM      9  C   UNL     1      32.677 -19.809 -20.557  0.00  0.00    +0.004 C 
ATOM     10  C   UNL     1      33.671 -19.694 -21.719  0.00  0.00    +0.022 C 
ATOM     11  C   UNL     1      36.108 -19.327 -22.062  0.00  0.00    -0.009 C 
ENDROOT
BRANCH  11  12
ATOM     12  C   UNL     1      35.891 -18.831 -23.398  0.00  0.00    -0.009 C 
ATOM     13  C   UNL     1      35.534 -17.566 -23.665  0.00  0.00    -0.039 C 
ATOM     14  C   UNL     1      35.311 -17.064 -25.073  0.00  0.00    +0.056 C 
ATOM     15  C   UNL     1      35.296 -16.549 -22.578  0.00  0.00    +0.056 C 
ATOM     16  C   UNL     1      33.942 -16.380 -25.220  0.00  0.00    +0.135 C 
ATOM     17  C   UNL     1      33.906 -15.912 -22.711  0.00  0.00    +0.135 C 
ATOM     18  C   UNL     1      33.707 -15.368 -24.116  0.00  0.00    +0.009 C 
ATOM     19  C   UNL     1      33.387 -14.096 -24.403  0.00  0.00    -0.004 C 
BRANCH  16  20
ATOM     20  O   UNL     1      32.924 -17.381 -25.184  0.00  0.00    -0.380 OA
ATOM     21  H   UNL     1      32.151 -17.039 -24.707  0.00  0.00    +0.211 HD
ENDBRANCH  16  20
BRANCH  17  22
ATOM     22  O   UNL     1      33.791 -14.906 -21.710  0.00  0.00    -0.380 OA
ATOM     23  H   UNL     1      34.611 -14.866 -21.195  0.00  0.00    +0.211 HD
ENDBRANCH  17  22
ENDBRANCH  11  12
BRANCH   2  24
ATOM     24  C   UNL     1      34.434 -23.108 -17.524  0.00  0.00    +0.000 C 
ATOM     25  C   UNL     1      35.185 -23.383 -16.218  0.00  0.00    +0.000 C 
BRANCH  24  26
ATOM     26  C   UNL     1      32.905 -23.131 -17.327  0.00  0.00    +0.000 C 
ATOM     27  C   UNL     1      32.473 -23.386 -15.889  0.00  0.00    +0.000 C 
ENDBRANCH  24  26
ENDBRANCH   2  24
TORSDOF 5
ENDMDL
MODEL 9
REMARK VINA RESULT:      -6.9      4.430      8.977
REMARK  Name = 5289547
REMARK  5 active torsions:
REMARK  status: ('A' for Active; 'I' for Inactive)
REMARK    1  A    between atoms: C_2  and  C_24
REMARK    2  A    between atoms: C_11  and  C_12
REMARK    3  A    between atoms: C_16  and  O_20
REMARK    4  A    between atoms: C_17  and  O_22
REMARK    5  A    between atoms: C_24  and  C_26
REMARK                            x       y       z     vdW  Elec       q    Type
REMARK                         _______ _______ _______ _____ _____    ______ ____
ROOT
ATOM      1  C   UNL     1      31.868  -7.666 -22.434  0.00  0.00    +0.003 C 
ATOM      2  C   UNL     1      32.505  -8.811 -21.606  0.00  0.00    +0.000 C 
ATOM      3  C   UNL     1      33.109  -7.217 -23.244  0.00  0.00    +0.018 C 
ATOM      4  C   UNL     1      33.414  -9.544 -22.615  0.00  0.00    +0.000 C 
ATOM      5  C   UNL     1      33.720  -8.533 -23.733  0.00  0.00    +0.004 C 
ATOM      6  C   UNL     1      31.346  -6.488 -21.576  0.00  0.00    +0.001 C 
ATOM      7  C   UNL     1      32.779  -6.110 -24.212  0.00  0.00    -0.045 C 
ATOM      8  C   UNL     1      30.716  -8.190 -23.329  0.00  0.00    +0.000 C 
ATOM      9  C   UNL     1      31.720  -5.103 -22.138  0.00  0.00    +0.004 C 
ATOM     10  C   UNL     1      31.840  -5.053 -23.667  0.00  0.00    +0.022 C 
ATOM     11  C   UNL     1      33.265  -6.027 -25.459  0.00  0.00    -0.009 C 
ENDROOT
BRANCH  11  12
ATOM     12  C   UNL     1      32.942  -4.951 -26.362  0.00  0.00    -0.009 C 
ATOM     13  C   UNL     1      33.687  -4.641 -27.434  0.00  0.00    -0.039 C 
ATOM     14  C   UNL     1      33.332  -3.509 -28.371  0.00  0.00    +0.056 C 
ATOM     15  C   UNL     1      34.956  -5.379 -27.775  0.00  0.00    +0.056 C 
ATOM     16  C   UNL     1      34.515  -2.548 -28.571  0.00  0.00    +0.135 C 
ATOM     17  C   UNL     1      36.136  -4.409 -27.923  0.00  0.00    +0.135 C 
ATOM     18  C   UNL     1      35.789  -3.300 -28.901  0.00  0.00    +0.009 C 
ATOM     19  C   UNL     1      36.501  -3.001 -30.000  0.00  0.00    -0.004 C 
BRANCH  16  20
ATOM     20  O   UNL     1      34.697  -1.789 -27.375  0.00  0.00    -0.380 OA
ATOM     21  H   UNL     1      34.053  -2.078 -26.708  0.00  0.00    +0.211 HD
ENDBRANCH  16  20
BRANCH  17  22
ATOM     22  O   UNL     1      37.272  -5.166 -28.330  0.00  0.00    -0.380 OA
ATOM     23  H   UNL     1      37.045  -6.108 -28.348  0.00  0.00    +0.211 HD
ENDBRANCH  17  22
ENDBRANCH  11  12
BRANCH   2  24
ATOM     24  C   UNL     1      31.542  -9.748 -20.889  0.00  0.00    +0.000 C 
ATOM     25  C   UNL     1      31.572 -11.132 -21.542  0.00  0.00    +0.000 C 
BRANCH  24  26
ATOM     26  C   UNL     1      31.883  -9.810 -19.387  0.00  0.00    +0.000 C 
ATOM     27  C   UNL     1      31.251 -10.988 -18.659  0.00  0.00    +0.000 C 
ENDBRANCH  24  26
ENDBRANCH   2  24
TORSDOF 5
ENDMDL
