MODEL 1
REMARK VINA RESULT:      -5.0      0.000      0.000
REMARK  Name = 12587
REMARK  4 active torsions:
REMARK  status: ('A' for Active; 'I' for Inactive)
REMARK    1  A    between atoms: C_1  and  C_3
REMARK    2  A    between atoms: C_1  and  C_6
REMARK    3  A    between atoms: C_3  and  O_4
REMARK    4  A    between atoms: C_6  and  C_7
REMARK                            x       y       z     vdW  Elec       q    Type
REMARK                         _______ _______ _______ _____ _____    ______ ____
ROOT
ATOM      1  C   UNL     1      34.625 -21.202 -19.754  0.00  0.00    +0.109 C 
ENDROOT
BRANCH   1   3
ATOM      2  O   UNL     1      34.052 -23.546 -19.425  0.00  0.00    -0.250 OA
ATOM      3  C   UNL     1      33.755 -22.364 -19.329  0.00  0.00    +0.314 C 
BRANCH   3   4
ATOM      4  O   UNL     1      32.570 -21.936 -18.821  0.00  0.00    -0.480 OA
ATOM      5  H   UNL     1      31.779 -22.057 -19.310  0.00  0.00    +0.295 HD
ENDBRANCH   3   4
ENDBRANCH   1   3
BRANCH   1   6
ATOM      6  C   UNL     1      33.835 -20.157 -20.545  0.00  0.00    +0.012 C 
BRANCH   6   7
ATOM      7  C   UNL     1      34.727 -19.126 -21.259  0.00  0.00    +0.001 C 
ATOM      8  C   UNL     1      34.625 -19.221 -22.782  0.00  0.00    +0.000 C 
ATOM      9  C   UNL     1      36.183 -19.311 -20.827  0.00  0.00    +0.000 C 
ENDBRANCH   6   7
ENDBRANCH   1   6
TORSDOF 4
ENDMDL
MODEL 2
REMARK VINA RESULT:      -5.0      4.387      5.436
REMARK  Name = 12587
REMARK  4 active torsions:
REMARK  status: ('A' for Active; 'I' for Inactive)
REMARK    1  A    between atoms: C_1  and  C_3
REMARK    2  A    between atoms: C_1  and  C_6
REMARK    3  A    between atoms: C_3  and  O_4
REMARK    4  A    between atoms: C_6  and  C_7
REMARK                            x       y       z     vdW  Elec       q    Type
REMARK                         _______ _______ _______ _____ _____    ______ ____
ROOT
ATOM      1  C   UNL     1      35.011 -18.623 -23.744  0.00  0.00    +0.109 C 
ENDROOT
BRANCH   1   3
ATOM      2  O   UNL     1      34.511 -17.114 -25.589  0.00  0.00    -0.250 OA
ATOM      3  C   UNL     1      35.002 -17.305 -24.485  0.00  0.00    +0.314 C 
BRANCH   3   4
ATOM      4  O   UNL     1      35.625 -16.331 -23.771  0.00  0.00    -0.480 OA
ATOM      5  H   UNL     1      35.514 -16.288 -22.842  0.00  0.00    +0.295 HD
ENDBRANCH   3   4
ENDBRANCH   1   3
BRANCH   1   6
ATOM      6  C   UNL     1      34.636 -18.450 -22.270  0.00  0.00    +0.012 C 
BRANCH   6   7
ATOM      7  C   UNL     1      34.378 -19.783 -21.544  0.00  0.00    +0.001 C 
ATOM      8  C   UNL     1      33.083 -19.764 -20.731  0.00  0.00    +0.000 C 
ATOM      9  C   UNL     1      35.559 -20.113 -20.628  0.00  0.00    +0.000 C 
ENDBRANCH   6   7
ENDBRANCH   1   6
TORSDOF 4
ENDMDL
MODEL 3
REMARK VINA RESULT:      -4.9      6.762      8.054
REMARK  Name = 12587
REMARK  4 active torsions:
REMARK  status: ('A' for Active; 'I' for Inactive)
REMARK    1  A    between atoms: C_1  and  C_3
REMARK    2  A    between atoms: C_1  and  C_6
REMARK    3  A    between atoms: C_3  and  O_4
REMARK    4  A    between atoms: C_6  and  C_7
REMARK                            x       y       z     vdW  Elec       q    Type
REMARK                         _______ _______ _______ _____ _____    ______ ____
ROOT
ATOM      1  C   UNL     1      28.557 -22.642 -15.771  0.00  0.00    +0.109 C 
ENDROOT
BRANCH   1   3
ATOM      2  O   UNL     1      27.091 -21.436 -17.296  0.00  0.00    -0.250 OA
ATOM      3  C   UNL     1      27.672 -22.466 -16.984  0.00  0.00    +0.314 C 
BRANCH   3   4
ATOM      4  O   UNL     1      27.587 -23.613 -17.707  0.00  0.00    -0.480 OA
ATOM      5  H   UNL     1      26.839 -23.772 -18.249  0.00  0.00    +0.295 HD
ENDBRANCH   3   4
ENDBRANCH   1   3
BRANCH   1   6
ATOM      6  C   UNL     1      28.850 -24.118 -15.489  0.00  0.00    +0.012 C 
BRANCH   6   7
ATOM      7  C   UNL     1      30.351 -24.456 -15.496  0.00  0.00    +0.001 C 
ATOM      8  C   UNL     1      30.815 -25.080 -14.179  0.00  0.00    +0.000 C 
ATOM      9  C   UNL     1      31.168 -23.194 -15.784  0.00  0.00    +0.000 C 
ENDBRANCH   6   7
ENDBRANCH   1   6
TORSDOF 4
ENDMDL
MODEL 4
REMARK VINA RESULT:      -4.8      4.668      5.768
REMARK  Name = 12587
REMARK  4 active torsions:
REMARK  status: ('A' for Active; 'I' for Inactive)
REMARK    1  A    between atoms: C_1  and  C_3
REMARK    2  A    between atoms: C_1  and  C_6
REMARK    3  A    between atoms: C_3  and  O_4
REMARK    4  A    between atoms: C_6  and  C_7
REMARK                            x       y       z     vdW  Elec       q    Type
REMARK                         _______ _______ _______ _____ _____    ______ ____
ROOT
ATOM      1  C   UNL     1      34.729 -18.259 -23.947  0.00  0.00    +0.109 C 
ENDROOT
BRANCH   1   3
ATOM      2  O   UNL     1      34.569 -16.809 -25.897  0.00  0.00    -0.250 OA
ATOM      3  C   UNL     1      34.937 -16.992 -24.745  0.00  0.00    +0.314 C 
BRANCH   3   4
ATOM      4  O   UNL     1      35.605 -16.055 -24.022  0.00  0.00    -0.480 OA
ATOM      5  H   UNL     1      36.507 -16.186 -23.803  0.00  0.00    +0.295 HD
ENDBRANCH   3   4
ENDBRANCH   1   3
BRANCH   1   6
ATOM      6  C   UNL     1      35.819 -18.452 -22.889  0.00  0.00    +0.012 C 
BRANCH   6   7
ATOM      7  C   UNL     1      35.270 -18.535 -21.454  0.00  0.00    +0.001 C 
ATOM      8  C   UNL     1      34.071 -19.478 -21.340  0.00  0.00    +0.000 C 
ATOM      9  C   UNL     1      34.877 -17.138 -20.966  0.00  0.00    +0.000 C 
ENDBRANCH   6   7
ENDBRANCH   1   6
TORSDOF 4
ENDMDL
MODEL 5
REMARK VINA RESULT:      -4.8      1.954      2.496
REMARK  Name = 12587
REMARK  4 active torsions:
REMARK  status: ('A' for Active; 'I' for Inactive)
REMARK    1  A    between atoms: C_1  and  C_3
REMARK    2  A    between atoms: C_1  and  C_6
REMARK    3  A    between atoms: C_3  and  O_4
REMARK    4  A    between atoms: C_6  and  C_7
REMARK                            x       y       z     vdW  Elec       q    Type
REMARK                         _______ _______ _______ _____ _____    ______ ____
ROOT
ATOM      1  C   UNL     1      35.060 -21.646 -19.618  0.00  0.00    +0.109 C 
ENDROOT
BRANCH   1   3
ATOM      2  O   UNL     1      35.571 -22.650 -17.459  0.00  0.00    -0.250 OA
ATOM      3  C   UNL     1      35.820 -21.820 -18.323  0.00  0.00    +0.314 C 
BRANCH   3   4
ATOM      4  O   UNL     1      36.835 -20.923 -18.219  0.00  0.00    -0.480 OA
ATOM      5  H   UNL     1      37.191 -20.714 -17.378  0.00  0.00    +0.295 HD
ENDBRANCH   3   4
ENDBRANCH   1   3
BRANCH   1   6
ATOM      6  C   UNL     1      35.505 -20.393 -20.376  0.00  0.00    +0.012 C 
BRANCH   6   7
ATOM      7  C   UNL     1      34.333 -19.526 -20.868  0.00  0.00    +0.001 C 
ATOM      8  C   UNL     1      32.972 -20.147 -20.547  0.00  0.00    +0.000 C 
ATOM      9  C   UNL     1      34.452 -19.297 -22.377  0.00  0.00    +0.000 C 
ENDBRANCH   6   7
ENDBRANCH   1   6
TORSDOF 4
ENDMDL
MODEL 6
REMARK VINA RESULT:      -4.8      3.576      4.701
REMARK  Name = 12587
REMARK  4 active torsions:
REMARK  status: ('A' for Active; 'I' for Inactive)
REMARK    1  A    between atoms: C_1  and  C_3
REMARK    2  A    between atoms: C_1  and  C_6
REMARK    3  A    between atoms: C_3  and  O_4
REMARK    4  A    between atoms: C_6  and  C_7
REMARK                            x       y       z     vdW  Elec       q    Type
REMARK                         _______ _______ _______ _____ _____    ______ ____
ROOT
ATOM      1  C   UNL     1      35.620 -17.981 -22.070  0.00  0.00    +0.109 C 
ENDROOT
BRANCH   1   3
ATOM      2  O   UNL     1      35.155 -16.421 -20.257  0.00  0.00    -0.250 OA
ATOM      3  C   UNL     1      34.907 -16.839 -21.380  0.00  0.00    +0.314 C 
BRANCH   3   4
ATOM      4  O   UNL     1      33.928 -16.320 -22.165  0.00  0.00    -0.480 OA
ATOM      5  H   UNL     1      33.635 -16.789 -22.922  0.00  0.00    +0.295 HD
ENDBRANCH   3   4
ENDBRANCH   1   3
BRANCH   1   6
ATOM      6  C   UNL     1      34.775 -19.257 -22.079  0.00  0.00    +0.012 C 
BRANCH   6   7
ATOM      7  C   UNL     1      34.300 -19.686 -20.679  0.00  0.00    +0.001 C 
ATOM      8  C   UNL     1      35.116 -20.852 -20.117  0.00  0.00    +0.000 C 
ATOM      9  C   UNL     1      32.819 -20.069 -20.727  0.00  0.00    +0.000 C 
ENDBRANCH   6   7
ENDBRANCH   1   6
TORSDOF 4
ENDMDL
MODEL 7
REMARK VINA RESULT:      -4.8      3.941      5.107
REMARK  Name = 12587
REMARK  4 active torsions:
REMARK  status: ('A' for Active; 'I' for Inactive)
REMARK    1  A    between atoms: C_1  and  C_3
REMARK    2  A    between atoms: C_1  and  C_6
REMARK    3  A    between atoms: C_3  and  O_4
REMARK    4  A    between atoms: C_6  and  C_7
REMARK                            x       y       z     vdW  Elec       q    Type
REMARK                         _______ _______ _______ _____ _____    ______ ____
ROOT
ATOM      1  C   UNL     1      35.054 -17.855 -21.980  0.00  0.00    +0.109 C 
ENDROOT
BRANCH   1   3
ATOM      2  O   UNL     1      34.682 -18.002 -24.382  0.00  0.00    -0.250 OA
ATOM      3  C   UNL     1      35.094 -17.378 -23.414  0.00  0.00    +0.314 C 
BRANCH   3   4
ATOM      4  O   UNL     1      35.661 -16.147 -23.512  0.00  0.00    -0.480 OA
ATOM      5  H   UNL     1      35.334 -15.438 -22.994  0.00  0.00    +0.295 HD
ENDBRANCH   3   4
ENDBRANCH   1   3
BRANCH   1   6
ATOM      6  C   UNL     1      34.871 -19.372 -21.888  0.00  0.00    +0.012 C 
BRANCH   6   7
ATOM      7  C   UNL     1      34.295 -19.839 -20.540  0.00  0.00    +0.001 C 
ATOM      8  C   UNL     1      35.038 -21.050 -19.974  0.00  0.00    +0.000 C 
ATOM      9  C   UNL     1      32.809 -20.172 -20.697  0.00  0.00    +0.000 C 
ENDBRANCH   6   7
ENDBRANCH   1   6
TORSDOF 4
ENDMDL
MODEL 8
REMARK VINA RESULT:      -4.7      3.850      4.968
REMARK  Name = 12587
REMARK  4 active torsions:
REMARK  status: ('A' for Active; 'I' for Inactive)
REMARK    1  A    between atoms: C_1  and  C_3
REMARK    2  A    between atoms: C_1  and  C_6
REMARK    3  A    between atoms: C_3  and  O_4
REMARK    4  A    between atoms: C_6  and  C_7
REMARK                            x       y       z     vdW  Elec       q    Type
REMARK                         _______ _______ _______ _____ _____    ______ ____
ROOT
ATOM      1  C   UNL     1      35.606 -18.359 -22.450  0.00  0.00    +0.109 C 
ENDROOT
BRANCH   1   3
ATOM      2  O   UNL     1      34.829 -16.338 -21.335  0.00  0.00    -0.250 OA
ATOM      3  C   UNL     1      35.306 -16.882 -22.321  0.00  0.00    +0.314 C 
BRANCH   3   4
ATOM      4  O   UNL     1      35.628 -16.210 -23.457  0.00  0.00    -0.480 OA
ATOM      5  H   UNL     1      34.961 -15.998 -24.081  0.00  0.00    +0.295 HD
ENDBRANCH   3   4
ENDBRANCH   1   3
BRANCH   1   6
ATOM      6  C   UNL     1      36.062 -18.966 -21.121  0.00  0.00    +0.012 C 
BRANCH   6   7
ATOM      7  C   UNL     1      35.405 -20.323 -20.811  0.00  0.00    +0.001 C 
ATOM      8  C   UNL     1      33.925 -20.187 -20.449  0.00  0.00    +0.000 C 
ATOM      9  C   UNL     1      36.154 -21.015 -19.670  0.00  0.00    +0.000 C 
ENDBRANCH   6   7
ENDBRANCH   1   6
TORSDOF 4
ENDMDL
MODEL 9
REMARK VINA RESULT:      -4.7      3.904      4.966
REMARK  Name = 12587
REMARK  4 active torsions:
REMARK  status: ('A' for Active; 'I' for Inactive)
REMARK    1  A    between atoms: C_1  and  C_3
REMARK    2  A    between atoms: C_1  and  C_6
REMARK    3  A    between atoms: C_3  and  O_4
REMARK    4  A    between atoms: C_6  and  C_7
REMARK                            x       y       z     vdW  Elec       q    Type
REMARK                         _______ _______ _______ _____ _____    ______ ____
ROOT
ATOM      1  C   UNL     1      34.085 -17.590 -21.447  0.00  0.00    +0.109 C 
ENDROOT
BRANCH   1   3
ATOM      2  O   UNL     1      35.201 -15.761 -22.606  0.00  0.00    -0.250 OA
ATOM      3  C   UNL     1      34.783 -16.254 -21.567  0.00  0.00    +0.314 C 
BRANCH   3   4
ATOM      4  O   UNL     1      34.904 -15.648 -20.357  0.00  0.00    -0.480 OA
ATOM      5  H   UNL     1      35.198 -16.138 -19.614  0.00  0.00    +0.295 HD
ENDBRANCH   3   4
ENDBRANCH   1   3
BRANCH   1   6
ATOM      6  C   UNL     1      35.056 -18.708 -21.061  0.00  0.00    +0.012 C 
BRANCH   6   7
ATOM      7  C   UNL     1      34.382 -20.085 -20.927  0.00  0.00    +0.001 C 
ATOM      8  C   UNL     1      32.927 -19.982 -20.468  0.00  0.00    +0.000 C 
ATOM      9  C   UNL     1      35.172 -20.958 -19.949  0.00  0.00    +0.000 C 
ENDBRANCH   6   7
ENDBRANCH   1   6
TORSDOF 4
ENDMDL
