MODEL 1
REMARK VINA RESULT:      -9.6      0.000      0.000
REMARK  Name = 17754117
REMARK  8 active torsions:
REMARK  status: ('A' for Active; 'I' for Inactive)
REMARK    1  A    between atoms: C_2  and  C_20
REMARK    2  A    between atoms: C_5  and  N_10
REMARK    3  A    between atoms: C_7  and  O_8
REMARK    4  A    between atoms: N_10  and  N_12
REMARK    5  A    between atoms: C_20  and  CA_21
REMARK    6  A    between atoms: CA_21  and  N_22
REMARK    7  A    between atoms: CA_21  and  C_27
REMARK    8  A    between atoms: C_27  and  O_28
REMARK                            x       y       z     vdW  Elec       q    Type
REMARK                         _______ _______ _______ _____ _____    ______ ____
ROOT
ATOM      1  O   UNL     1      32.573 -24.602 -13.010  0.00  0.00    -0.291 OA
ATOM      2  C   UNL     1      34.155 -24.314 -14.807  0.00  0.00    +0.084 C 
ATOM      3  C   UNL     1      34.182 -23.801 -16.220  0.00  0.00    +0.000 C 
ATOM      4  C   UNL     1      32.775 -24.219 -14.163  0.00  0.00    +0.180 C 
ATOM      5  C   UNL     1      33.123 -23.294 -16.876  0.00  0.00    +0.091 C 
ATOM      6  C   UNL     1      31.646 -23.652 -14.938  0.00  0.00    +0.076 C 
ATOM      7  C   UNL     1      31.838 -23.228 -16.195  0.00  0.00    +0.151 C 
ENDROOT
BRANCH   7   8
ATOM      8  O   UNL     1      30.805 -22.691 -16.942  0.00  0.00    -0.504 OA
ATOM      9  H   UNL     1      29.922 -22.762 -16.637  0.00  0.00    +0.292 HD
ENDBRANCH   7   8
BRANCH   5  10
ATOM     10  N   UNL     1      33.207 -22.842 -18.167  0.00  0.00    -0.262 N 
ATOM     11  H   UNL     1      32.393 -22.886 -18.719  0.00  0.00    +0.170 HD
BRANCH  10  12
ATOM     12  N   UNL     1      34.318 -22.346 -18.735  0.00  0.00    -0.250 N 
ATOM     13  H   UNL     1      35.174 -22.776 -18.508  0.00  0.00    +0.171 HD
ATOM     14  N   UNL     1      35.555 -20.825 -20.070  0.00  0.00    -0.228 NA
ATOM     15  C   UNL     1      34.355 -21.261 -19.626  0.00  0.00    +0.144 C 
ATOM     16  C   UNL     1      33.141 -20.703 -19.995  0.00  0.00    +0.036 C 
ATOM     17  C   UNL     1      33.161 -19.629 -20.878  0.00  0.00    +0.005 C 
ATOM     18  C   UNL     1      35.535 -19.779 -20.926  0.00  0.00    +0.100 C 
ATOM     19  C   UNL     1      34.377 -19.152 -21.356  0.00  0.00    +0.021 C 
ENDBRANCH  10  12
ENDBRANCH   5  10
BRANCH   2  20
ATOM     20  C   UNL     1      35.173 -23.569 -13.948  0.00  0.00    +0.001 C 
BRANCH  20  21
ATOM     21  CA  UNL     1      36.252 -24.495 -13.384  0.00  0.00    +0.036 C 
BRANCH  21  22
ATOM     22  N   UNL     1      36.125 -25.834 -13.962  0.00  0.00    +0.389 N 
ATOM     23  H1  UNL     1      36.579 -25.855 -14.875  0.00  0.00    -0.088 HD
ATOM     24  H2  UNL     1      35.138 -26.067 -14.066  0.00  0.00    -0.088 HD
ATOM     25  H3  UNL     1      36.571 -26.513 -13.345  0.00  0.00    -0.088 HD
ENDBRANCH  21  22
BRANCH  21  27
ATOM     26  OXT UNL     1      37.063 -24.341 -11.114  0.00  0.00    -0.253 OA
ATOM     27  C   UNL     1      36.150 -24.627 -11.879  0.00  0.00    +0.293 C 
BRANCH  27  28
ATOM     28  O   UNL     1      34.935 -25.050 -11.446  0.00  0.00    -0.482 OA
ATOM     29  H   UNL     1      34.381 -25.546 -12.017  0.00  0.00    +0.295 HD
ENDBRANCH  27  28
ENDBRANCH  21  27
ENDBRANCH  20  21
ENDBRANCH   2  20
TORSDOF 8
ENDMDL
MODEL 2
REMARK VINA RESULT:      -9.4      2.378      4.670
REMARK  Name = 17754117
REMARK  8 active torsions:
REMARK  status: ('A' for Active; 'I' for Inactive)
REMARK    1  A    between atoms: C_2  and  C_20
REMARK    2  A    between atoms: C_5  and  N_10
REMARK    3  A    between atoms: C_7  and  O_8
REMARK    4  A    between atoms: N_10  and  N_12
REMARK    5  A    between atoms: C_20  and  CA_21
REMARK    6  A    between atoms: CA_21  and  N_22
REMARK    7  A    between atoms: CA_21  and  C_27
REMARK    8  A    between atoms: C_27  and  O_28
REMARK                            x       y       z     vdW  Elec       q    Type
REMARK                         _______ _______ _______ _____ _____    ______ ____
ROOT
ATOM      1  O   UNL     1      32.398 -23.349 -13.563  0.00  0.00    -0.291 OA
ATOM      2  C   UNL     1      31.606 -23.163 -15.832  0.00  0.00    +0.084 C 
ATOM      3  C   UNL     1      32.168 -23.061 -17.223  0.00  0.00    +0.000 C 
ATOM      4  C   UNL     1      32.684 -23.266 -14.758  0.00  0.00    +0.180 C 
ATOM      5  C   UNL     1      33.478 -23.067 -17.527  0.00  0.00    +0.091 C 
ATOM      6  C   UNL     1      34.112 -23.267 -15.156  0.00  0.00    +0.076 C 
ATOM      7  C   UNL     1      34.450 -23.176 -16.449  0.00  0.00    +0.151 C 
ENDROOT
BRANCH   7   8
ATOM      8  O   UNL     1      35.773 -23.178 -16.851  0.00  0.00    -0.504 OA
ATOM      9  H   UNL     1      36.453 -23.317 -16.222  0.00  0.00    +0.292 HD
ENDBRANCH   7   8
BRANCH   5  10
ATOM     10  N   UNL     1      33.932 -22.970 -18.816  0.00  0.00    -0.262 N 
ATOM     11  H   UNL     1      33.534 -23.571 -19.487  0.00  0.00    +0.170 HD
BRANCH  10  12
ATOM     12  N   UNL     1      34.882 -22.116 -19.232  0.00  0.00    -0.250 N 
ATOM     13  H   UNL     1      35.818 -22.347 -19.031  0.00  0.00    +0.171 HD
ATOM     14  N   UNL     1      35.695 -20.125 -20.231  0.00  0.00    -0.228 NA
ATOM     15  C   UNL     1      34.645 -20.922 -19.931  0.00  0.00    +0.144 C 
ATOM     16  C   UNL     1      33.332 -20.637 -20.272  0.00  0.00    +0.036 C 
ATOM     17  C   UNL     1      33.081 -19.458 -20.966  0.00  0.00    +0.005 C 
ATOM     18  C   UNL     1      35.413 -18.987 -20.905  0.00  0.00    +0.100 C 
ATOM     19  C   UNL     1      34.136 -18.612 -21.291  0.00  0.00    +0.021 C 
ENDBRANCH  10  12
ENDBRANCH   5  10
BRANCH   2  20
ATOM     20  C   UNL     1      30.660 -24.356 -15.723  0.00  0.00    +0.001 C 
BRANCH  20  21
ATOM     21  CA  UNL     1      29.242 -23.943 -15.326  0.00  0.00    +0.036 C 
BRANCH  21  22
ATOM     22  N   UNL     1      28.530 -25.075 -14.731  0.00  0.00    +0.389 N 
ATOM     23  H1  UNL     1      27.708 -24.735 -14.232  0.00  0.00    -0.088 HD
ATOM     24  H2  UNL     1      29.147 -25.560 -14.080  0.00  0.00    -0.088 HD
ATOM     25  H3  UNL     1      28.239 -25.717 -15.467  0.00  0.00    -0.088 HD
ENDBRANCH  21  22
BRANCH  21  27
ATOM     26  OXT UNL     1      27.873 -24.223 -17.296  0.00  0.00    -0.253 OA
ATOM     27  C   UNL     1      28.440 -23.465 -16.519  0.00  0.00    +0.293 C 
BRANCH  27  28
ATOM     28  O   UNL     1      28.370 -22.115 -16.627  0.00  0.00    -0.482 OA
ATOM     29  H   UNL     1      29.157 -21.606 -16.668  0.00  0.00    +0.295 HD
ENDBRANCH  27  28
ENDBRANCH  21  27
ENDBRANCH  20  21
ENDBRANCH   2  20
TORSDOF 8
ENDMDL
MODEL 3
REMARK VINA RESULT:      -9.2      1.750      2.101
REMARK  Name = 17754117
REMARK  8 active torsions:
REMARK  status: ('A' for Active; 'I' for Inactive)
REMARK    1  A    between atoms: C_2  and  C_20
REMARK    2  A    between atoms: C_5  and  N_10
REMARK    3  A    between atoms: C_7  and  O_8
REMARK    4  A    between atoms: N_10  and  N_12
REMARK    5  A    between atoms: C_20  and  CA_21
REMARK    6  A    between atoms: CA_21  and  N_22
REMARK    7  A    between atoms: CA_21  and  C_27
REMARK    8  A    between atoms: C_27  and  O_28
REMARK                            x       y       z     vdW  Elec       q    Type
REMARK                         _______ _______ _______ _____ _____    ______ ____
ROOT
ATOM      1  O   UNL     1      33.028 -23.866 -13.095  0.00  0.00    -0.291 OA
ATOM      2  C   UNL     1      34.429 -23.961 -15.056  0.00  0.00    +0.084 C 
ATOM      3  C   UNL     1      34.327 -23.707 -16.534  0.00  0.00    +0.000 C 
ATOM      4  C   UNL     1      33.122 -23.700 -14.312  0.00  0.00    +0.180 C 
ATOM      5  C   UNL     1      33.219 -23.284 -17.168  0.00  0.00    +0.091 C 
ATOM      6  C   UNL     1      31.934 -23.236 -15.068  0.00  0.00    +0.076 C 
ATOM      7  C   UNL     1      32.010 -23.048 -16.392  0.00  0.00    +0.151 C 
ENDROOT
BRANCH   7   8
ATOM      8  O   UNL     1      30.920 -22.613 -17.123  0.00  0.00    -0.504 OA
ATOM      9  H   UNL     1      30.604 -23.124 -17.841  0.00  0.00    +0.292 HD
ENDBRANCH   7   8
BRANCH   5  10
ATOM     10  N   UNL     1      33.184 -23.070 -18.521  0.00  0.00    -0.262 N 
ATOM     11  H   UNL     1      33.493 -23.800 -19.106  0.00  0.00    +0.170 HD
BRANCH  10  12
ATOM     12  N   UNL     1      32.762 -21.939 -19.109  0.00  0.00    -0.250 N 
ATOM     13  H   UNL     1      31.800 -21.733 -19.057  0.00  0.00    +0.171 HD
ATOM     14  N   UNL     1      33.011 -19.961 -20.393  0.00  0.00    -0.228 NA
ATOM     15  C   UNL     1      33.583 -21.028 -19.791  0.00  0.00    +0.144 C 
ATOM     16  C   UNL     1      34.945 -21.287 -19.803  0.00  0.00    +0.036 C 
ATOM     17  C   UNL     1      35.772 -20.392 -20.473  0.00  0.00    +0.005 C 
ATOM     18  C   UNL     1      33.846 -19.114 -21.036  0.00  0.00    +0.100 C 
ATOM     19  C   UNL     1      35.219 -19.283 -21.105  0.00  0.00    +0.021 C 
ENDBRANCH  10  12
ENDBRANCH   5  10
BRANCH   2  20
ATOM     20  C   UNL     1      35.542 -23.115 -14.443  0.00  0.00    +0.001 C 
BRANCH  20  21
ATOM     21  CA  UNL     1      36.627 -23.968 -13.782  0.00  0.00    +0.036 C 
BRANCH  21  22
ATOM     22  N   UNL     1      37.370 -23.175 -12.801  0.00  0.00    +0.389 N 
ATOM     23  H1  UNL     1      37.879 -22.433 -13.279  0.00  0.00    -0.088 HD
ATOM     24  H2  UNL     1      38.029 -23.777 -12.307  0.00  0.00    -0.088 HD
ATOM     25  H3  UNL     1      36.718 -22.765 -12.133  0.00  0.00    -0.088 HD
ENDBRANCH  21  22
BRANCH  21  27
ATOM     26  OXT UNL     1      37.837 -25.695 -14.959  0.00  0.00    -0.253 OA
ATOM     27  C   UNL     1      37.618 -24.501 -14.795  0.00  0.00    +0.293 C 
BRANCH  27  28
ATOM     28  O   UNL     1      38.214 -23.537 -15.540  0.00  0.00    -0.482 OA
ATOM     29  H   UNL     1      38.168 -22.640 -15.270  0.00  0.00    +0.295 HD
ENDBRANCH  27  28
ENDBRANCH  21  27
ENDBRANCH  20  21
ENDBRANCH   2  20
TORSDOF 8
ENDMDL
MODEL 4
REMARK VINA RESULT:      -9.0      3.064      4.509
REMARK  Name = 17754117
REMARK  8 active torsions:
REMARK  status: ('A' for Active; 'I' for Inactive)
REMARK    1  A    between atoms: C_2  and  C_20
REMARK    2  A    between atoms: C_5  and  N_10
REMARK    3  A    between atoms: C_7  and  O_8
REMARK    4  A    between atoms: N_10  and  N_12
REMARK    5  A    between atoms: C_20  and  CA_21
REMARK    6  A    between atoms: CA_21  and  N_22
REMARK    7  A    between atoms: CA_21  and  C_27
REMARK    8  A    between atoms: C_27  and  O_28
REMARK                            x       y       z     vdW  Elec       q    Type
REMARK                         _______ _______ _______ _____ _____    ______ ____
ROOT
ATOM      1  O   UNL     1      33.816 -23.378 -17.509  0.00  0.00    -0.291 OA
ATOM      2  C   UNL     1      35.847 -22.245 -18.146  0.00  0.00    +0.084 C 
ATOM      3  C   UNL     1      36.299 -21.196 -19.122  0.00  0.00    +0.000 C 
ATOM      4  C   UNL     1      34.352 -22.539 -18.233  0.00  0.00    +0.180 C 
ATOM      5  C   UNL     1      35.497 -20.553 -19.990  0.00  0.00    +0.091 C 
ATOM      6  C   UNL     1      33.521 -21.799 -19.212  0.00  0.00    +0.076 C 
ATOM      7  C   UNL     1      34.079 -20.881 -20.012  0.00  0.00    +0.151 C 
ENDROOT
BRANCH   7   8
ATOM      8  O   UNL     1      33.328 -20.172 -20.932  0.00  0.00    -0.504 OA
ATOM      9  H   UNL     1      33.508 -19.266 -21.084  0.00  0.00    +0.292 HD
ENDBRANCH   7   8
BRANCH   5  10
ATOM     10  N   UNL     1      35.967 -19.605 -20.860  0.00  0.00    -0.262 N 
ATOM     11  H   UNL     1      36.579 -19.902 -21.572  0.00  0.00    +0.170 HD
BRANCH  10  12
ATOM     12  N   UNL     1      35.656 -18.299 -20.812  0.00  0.00    -0.250 N 
ATOM     13  H   UNL     1      35.697 -17.856 -19.934  0.00  0.00    +0.171 HD
ATOM     14  N   UNL     1      34.928 -16.228 -21.710  0.00  0.00    -0.228 NA
ATOM     15  C   UNL     1      35.278 -17.518 -21.916  0.00  0.00    +0.144 C 
ATOM     16  C   UNL     1      35.290 -18.129 -23.159  0.00  0.00    +0.036 C 
ATOM     17  C   UNL     1      34.919 -17.368 -24.263  0.00  0.00    +0.005 C 
ATOM     18  C   UNL     1      34.573 -15.520 -22.805  0.00  0.00    +0.100 C 
ATOM     19  C   UNL     1      34.551 -16.038 -24.090  0.00  0.00    +0.021 C 
ENDBRANCH  10  12
ENDBRANCH   5  10
BRANCH   2  20
ATOM     20  C   UNL     1      36.205 -21.837 -16.718  0.00  0.00    +0.001 C 
BRANCH  20  21
ATOM     21  CA  UNL     1      36.222 -23.028 -15.758  0.00  0.00    +0.036 C 
BRANCH  21  22
ATOM     22  N   UNL     1      35.205 -22.859 -14.719  0.00  0.00    +0.389 N 
ATOM     23  H1  UNL     1      35.473 -22.092 -14.103  0.00  0.00    -0.088 HD
ATOM     24  H2  UNL     1      35.126 -23.719 -14.178  0.00  0.00    -0.088 HD
ATOM     25  H3  UNL     1      34.307 -22.647 -15.154  0.00  0.00    -0.088 HD
ENDBRANCH  21  22
BRANCH  21  27
ATOM     26  OXT UNL     1      37.716 -23.093 -13.861  0.00  0.00    -0.253 OA
ATOM     27  C   UNL     1      37.565 -23.179 -15.074  0.00  0.00    +0.293 C 
BRANCH  27  28
ATOM     28  O   UNL     1      38.584 -23.464 -15.923  0.00  0.00    -0.482 OA
ATOM     29  H   UNL     1      39.276 -24.034 -15.651  0.00  0.00    +0.295 HD
ENDBRANCH  27  28
ENDBRANCH  21  27
ENDBRANCH  20  21
ENDBRANCH   2  20
TORSDOF 8
ENDMDL
MODEL 5
REMARK VINA RESULT:      -8.8      7.737     11.785
REMARK  Name = 17754117
REMARK  8 active torsions:
REMARK  status: ('A' for Active; 'I' for Inactive)
REMARK    1  A    between atoms: C_2  and  C_20
REMARK    2  A    between atoms: C_5  and  N_10
REMARK    3  A    between atoms: C_7  and  O_8
REMARK    4  A    between atoms: N_10  and  N_12
REMARK    5  A    between atoms: C_20  and  CA_21
REMARK    6  A    between atoms: CA_21  and  N_22
REMARK    7  A    between atoms: CA_21  and  C_27
REMARK    8  A    between atoms: C_27  and  O_28
REMARK                            x       y       z     vdW  Elec       q    Type
REMARK                         _______ _______ _______ _____ _____    ______ ____
ROOT
ATOM      1  O   UNL     1      32.990 -11.622 -23.259  0.00  0.00    -0.291 OA
ATOM      2  C   UNL     1      32.218 -13.394 -21.816  0.00  0.00    +0.084 C 
ATOM      3  C   UNL     1      32.535 -14.833 -21.521  0.00  0.00    +0.000 C 
ATOM      4  C   UNL     1      33.118 -12.790 -22.891  0.00  0.00    +0.180 C 
ATOM      5  C   UNL     1      33.510 -15.545 -22.115  0.00  0.00    +0.091 C 
ATOM      6  C   UNL     1      34.174 -13.626 -23.509  0.00  0.00    +0.076 C 
ATOM      7  C   UNL     1      34.335 -14.900 -23.127  0.00  0.00    +0.151 C 
ENDROOT
BRANCH   7   8
ATOM      8  O   UNL     1      35.314 -15.703 -23.683  0.00  0.00    -0.504 OA
ATOM      9  H   UNL     1      36.119 -15.844 -23.226  0.00  0.00    +0.292 HD
ENDBRANCH   7   8
BRANCH   5  10
ATOM     10  N   UNL     1      33.752 -16.857 -21.806  0.00  0.00    -0.262 N 
ATOM     11  H   UNL     1      33.000 -17.488 -21.876  0.00  0.00    +0.170 HD
BRANCH  10  12
ATOM     12  N   UNL     1      34.940 -17.346 -21.414  0.00  0.00    -0.250 N 
ATOM     13  H   UNL     1      35.719 -16.748 -21.475  0.00  0.00    +0.171 HD
ATOM     14  N   UNL     1      36.420 -19.024 -20.628  0.00  0.00    -0.228 NA
ATOM     15  C   UNL     1      35.157 -18.644 -20.925  0.00  0.00    +0.144 C 
ATOM     16  C   UNL     1      34.047 -19.460 -20.775  0.00  0.00    +0.036 C 
ATOM     17  C   UNL     1      34.246 -20.748 -20.290  0.00  0.00    +0.005 C 
ATOM     18  C   UNL     1      36.576 -20.283 -20.160  0.00  0.00    +0.100 C 
ATOM     19  C   UNL     1      35.532 -21.175 -19.975  0.00  0.00    +0.021 C 
ENDBRANCH  10  12
ENDBRANCH   5  10
BRANCH   2  20
ATOM     20  C   UNL     1      32.308 -12.555 -20.544  0.00  0.00    +0.001 C 
BRANCH  20  21
ATOM     21  CA  UNL     1      31.212 -11.489 -20.468  0.00  0.00    +0.036 C 
BRANCH  21  22
ATOM     22  N   UNL     1      30.425 -11.479 -21.702  0.00  0.00    +0.389 N 
ATOM     23  H1  UNL     1      29.863 -10.630 -21.739  0.00  0.00    -0.088 HD
ATOM     24  H2  UNL     1      29.813 -12.294 -21.720  0.00  0.00    -0.088 HD
ATOM     25  H3  UNL     1      31.053 -11.507 -22.504  0.00  0.00    -0.088 HD
ENDBRANCH  21  22
BRANCH  21  27
ATOM     26  OXT UNL     1      32.070  -9.637 -19.175  0.00  0.00    -0.253 OA
ATOM     27  C   UNL     1      31.790 -10.102 -20.273  0.00  0.00    +0.293 C 
BRANCH  27  28
ATOM     28  O   UNL     1      32.012  -9.433 -21.433  0.00  0.00    -0.482 OA
ATOM     29  H   UNL     1      32.549  -8.665 -21.435  0.00  0.00    +0.295 HD
ENDBRANCH  27  28
ENDBRANCH  21  27
ENDBRANCH  20  21
ENDBRANCH   2  20
TORSDOF 8
ENDMDL
MODEL 6
REMARK VINA RESULT:      -8.8      8.097     11.972
REMARK  Name = 17754117
REMARK  8 active torsions:
REMARK  status: ('A' for Active; 'I' for Inactive)
REMARK    1  A    between atoms: C_2  and  C_20
REMARK    2  A    between atoms: C_5  and  N_10
REMARK    3  A    between atoms: C_7  and  O_8
REMARK    4  A    between atoms: N_10  and  N_12
REMARK    5  A    between atoms: C_20  and  CA_21
REMARK    6  A    between atoms: CA_21  and  N_22
REMARK    7  A    between atoms: CA_21  and  C_27
REMARK    8  A    between atoms: C_27  and  O_28
REMARK                            x       y       z     vdW  Elec       q    Type
REMARK                         _______ _______ _______ _____ _____    ______ ____
ROOT
ATOM      1  O   UNL     1      34.511 -17.871 -25.333  0.00  0.00    -0.291 OA
ATOM      2  C   UNL     1      34.836 -16.178 -23.647  0.00  0.00    +0.084 C 
ATOM      3  C   UNL     1      34.487 -14.735 -23.410  0.00  0.00    +0.000 C 
ATOM      4  C   UNL     1      34.309 -16.710 -24.977  0.00  0.00    +0.180 C 
ATOM      5  C   UNL     1      33.778 -13.964 -24.254  0.00  0.00    +0.091 C 
ATOM      6  C   UNL     1      33.535 -15.811 -25.865  0.00  0.00    +0.076 C 
ATOM      7  C   UNL     1      33.301 -14.543 -25.502  0.00  0.00    +0.151 C 
ENDROOT
BRANCH   7   8
ATOM      8  O   UNL     1      32.579 -13.682 -26.309  0.00  0.00    -0.504 OA
ATOM      9  H   UNL     1      32.348 -13.940 -27.179  0.00  0.00    +0.292 HD
ENDBRANCH   7   8
BRANCH   5  10
ATOM     10  N   UNL     1      33.491 -12.652 -23.985  0.00  0.00    -0.262 N 
ATOM     11  H   UNL     1      32.617 -12.450 -23.579  0.00  0.00    +0.170 HD
BRANCH  10  12
ATOM     12  N   UNL     1      34.314 -11.621 -24.235  0.00  0.00    -0.250 N 
ATOM     13  H   UNL     1      35.147 -11.813 -24.723  0.00  0.00    +0.171 HD
ATOM     14  N   UNL     1      35.027  -9.362 -24.116  0.00  0.00    -0.228 NA
ATOM     15  C   UNL     1      34.079 -10.289 -23.855  0.00  0.00    +0.144 C 
ATOM     16  C   UNL     1      32.873 -10.012 -23.231  0.00  0.00    +0.036 C 
ATOM     17  C   UNL     1      32.625  -8.697 -22.850  0.00  0.00    +0.005 C 
ATOM     18  C   UNL     1      34.751  -8.095 -23.731  0.00  0.00    +0.100 C 
ATOM     19  C   UNL     1      33.578  -7.715 -23.100  0.00  0.00    +0.021 C 
ENDBRANCH  10  12
ENDBRANCH   5  10
BRANCH   2  20
ATOM     20  C   UNL     1      34.315 -17.048 -22.506  0.00  0.00    +0.001 C 
BRANCH  20  21
ATOM     21  CA  UNL     1      35.429 -17.846 -21.824  0.00  0.00    +0.036 C 
BRANCH  21  22
ATOM     22  N   UNL     1      36.477 -18.182 -22.788  0.00  0.00    +0.389 N 
ATOM     23  H1  UNL     1      37.336 -18.414 -22.289  0.00  0.00    -0.088 HD
ATOM     24  H2  UNL     1      36.644 -17.385 -23.401  0.00  0.00    -0.088 HD
ATOM     25  H3  UNL     1      36.181 -18.983 -23.346  0.00  0.00    -0.088 HD
ENDBRANCH  21  22
BRANCH  21  27
ATOM     26  OXT UNL     1      33.859 -19.665 -21.575  0.00  0.00    -0.253 OA
ATOM     27  C   UNL     1      34.911 -19.139 -21.230  0.00  0.00    +0.293 C 
BRANCH  27  28
ATOM     28  O   UNL     1      35.740 -19.690 -20.308  0.00  0.00    -0.482 OA
ATOM     29  H   UNL     1      35.694 -19.415 -19.412  0.00  0.00    +0.295 HD
ENDBRANCH  27  28
ENDBRANCH  21  27
ENDBRANCH  20  21
ENDBRANCH   2  20
TORSDOF 8
ENDMDL
MODEL 7
REMARK VINA RESULT:      -8.7      3.667      8.126
REMARK  Name = 17754117
REMARK  8 active torsions:
REMARK  status: ('A' for Active; 'I' for Inactive)
REMARK    1  A    between atoms: C_2  and  C_20
REMARK    2  A    between atoms: C_5  and  N_10
REMARK    3  A    between atoms: C_7  and  O_8
REMARK    4  A    between atoms: N_10  and  N_12
REMARK    5  A    between atoms: C_20  and  CA_21
REMARK    6  A    between atoms: CA_21  and  N_22
REMARK    7  A    between atoms: CA_21  and  C_27
REMARK    8  A    between atoms: C_27  and  O_28
REMARK                            x       y       z     vdW  Elec       q    Type
REMARK                         _______ _______ _______ _____ _____    ______ ____
ROOT
ATOM      1  O   UNL     1      36.929 -19.612 -20.446  0.00  0.00    -0.291 OA
ATOM      2  C   UNL     1      34.715 -20.553 -20.619  0.00  0.00    +0.084 C 
ATOM      3  C   UNL     1      33.854 -21.558 -19.907  0.00  0.00    +0.000 C 
ATOM      4  C   UNL     1      36.094 -20.391 -19.985  0.00  0.00    +0.180 C 
ATOM      5  C   UNL     1      34.222 -22.254 -18.816  0.00  0.00    +0.091 C 
ATOM      6  C   UNL     1      36.441 -21.186 -18.784  0.00  0.00    +0.076 C 
ATOM      7  C   UNL     1      35.551 -22.041 -18.261  0.00  0.00    +0.151 C 
ENDROOT
BRANCH   7   8
ATOM      8  O   UNL     1      35.846 -22.795 -17.140  0.00  0.00    -0.504 OA
ATOM      9  H   UNL     1      35.304 -22.731 -16.378  0.00  0.00    +0.292 HD
ENDBRANCH   7   8
BRANCH   5  10
ATOM     10  N   UNL     1      33.393 -23.160 -18.209  0.00  0.00    -0.262 N 
ATOM     11  H   UNL     1      33.747 -24.065 -18.050  0.00  0.00    +0.170 HD
BRANCH  10  12
ATOM     12  N   UNL     1      32.134 -22.906 -17.818  0.00  0.00    -0.250 N 
ATOM     13  H   UNL     1      31.499 -22.598 -18.505  0.00  0.00    +0.171 HD
ATOM     14  N   UNL     1      30.375 -22.690 -16.242  0.00  0.00    -0.228 NA
ATOM     15  C   UNL     1      31.652 -23.045 -16.507  0.00  0.00    +0.144 C 
ATOM     16  C   UNL     1      32.530 -23.545 -15.558  0.00  0.00    +0.036 C 
ATOM     17  C   UNL     1      32.067 -23.690 -14.255  0.00  0.00    +0.005 C 
ATOM     18  C   UNL     1      29.960 -22.844 -14.965  0.00  0.00    +0.100 C 
ATOM     19  C   UNL     1      30.759 -23.334 -13.945  0.00  0.00    +0.021 C 
ENDBRANCH  10  12
ENDBRANCH   5  10
BRANCH   2  20
ATOM     20  C   UNL     1      34.017 -19.196 -20.677  0.00  0.00    +0.001 C 
BRANCH  20  21
ATOM     21  CA  UNL     1      34.244 -18.479 -22.010  0.00  0.00    +0.036 C 
BRANCH  21  22
ATOM     22  N   UNL     1      34.988 -19.340 -22.931  0.00  0.00    +0.389 N 
ATOM     23  H1  UNL     1      35.423 -18.768 -23.654  0.00  0.00    -0.088 HD
ATOM     24  H2  UNL     1      34.350 -20.008 -23.362  0.00  0.00    -0.088 HD
ATOM     25  H3  UNL     1      35.710 -19.843 -22.416  0.00  0.00    -0.088 HD
ENDBRANCH  21  22
BRANCH  21  27
ATOM     26  OXT UNL     1      35.315 -16.447 -22.758  0.00  0.00    -0.253 OA
ATOM     27  C   UNL     1      35.032 -17.198 -21.832  0.00  0.00    +0.293 C 
BRANCH  27  28
ATOM     28  O   UNL     1      35.361 -16.931 -20.543  0.00  0.00    -0.482 OA
ATOM     29  H   UNL     1      36.262 -16.855 -20.294  0.00  0.00    +0.295 HD
ENDBRANCH  27  28
ENDBRANCH  21  27
ENDBRANCH  20  21
ENDBRANCH   2  20
TORSDOF 8
ENDMDL
MODEL 8
REMARK VINA RESULT:      -8.7      6.644     11.614
REMARK  Name = 17754117
REMARK  8 active torsions:
REMARK  status: ('A' for Active; 'I' for Inactive)
REMARK    1  A    between atoms: C_2  and  C_20
REMARK    2  A    between atoms: C_5  and  N_10
REMARK    3  A    between atoms: C_7  and  O_8
REMARK    4  A    between atoms: N_10  and  N_12
REMARK    5  A    between atoms: C_20  and  CA_21
REMARK    6  A    between atoms: CA_21  and  N_22
REMARK    7  A    between atoms: CA_21  and  C_27
REMARK    8  A    between atoms: C_27  and  O_28
REMARK                            x       y       z     vdW  Elec       q    Type
REMARK                         _______ _______ _______ _____ _____    ______ ____
ROOT
ATOM      1  O   UNL     1      33.804 -15.412 -26.310  0.00  0.00    -0.291 OA
ATOM      2  C   UNL     1      33.561 -15.276 -23.915  0.00  0.00    +0.084 C 
ATOM      3  C   UNL     1      33.829 -16.120 -22.700  0.00  0.00    +0.000 C 
ATOM      4  C   UNL     1      33.961 -15.961 -25.219  0.00  0.00    +0.180 C 
ATOM      5  C   UNL     1      34.372 -17.350 -22.721  0.00  0.00    +0.091 C 
ATOM      6  C   UNL     1      34.555 -17.318 -25.176  0.00  0.00    +0.076 C 
ATOM      7  C   UNL     1      34.737 -17.937 -24.002  0.00  0.00    +0.151 C 
ENDROOT
BRANCH   7   8
ATOM      8  O   UNL     1      35.291 -19.202 -23.931  0.00  0.00    -0.504 OA
ATOM      9  H   UNL     1      36.070 -19.400 -24.413  0.00  0.00    +0.292 HD
ENDBRANCH   7   8
BRANCH   5  10
ATOM     10  N   UNL     1      34.592 -18.074 -21.579  0.00  0.00    -0.262 N 
ATOM     11  H   UNL     1      35.458 -17.959 -21.126  0.00  0.00    +0.170 HD
BRANCH  10  12
ATOM     12  N   UNL     1      33.713 -18.930 -21.032  0.00  0.00    -0.250 N 
ATOM     13  H   UNL     1      32.757 -18.711 -21.114  0.00  0.00    +0.171 HD
ATOM     14  N   UNL     1      33.063 -20.847 -19.796  0.00  0.00    -0.228 NA
ATOM     15  C   UNL     1      34.051 -20.112 -20.354  0.00  0.00    +0.144 C 
ATOM     16  C   UNL     1      35.394 -20.451 -20.302  0.00  0.00    +0.036 C 
ATOM     17  C   UNL     1      35.745 -21.620 -19.635  0.00  0.00    +0.005 C 
ATOM     18  C   UNL     1      33.442 -21.975 -19.155  0.00  0.00    +0.100 C 
ATOM     19  C   UNL     1      34.756 -22.401 -19.047  0.00  0.00    +0.021 C 
ENDBRANCH  10  12
ENDBRANCH   5  10
BRANCH   2  20
ATOM     20  C   UNL     1      34.278 -13.933 -23.802  0.00  0.00    +0.001 C 
BRANCH  20  21
ATOM     21  CA  UNL     1      33.408 -12.859 -23.145  0.00  0.00    +0.036 C 
BRANCH  21  22
ATOM     22  N   UNL     1      31.996 -13.237 -23.213  0.00  0.00    +0.389 N 
ATOM     23  H1  UNL     1      31.425 -12.490 -22.818  0.00  0.00    -0.088 HD
ATOM     24  H2  UNL     1      31.848 -14.095 -22.682  0.00  0.00    -0.088 HD
ATOM     25  H3  UNL     1      31.732 -13.389 -24.186  0.00  0.00    -0.088 HD
ENDBRANCH  21  22
BRANCH  21  27
ATOM     26  OXT UNL     1      32.903 -10.528 -23.527  0.00  0.00    -0.253 OA
ATOM     27  C   UNL     1      33.564 -11.516 -23.827  0.00  0.00    +0.293 C 
BRANCH  27  28
ATOM     28  O   UNL     1      34.534 -11.490 -24.775  0.00  0.00    -0.482 OA
ATOM     29  H   UNL     1      34.779 -10.678 -25.175  0.00  0.00    +0.295 HD
ENDBRANCH  27  28
ENDBRANCH  21  27
ENDBRANCH  20  21
ENDBRANCH   2  20
TORSDOF 8
ENDMDL
MODEL 9
REMARK VINA RESULT:      -8.6      4.013      5.728
REMARK  Name = 17754117
REMARK  8 active torsions:
REMARK  status: ('A' for Active; 'I' for Inactive)
REMARK    1  A    between atoms: C_2  and  C_20
REMARK    2  A    between atoms: C_5  and  N_10
REMARK    3  A    between atoms: C_7  and  O_8
REMARK    4  A    between atoms: N_10  and  N_12
REMARK    5  A    between atoms: C_20  and  CA_21
REMARK    6  A    between atoms: CA_21  and  N_22
REMARK    7  A    between atoms: CA_21  and  C_27
REMARK    8  A    between atoms: C_27  and  O_28
REMARK                            x       y       z     vdW  Elec       q    Type
REMARK                         _______ _______ _______ _____ _____    ______ ____
ROOT
ATOM      1  O   UNL     1      38.128 -26.398 -12.177  0.00  0.00    -0.291 OA
ATOM      2  C   UNL     1      36.702 -26.390 -14.121  0.00  0.00    +0.084 C 
ATOM      3  C   UNL     1      35.454 -25.707 -14.607  0.00  0.00    +0.000 C 
ATOM      4  C   UNL     1      37.130 -25.934 -12.729  0.00  0.00    +0.180 C 
ATOM      5  C   UNL     1      34.766 -24.778 -13.918  0.00  0.00    +0.091 C 
ATOM      6  C   UNL     1      36.329 -24.907 -12.021  0.00  0.00    +0.076 C 
ATOM      7  C   UNL     1      35.239 -24.386 -12.599  0.00  0.00    +0.151 C 
ENDROOT
BRANCH   7   8
ATOM      8  O   UNL     1      34.474 -23.425 -11.963  0.00  0.00    -0.504 OA
ATOM      9  H   UNL     1      34.511 -23.338 -11.031  0.00  0.00    +0.292 HD
ENDBRANCH   7   8
BRANCH   5  10
ATOM     10  N   UNL     1      33.631 -24.190 -14.413  0.00  0.00    -0.262 N 
ATOM     11  H   UNL     1      33.742 -23.396 -14.984  0.00  0.00    +0.170 HD
BRANCH  10  12
ATOM     12  N   UNL     1      32.380 -24.615 -14.174  0.00  0.00    -0.250 N 
ATOM     13  H   UNL     1      32.257 -25.282 -13.460  0.00  0.00    +0.171 HD
ATOM     14  N   UNL     1      30.044 -24.745 -14.559  0.00  0.00    -0.228 NA
ATOM     15  C   UNL     1      31.235 -24.182 -14.861  0.00  0.00    +0.144 C 
ATOM     16  C   UNL     1      31.404 -23.193 -15.816  0.00  0.00    +0.036 C 
ATOM     17  C   UNL     1      30.279 -22.752 -16.505  0.00  0.00    +0.005 C 
ATOM     18  C   UNL     1      28.972 -24.294 -15.248  0.00  0.00    +0.100 C 
ATOM     19  C   UNL     1      29.036 -23.309 -16.222  0.00  0.00    +0.021 C 
ENDBRANCH  10  12
ENDBRANCH   5  10
BRANCH   2  20
ATOM     20  C   UNL     1      37.848 -26.173 -15.105  0.00  0.00    +0.001 C 
BRANCH  20  21
ATOM     21  CA  UNL     1      38.673 -24.927 -14.775  0.00  0.00    +0.036 C 
BRANCH  21  22
ATOM     22  N   UNL     1      38.255 -23.802 -15.613  0.00  0.00    +0.389 N 
ATOM     23  H1  UNL     1      37.685 -24.148 -16.385  0.00  0.00    -0.088 HD
ATOM     24  H2  UNL     1      39.080 -23.330 -15.983  0.00  0.00    -0.088 HD
ATOM     25  H3  UNL     1      37.710 -23.147 -15.054  0.00  0.00    -0.088 HD
ENDBRANCH  21  22
BRANCH  21  27
ATOM     26  OXT UNL     1      41.027 -24.698 -14.281  0.00  0.00    -0.253 OA
ATOM     27  C   UNL     1      40.153 -25.155 -15.007  0.00  0.00    +0.293 C 
BRANCH  27  28
ATOM     28  O   UNL     1      40.424 -25.952 -16.071  0.00  0.00    -0.482 OA
ATOM     29  H   UNL     1      41.314 -26.143 -16.299  0.00  0.00    +0.295 HD
ENDBRANCH  27  28
ENDBRANCH  21  27
ENDBRANCH  20  21
ENDBRANCH   2  20
TORSDOF 8
ENDMDL
