MODEL 1
REMARK VINA RESULT:      -6.3      0.000      0.000
REMARK  Name = 5289076
REMARK  5 active torsions:
REMARK  status: ('A' for Active; 'I' for Inactive)
REMARK    1  A    between atoms: C_2  and  C_14
REMARK    2  A    between atoms: C_4  and  O_8
REMARK    3  A    between atoms: C_6  and  O_10
REMARK    4  A    between atoms: C_7  and  O_12
REMARK    5  A    between atoms: C_14  and  O_15
REMARK                            x       y       z     vdW  Elec       q    Type
REMARK                         _______ _______ _______ _____ _____    ______ ____
ROOT
ATOM      1  O   UNL     1      38.473 -26.284 -13.146  0.00  0.00    -0.351 OA
ATOM      2  C   UNL     1      38.976 -25.395 -14.161  0.00  0.00    +0.171 C 
ATOM      3  C   UNL     1      38.725 -24.934 -12.750  0.00  0.00    +0.147 C 
ATOM      4  C   UNL     1      38.006 -25.093 -15.264  0.00  0.00    +0.169 C 
ATOM      5  C   UNL     1      37.512 -24.133 -12.399  0.00  0.00    +0.064 C 
ATOM      6  C   UNL     1      36.985 -24.008 -14.891  0.00  0.00    +0.166 C 
ATOM      7  C   UNL     1      36.419 -24.165 -13.474  0.00  0.00    +0.142 C 
ENDROOT
BRANCH   4   8
ATOM      8  O   UNL     1      37.334 -26.290 -15.651  0.00  0.00    -0.379 OA
ATOM      9  H   UNL     1      36.496 -26.066 -16.085  0.00  0.00    +0.211 HD
ENDBRANCH   4   8
BRANCH   6  10
ATOM     10  O   UNL     1      37.598 -22.723 -14.991  0.00  0.00    -0.379 OA
ATOM     11  H   UNL     1      37.585 -22.430 -15.915  0.00  0.00    +0.211 HD
ENDBRANCH   6  10
BRANCH   7  12
ATOM     12  O   UNL     1      35.678 -25.378 -13.388  0.00  0.00    -0.382 OA
ATOM     13  H   UNL     1      34.869 -25.302 -13.918  0.00  0.00    +0.210 HD
ENDBRANCH   7  12
BRANCH   2  14
ATOM     14  C   UNL     1      40.368 -25.731 -14.564  0.00  0.00    +0.169 C 
BRANCH  14  15
ATOM     15  O   UNL     1      40.431 -25.943 -15.975  0.00  0.00    -0.379 OA
ATOM     16  H   UNL     1      39.868 -25.294 -16.425  0.00  0.00    +0.211 HD
ENDBRANCH  14  15
ENDBRANCH   2  14
TORSDOF 5
ENDMDL
MODEL 2
REMARK VINA RESULT:      -6.2      1.530      3.831
REMARK  Name = 5289076
REMARK  5 active torsions:
REMARK  status: ('A' for Active; 'I' for Inactive)
REMARK    1  A    between atoms: C_2  and  C_14
REMARK    2  A    between atoms: C_4  and  O_8
REMARK    3  A    between atoms: C_6  and  O_10
REMARK    4  A    between atoms: C_7  and  O_12
REMARK    5  A    between atoms: C_14  and  O_15
REMARK                            x       y       z     vdW  Elec       q    Type
REMARK                         _______ _______ _______ _____ _____    ______ ____
ROOT
ATOM      1  O   UNL     1      35.996 -25.156 -15.186  0.00  0.00    -0.351 OA
ATOM      2  C   UNL     1      36.140 -24.704 -13.825  0.00  0.00    +0.171 C 
ATOM      3  C   UNL     1      36.678 -23.915 -14.990  0.00  0.00    +0.147 C 
ATOM      4  C   UNL     1      37.038 -25.553 -12.976  0.00  0.00    +0.169 C 
ATOM      5  C   UNL     1      38.135 -23.925 -15.327  0.00  0.00    +0.064 C 
ATOM      6  C   UNL     1      38.529 -25.247 -13.182  0.00  0.00    +0.166 C 
ATOM      7  C   UNL     1      38.916 -25.061 -14.654  0.00  0.00    +0.142 C 
ENDROOT
BRANCH   4   8
ATOM      8  O   UNL     1      36.777 -26.931 -13.233  0.00  0.00    -0.379 OA
ATOM      9  H   UNL     1      36.951 -27.126 -14.167  0.00  0.00    +0.211 HD
ENDBRANCH   4   8
BRANCH   6  10
ATOM     10  O   UNL     1      38.874 -24.058 -12.472  0.00  0.00    -0.379 OA
ATOM     11  H   UNL     1      38.183 -23.857 -11.823  0.00  0.00    +0.211 HD
ENDBRANCH   6  10
BRANCH   7  12
ATOM     12  O   UNL     1      38.715 -26.283 -15.359  0.00  0.00    -0.382 OA
ATOM     13  H   UNL     1      38.742 -26.114 -16.313  0.00  0.00    +0.210 HD
ENDBRANCH   7  12
BRANCH   2  14
ATOM     14  C   UNL     1      34.840 -24.295 -13.228  0.00  0.00    +0.169 C 
BRANCH  14  15
ATOM     15  O   UNL     1      34.643 -24.965 -11.982  0.00  0.00    -0.379 OA
ATOM     16  H   UNL     1      35.089 -24.473 -11.276  0.00  0.00    +0.211 HD
ENDBRANCH  14  15
ENDBRANCH   2  14
TORSDOF 5
ENDMDL
MODEL 3
REMARK VINA RESULT:      -6.0      1.377      1.539
REMARK  Name = 5289076
REMARK  5 active torsions:
REMARK  status: ('A' for Active; 'I' for Inactive)
REMARK    1  A    between atoms: C_2  and  C_14
REMARK    2  A    between atoms: C_4  and  O_8
REMARK    3  A    between atoms: C_6  and  O_10
REMARK    4  A    between atoms: C_7  and  O_12
REMARK    5  A    between atoms: C_14  and  O_15
REMARK                            x       y       z     vdW  Elec       q    Type
REMARK                         _______ _______ _______ _____ _____    ______ ____
ROOT
ATOM      1  O   UNL     1      37.889 -25.613 -11.841  0.00  0.00    -0.351 OA
ATOM      2  C   UNL     1      38.102 -25.118 -13.177  0.00  0.00    +0.171 C 
ATOM      3  C   UNL     1      38.030 -24.198 -11.987  0.00  0.00    +0.147 C 
ATOM      4  C   UNL     1      36.934 -25.291 -14.101  0.00  0.00    +0.169 C 
ATOM      5  C   UNL     1      36.799 -23.399 -11.697  0.00  0.00    +0.064 C 
ATOM      6  C   UNL     1      35.860 -24.208 -13.925  0.00  0.00    +0.166 C 
ATOM      7  C   UNL     1      35.558 -23.880 -12.458  0.00  0.00    +0.142 C 
ENDROOT
BRANCH   4   8
ATOM      8  O   UNL     1      36.364 -26.586 -13.916  0.00  0.00    -0.379 OA
ATOM      9  H   UNL     1      36.556 -26.899 -13.018  0.00  0.00    +0.211 HD
ENDBRANCH   4   8
BRANCH   6  10
ATOM     10  O   UNL     1      36.280 -23.010 -14.577  0.00  0.00    -0.379 OA
ATOM     11  H   UNL     1      35.506 -22.543 -14.927  0.00  0.00    +0.211 HD
ENDBRANCH   6  10
BRANCH   7  12
ATOM     12  O   UNL     1      35.000 -25.025 -11.818  0.00  0.00    -0.382 OA
ATOM     13  H   UNL     1      34.739 -25.675 -12.489  0.00  0.00    +0.210 HD
ENDBRANCH   7  12
BRANCH   2  14
ATOM     14  C   UNL     1      39.441 -25.492 -13.708  0.00  0.00    +0.169 C 
BRANCH  14  15
ATOM     15  O   UNL     1      39.322 -26.613 -14.585  0.00  0.00    -0.379 OA
ATOM     16  H   UNL     1      40.206 -26.932 -14.824  0.00  0.00    +0.211 HD
ENDBRANCH  14  15
ENDBRANCH   2  14
TORSDOF 5
ENDMDL
MODEL 4
REMARK VINA RESULT:      -5.9      1.434      3.734
REMARK  Name = 5289076
REMARK  5 active torsions:
REMARK  status: ('A' for Active; 'I' for Inactive)
REMARK    1  A    between atoms: C_2  and  C_14
REMARK    2  A    between atoms: C_4  and  O_8
REMARK    3  A    between atoms: C_6  and  O_10
REMARK    4  A    between atoms: C_7  and  O_12
REMARK    5  A    between atoms: C_14  and  O_15
REMARK                            x       y       z     vdW  Elec       q    Type
REMARK                         _______ _______ _______ _____ _____    ______ ____
ROOT
ATOM      1  O   UNL     1      37.582 -23.267 -13.526  0.00  0.00    -0.351 OA
ATOM      2  C   UNL     1      36.607 -24.300 -13.290  0.00  0.00    +0.171 C 
ATOM      3  C   UNL     1      37.979 -24.342 -12.671  0.00  0.00    +0.147 C 
ATOM      4  C   UNL     1      36.268 -25.127 -14.494  0.00  0.00    +0.169 C 
ATOM      5  C   UNL     1      39.049 -25.232 -13.216  0.00  0.00    +0.064 C 
ATOM      6  C   UNL     1      37.297 -26.233 -14.774  0.00  0.00    +0.166 C 
ATOM      7  C   UNL     1      38.750 -25.768 -14.622  0.00  0.00    +0.142 C 
ENDROOT
BRANCH   4   8
ATOM      8  O   UNL     1      36.131 -24.280 -15.633  0.00  0.00    -0.379 OA
ATOM      9  H   UNL     1      35.802 -23.411 -15.354  0.00  0.00    +0.211 HD
ENDBRANCH   4   8
BRANCH   6  10
ATOM     10  O   UNL     1      37.077 -27.325 -13.883  0.00  0.00    -0.379 OA
ATOM     11  H   UNL     1      37.890 -27.847 -13.804  0.00  0.00    +0.211 HD
ENDBRANCH   6  10
BRANCH   7  12
ATOM     12  O   UNL     1      39.038 -24.773 -15.600  0.00  0.00    -0.382 OA
ATOM     13  H   UNL     1      39.887 -24.972 -16.023  0.00  0.00    +0.210 HD
ENDBRANCH   7  12
BRANCH   2  14
ATOM     14  C   UNL     1      35.466 -23.819 -12.463  0.00  0.00    +0.169 C 
BRANCH  14  15
ATOM     15  O   UNL     1      34.636 -24.919 -12.090  0.00  0.00    -0.379 OA
ATOM     16  H   UNL     1      34.542 -25.524 -12.842  0.00  0.00    +0.211 HD
ENDBRANCH  14  15
ENDBRANCH   2  14
TORSDOF 5
ENDMDL
MODEL 5
REMARK VINA RESULT:      -5.9      1.666      3.864
REMARK  Name = 5289076
REMARK  5 active torsions:
REMARK  status: ('A' for Active; 'I' for Inactive)
REMARK    1  A    between atoms: C_2  and  C_14
REMARK    2  A    between atoms: C_4  and  O_8
REMARK    3  A    between atoms: C_6  and  O_10
REMARK    4  A    between atoms: C_7  and  O_12
REMARK    5  A    between atoms: C_14  and  O_15
REMARK                            x       y       z     vdW  Elec       q    Type
REMARK                         _______ _______ _______ _____ _____    ______ ____
ROOT
ATOM      1  O   UNL     1      36.853 -24.093 -15.715  0.00  0.00    -0.351 OA
ATOM      2  C   UNL     1      35.955 -24.803 -14.842  0.00  0.00    +0.171 C 
ATOM      3  C   UNL     1      37.000 -23.858 -14.313  0.00  0.00    +0.147 C 
ATOM      4  C   UNL     1      36.158 -26.288 -14.810  0.00  0.00    +0.169 C 
ATOM      5  C   UNL     1      38.270 -24.364 -13.708  0.00  0.00    +0.064 C 
ATOM      6  C   UNL     1      37.311 -26.720 -13.891  0.00  0.00    +0.166 C 
ATOM      7  C   UNL     1      38.558 -25.837 -14.022  0.00  0.00    +0.142 C 
ENDROOT
BRANCH   4   8
ATOM      8  O   UNL     1      36.376 -26.771 -16.134  0.00  0.00    -0.379 OA
ATOM      9  H   UNL     1      35.702 -27.432 -16.354  0.00  0.00    +0.211 HD
ENDBRANCH   4   8
BRANCH   6  10
ATOM     10  O   UNL     1      36.875 -26.685 -12.532  0.00  0.00    -0.379 OA
ATOM     11  H   UNL     1      36.118 -27.279 -12.420  0.00  0.00    +0.211 HD
ENDBRANCH   6  10
BRANCH   7  12
ATOM     12  O   UNL     1      39.098 -25.966 -15.334  0.00  0.00    -0.382 OA
ATOM     13  H   UNL     1      40.001 -26.313 -15.280  0.00  0.00    +0.210 HD
ENDBRANCH   7  12
BRANCH   2  14
ATOM     14  C   UNL     1      34.552 -24.320 -14.964  0.00  0.00    +0.169 C 
BRANCH  14  15
ATOM     15  O   UNL     1      33.711 -25.028 -14.054  0.00  0.00    -0.379 OA
ATOM     16  H   UNL     1      34.041 -24.910 -13.149  0.00  0.00    +0.211 HD
ENDBRANCH  14  15
ENDBRANCH   2  14
TORSDOF 5
ENDMDL
MODEL 6
REMARK VINA RESULT:      -5.9      1.815      3.141
REMARK  Name = 5289076
REMARK  5 active torsions:
REMARK  status: ('A' for Active; 'I' for Inactive)
REMARK    1  A    between atoms: C_2  and  C_14
REMARK    2  A    between atoms: C_4  and  O_8
REMARK    3  A    between atoms: C_6  and  O_10
REMARK    4  A    between atoms: C_7  and  O_12
REMARK    5  A    between atoms: C_14  and  O_15
REMARK                            x       y       z     vdW  Elec       q    Type
REMARK                         _______ _______ _______ _____ _____    ______ ____
ROOT
ATOM      1  O   UNL     1      36.902 -25.112 -14.831  0.00  0.00    -0.351 OA
ATOM      2  C   UNL     1      37.226 -23.730 -14.586  0.00  0.00    +0.171 C 
ATOM      3  C   UNL     1      38.233 -24.832 -14.391  0.00  0.00    +0.147 C 
ATOM      4  C   UNL     1      36.506 -23.116 -13.423  0.00  0.00    +0.169 C 
ATOM      5  C   UNL     1      38.575 -25.338 -13.027  0.00  0.00    +0.064 C 
ATOM      6  C   UNL     1      37.148 -23.455 -12.069  0.00  0.00    +0.166 C 
ATOM      7  C   UNL     1      37.571 -24.923 -11.944  0.00  0.00    +0.142 C 
ENDROOT
BRANCH   4   8
ATOM      8  O   UNL     1      35.139 -23.525 -13.436  0.00  0.00    -0.379 OA
ATOM      9  H   UNL     1      35.019 -24.234 -14.087  0.00  0.00    +0.211 HD
ENDBRANCH   4   8
BRANCH   6  10
ATOM     10  O   UNL     1      38.300 -22.636 -11.870  0.00  0.00    -0.379 OA
ATOM     11  H   UNL     1      38.602 -22.720 -10.953  0.00  0.00    +0.211 HD
ENDBRANCH   6  10
BRANCH   7  12
ATOM     12  O   UNL     1      36.417 -25.758 -11.997  0.00  0.00    -0.382 OA
ATOM     13  H   UNL     1      36.607 -26.600 -11.554  0.00  0.00    +0.210 HD
ENDBRANCH   7  12
BRANCH   2  14
ATOM     14  C   UNL     1      37.276 -22.932 -15.841  0.00  0.00    +0.169 C 
BRANCH  14  15
ATOM     15  O   UNL     1      36.018 -22.998 -16.512  0.00  0.00    -0.379 OA
ATOM     16  H   UNL     1      35.343 -23.333 -15.902  0.00  0.00    +0.211 HD
ENDBRANCH  14  15
ENDBRANCH   2  14
TORSDOF 5
ENDMDL
MODEL 7
REMARK VINA RESULT:      -5.7      1.775      3.759
REMARK  Name = 5289076
REMARK  5 active torsions:
REMARK  status: ('A' for Active; 'I' for Inactive)
REMARK    1  A    between atoms: C_2  and  C_14
REMARK    2  A    between atoms: C_4  and  O_8
REMARK    3  A    between atoms: C_6  and  O_10
REMARK    4  A    between atoms: C_7  and  O_12
REMARK    5  A    between atoms: C_14  and  O_15
REMARK                            x       y       z     vdW  Elec       q    Type
REMARK                         _______ _______ _______ _____ _____    ______ ____
ROOT
ATOM      1  O   UNL     1      37.316 -26.193 -12.102  0.00  0.00    -0.351 OA
ATOM      2  C   UNL     1      36.663 -25.098 -12.772  0.00  0.00    +0.171 C 
ATOM      3  C   UNL     1      36.701 -26.484 -13.360  0.00  0.00    +0.147 C 
ATOM      4  C   UNL     1      37.587 -24.020 -13.255  0.00  0.00    +0.169 C 
ATOM      5  C   UNL     1      37.644 -26.831 -14.468  0.00  0.00    +0.064 C 
ATOM      6  C   UNL     1      38.270 -24.362 -14.587  0.00  0.00    +0.166 C 
ATOM      7  C   UNL     1      38.771 -25.809 -14.662  0.00  0.00    +0.142 C 
ENDROOT
BRANCH   4   8
ATOM      8  O   UNL     1      38.567 -23.747 -12.255  0.00  0.00    -0.379 OA
ATOM      9  H   UNL     1      38.583 -22.795 -12.068  0.00  0.00    +0.211 HD
ENDBRANCH   4   8
BRANCH   6  10
ATOM     10  O   UNL     1      37.354 -24.147 -15.660  0.00  0.00    -0.379 OA
ATOM     11  H   UNL     1      36.843 -24.956 -15.817  0.00  0.00    +0.211 HD
ENDBRANCH   6  10
BRANCH   7  12
ATOM     12  O   UNL     1      39.793 -26.011 -13.691  0.00  0.00    -0.382 OA
ATOM     13  H   UNL     1      40.093 -25.153 -13.353  0.00  0.00    +0.210 HD
ENDBRANCH   7  12
BRANCH   2  14
ATOM     14  C   UNL     1      35.431 -24.658 -12.063  0.00  0.00    +0.169 C 
BRANCH  14  15
ATOM     15  O   UNL     1      35.459 -25.113 -10.709  0.00  0.00    -0.379 OA
ATOM     16  H   UNL     1      35.488 -26.082 -10.694  0.00  0.00    +0.211 HD
ENDBRANCH  14  15
ENDBRANCH   2  14
TORSDOF 5
ENDMDL
MODEL 8
REMARK VINA RESULT:      -5.5      1.899      3.654
REMARK  Name = 5289076
REMARK  5 active torsions:
REMARK  status: ('A' for Active; 'I' for Inactive)
REMARK    1  A    between atoms: C_2  and  C_14
REMARK    2  A    between atoms: C_4  and  O_8
REMARK    3  A    between atoms: C_6  and  O_10
REMARK    4  A    between atoms: C_7  and  O_12
REMARK    5  A    between atoms: C_14  and  O_15
REMARK                            x       y       z     vdW  Elec       q    Type
REMARK                         _______ _______ _______ _____ _____    ______ ____
ROOT
ATOM      1  O   UNL     1      36.140 -23.177 -13.587  0.00  0.00    -0.351 OA
ATOM      2  C   UNL     1      35.727 -24.354 -14.308  0.00  0.00    +0.171 C 
ATOM      3  C   UNL     1      35.607 -24.252 -12.811  0.00  0.00    +0.147 C 
ATOM      4  C   UNL     1      36.846 -25.117 -14.952  0.00  0.00    +0.169 C 
ATOM      5  C   UNL     1      36.583 -24.933 -11.906  0.00  0.00    +0.064 C 
ATOM      6  C   UNL     1      37.589 -26.038 -13.973  0.00  0.00    +0.166 C 
ATOM      7  C   UNL     1      37.867 -25.386 -12.613  0.00  0.00    +0.142 C 
ENDROOT
BRANCH   4   8
ATOM      8  O   UNL     1      37.759 -24.205 -15.560  0.00  0.00    -0.379 OA
ATOM      9  H   UNL     1      38.653 -24.366 -15.220  0.00  0.00    +0.211 HD
ENDBRANCH   4   8
BRANCH   6  10
ATOM     10  O   UNL     1      36.820 -27.221 -13.756  0.00  0.00    -0.379 OA
ATOM     11  H   UNL     1      36.157 -27.309 -14.458  0.00  0.00    +0.211 HD
ENDBRANCH   6  10
BRANCH   7  12
ATOM     12  O   UNL     1      38.751 -24.283 -12.785  0.00  0.00    -0.382 OA
ATOM     13  H   UNL     1      38.416 -23.706 -13.489  0.00  0.00    +0.210 HD
ENDBRANCH   7  12
BRANCH   2  14
ATOM     14  C   UNL     1      34.516 -24.109 -15.139  0.00  0.00    +0.169 C 
BRANCH  14  15
ATOM     15  O   UNL     1      34.891 -23.913 -16.503  0.00  0.00    -0.379 OA
ATOM     16  H   UNL     1      35.317 -24.717 -16.840  0.00  0.00    +0.211 HD
ENDBRANCH  14  15
ENDBRANCH   2  14
TORSDOF 5
ENDMDL
MODEL 9
REMARK VINA RESULT:      -5.5      1.498      2.979
REMARK  Name = 5289076
REMARK  5 active torsions:
REMARK  status: ('A' for Active; 'I' for Inactive)
REMARK    1  A    between atoms: C_2  and  C_14
REMARK    2  A    between atoms: C_4  and  O_8
REMARK    3  A    between atoms: C_6  and  O_10
REMARK    4  A    between atoms: C_7  and  O_12
REMARK    5  A    between atoms: C_14  and  O_15
REMARK                            x       y       z     vdW  Elec       q    Type
REMARK                         _______ _______ _______ _____ _____    ______ ____
ROOT
ATOM      1  O   UNL     1      36.337 -24.935 -15.622  0.00  0.00    -0.351 OA
ATOM      2  C   UNL     1      36.895 -25.879 -14.689  0.00  0.00    +0.171 C 
ATOM      3  C   UNL     1      35.674 -25.061 -14.362  0.00  0.00    +0.147 C 
ATOM      4  C   UNL     1      38.248 -25.509 -14.159  0.00  0.00    +0.169 C 
ATOM      5  C   UNL     1      35.759 -23.862 -13.472  0.00  0.00    +0.064 C 
ATOM      6  C   UNL     1      38.188 -24.487 -13.013  0.00  0.00    +0.166 C 
ATOM      7  C   UNL     1      37.189 -23.350 -13.260  0.00  0.00    +0.142 C 
ENDROOT
BRANCH   4   8
ATOM      8  O   UNL     1      39.058 -25.010 -15.221  0.00  0.00    -0.379 OA
ATOM      9  H   UNL     1      39.696 -25.690 -15.489  0.00  0.00    +0.211 HD
ENDBRANCH   4   8
BRANCH   6  10
ATOM     10  O   UNL     1      37.824 -25.151 -11.803  0.00  0.00    -0.379 OA
ATOM     11  H   UNL     1      37.174 -25.843 -11.996  0.00  0.00    +0.211 HD
ENDBRANCH   6  10
BRANCH   7  12
ATOM     12  O   UNL     1      37.610 -22.582 -14.384  0.00  0.00    -0.382 OA
ATOM     13  H   UNL     1      38.560 -22.403 -14.316  0.00  0.00    +0.210 HD
ENDBRANCH   7  12
BRANCH   2  14
ATOM     14  C   UNL     1      36.711 -27.287 -15.134  0.00  0.00    +0.169 C 
BRANCH  14  15
ATOM     15  O   UNL     1      36.825 -27.368 -16.555  0.00  0.00    -0.379 OA
ATOM     16  H   UNL     1      37.325 -26.605 -16.884  0.00  0.00    +0.211 HD
ENDBRANCH  14  15
ENDBRANCH   2  14
TORSDOF 5
ENDMDL
