MODEL 1
REMARK VINA RESULT:     -10.9      0.000      0.000
REMARK  Name = 5496599
REMARK  7 active torsions:
REMARK  status: ('A' for Active; 'I' for Inactive)
REMARK    1  A    between atoms: N_2  and  C_17
REMARK    2  A    between atoms: C_3  and  C_5
REMARK    3  A    between atoms: C_8  and  S_11
REMARK    4  A    between atoms: S_11  and  N_14
REMARK    5  A    between atoms: C_17  and  C_18
REMARK    6  A    between atoms: C_18  and  C_20
REMARK    7  A    between atoms: C_18  and  C_29
REMARK                            x       y       z     vdW  Elec       q    Type
REMARK                         _______ _______ _______ _____ _____    ______ ____
ROOT
ATOM      1  O   UNL     1      33.995 -23.762 -19.273  0.00  0.00    -0.270 OA
ATOM      2  N   UNL     1      32.991 -22.399 -17.689  0.00  0.00    -0.301 N 
ATOM      3  C   UNL     1      33.673 -22.647 -18.873  0.00  0.00    +0.246 C 
ATOM      4  H   UNL     1      32.776 -21.467 -17.453  0.00  0.00    +0.150 HD
ENDROOT
BRANCH   3   5
ATOM      5  C   UNL     1      34.043 -21.452 -19.674  0.00  0.00    +0.053 C 
ATOM      6  C   UNL     1      33.037 -20.653 -20.179  0.00  0.00    +0.006 C 
ATOM      7  C   UNL     1      35.377 -21.179 -19.887  0.00  0.00    +0.006 C 
ATOM      8  C   UNL     1      34.728 -19.233 -21.163  0.00  0.00    +0.122 C 
ATOM      9  C   UNL     1      33.385 -19.531 -20.933  0.00  0.00    +0.020 C 
ATOM     10  C   UNL     1      35.724 -20.058 -20.640  0.00  0.00    +0.020 C 
BRANCH   8  11
ATOM     11  S   UNL     1      35.162 -17.828 -22.104  0.00  0.00    +0.057 S 
ATOM     12  O   UNL     1      34.375 -17.835 -23.330  0.00  0.00    -0.153 OA
ATOM     13  O   UNL     1      35.134 -16.662 -21.233  0.00  0.00    -0.153 OA
BRANCH  11  14
ATOM     14  N   UNL     1      36.787 -18.185 -22.491  0.00  0.00    -0.203 NA
ATOM     15  H   UNL     1      36.815 -18.899 -23.218  0.00  0.00    +0.144 HD
ATOM     16  H   UNL     1      37.267 -18.528 -21.658  0.00  0.00    +0.144 HD
ENDBRANCH  11  14
ENDBRANCH   8  11
ENDBRANCH   3   5
BRANCH   2  17
ATOM     17  C   UNL     1      32.585 -23.450 -16.792  0.00  0.00    +0.094 C 
BRANCH  17  18
ATOM     18  C   UNL     1      33.173 -23.261 -15.370  0.00  0.00    +0.042 C 
BRANCH  18  20
ATOM     19  N   UNL     1      38.577 -24.745 -15.045  0.00  0.00    -0.312 N 
ATOM     20  C   UNL     1      34.628 -23.593 -15.300  0.00  0.00    -0.021 C 
ATOM     21  C   UNL     1      35.022 -24.897 -14.982  0.00  0.00    -0.003 C 
ATOM     22  C   UNL     1      35.574 -22.601 -15.550  0.00  0.00    -0.003 C 
ATOM     23  C   UNL     1      36.397 -25.202 -14.917  0.00  0.00    +0.014 C 
ATOM     24  C   UNL     1      37.323 -24.188 -15.172  0.00  0.00    +0.048 C 
ATOM     25  C   UNL     1      36.943 -22.881 -15.491  0.00  0.00    +0.014 C 
ATOM     26  C   UNL     1      37.138 -26.383 -14.631  0.00  0.00    +0.017 C 
ATOM     27  C   UNL     1      38.475 -26.070 -14.719  0.00  0.00    +0.062 C 
ATOM     28  H   UNL     1      39.424 -24.258 -15.171  0.00  0.00    +0.152 HD
ENDBRANCH  18  20
BRANCH  18  29
ATOM     29  C   UNL     1      32.298 -24.078 -14.376  0.00  0.00    +0.006 C 
ATOM     30  C   UNL     1      30.983 -23.385 -14.040  0.00  0.00    +0.000 C 
ENDBRANCH  18  29
ENDBRANCH  17  18
ENDBRANCH   2  17
TORSDOF 7
ENDMDL
MODEL 2
REMARK VINA RESULT:     -10.6      3.754      9.171
REMARK  Name = 5496599
REMARK  7 active torsions:
REMARK  status: ('A' for Active; 'I' for Inactive)
REMARK    1  A    between atoms: N_2  and  C_17
REMARK    2  A    between atoms: C_3  and  C_5
REMARK    3  A    between atoms: C_8  and  S_11
REMARK    4  A    between atoms: S_11  and  N_14
REMARK    5  A    between atoms: C_17  and  C_18
REMARK    6  A    between atoms: C_18  and  C_20
REMARK    7  A    between atoms: C_18  and  C_29
REMARK                            x       y       z     vdW  Elec       q    Type
REMARK                         _______ _______ _______ _____ _____    ______ ____
ROOT
ATOM      1  O   UNL     1      34.032 -23.215 -19.756  0.00  0.00    -0.270 OA
ATOM      2  N   UNL     1      33.149 -21.127 -19.270  0.00  0.00    -0.301 N 
ATOM      3  C   UNL     1      33.507 -22.434 -18.967  0.00  0.00    +0.246 C 
ATOM      4  H   UNL     1      32.732 -20.576 -18.569  0.00  0.00    +0.150 HD
ENDROOT
BRANCH   3   5
ATOM      5  C   UNL     1      33.194 -22.892 -17.589  0.00  0.00    +0.053 C 
ATOM      6  C   UNL     1      31.877 -22.917 -17.180  0.00  0.00    +0.006 C 
ATOM      7  C   UNL     1      34.230 -23.276 -16.764  0.00  0.00    +0.006 C 
ATOM      8  C   UNL     1      32.613 -23.741 -15.030  0.00  0.00    +0.122 C 
ATOM      9  C   UNL     1      31.584 -23.347 -15.885  0.00  0.00    +0.020 C 
ATOM     10  C   UNL     1      33.936 -23.706 -15.470  0.00  0.00    +0.020 C 
BRANCH   8  11
ATOM     11  S   UNL     1      32.245 -24.280 -13.411  0.00  0.00    +0.057 S 
ATOM     12  O   UNL     1      31.712 -23.151 -12.661  0.00  0.00    -0.153 OA
ATOM     13  O   UNL     1      31.480 -25.516 -13.497  0.00  0.00    -0.153 OA
BRANCH  11  14
ATOM     14  N   UNL     1      33.808 -24.643 -12.825  0.00  0.00    -0.203 NA
ATOM     15  H   UNL     1      34.060 -23.979 -12.094  0.00  0.00    +0.144 HD
ATOM     16  H   UNL     1      34.481 -24.578 -13.590  0.00  0.00    +0.144 HD
ENDBRANCH  11  14
ENDBRANCH   8  11
ENDBRANCH   3   5
BRANCH   2  17
ATOM     17  C   UNL     1      33.363 -20.545 -20.571  0.00  0.00    +0.094 C 
BRANCH  17  18
ATOM     18  C   UNL     1      34.668 -19.710 -20.626  0.00  0.00    +0.042 C 
BRANCH  18  20
ATOM     19  N   UNL     1      34.441 -15.492 -24.322  0.00  0.00    -0.312 N 
ATOM     20  C   UNL     1      34.619 -18.632 -21.658  0.00  0.00    -0.021 C 
ATOM     21  C   UNL     1      34.411 -17.307 -21.262  0.00  0.00    -0.003 C 
ATOM     22  C   UNL     1      34.779 -18.958 -23.004  0.00  0.00    -0.003 C 
ATOM     23  C   UNL     1      34.364 -16.295 -22.242  0.00  0.00    +0.014 C 
ATOM     24  C   UNL     1      34.527 -16.651 -23.583  0.00  0.00    +0.048 C 
ATOM     25  C   UNL     1      34.736 -17.972 -23.993  0.00  0.00    +0.014 C 
ATOM     26  C   UNL     1      34.176 -14.885 -22.204  0.00  0.00    +0.017 C 
ATOM     27  C   UNL     1      34.229 -14.420 -23.498  0.00  0.00    +0.062 C 
ATOM     28  H   UNL     1      34.521 -15.443 -25.303  0.00  0.00    +0.152 HD
ENDBRANCH  18  20
BRANCH  18  29
ATOM     29  C   UNL     1      35.860 -20.694 -20.806  0.00  0.00    +0.006 C 
ATOM     30  C   UNL     1      36.703 -20.839 -19.545  0.00  0.00    +0.000 C 
ENDBRANCH  18  29
ENDBRANCH  17  18
ENDBRANCH   2  17
TORSDOF 7
ENDMDL
MODEL 3
REMARK VINA RESULT:     -10.5      1.168      1.423
REMARK  Name = 5496599
REMARK  7 active torsions:
REMARK  status: ('A' for Active; 'I' for Inactive)
REMARK    1  A    between atoms: N_2  and  C_17
REMARK    2  A    between atoms: C_3  and  C_5
REMARK    3  A    between atoms: C_8  and  S_11
REMARK    4  A    between atoms: S_11  and  N_14
REMARK    5  A    between atoms: C_17  and  C_18
REMARK    6  A    between atoms: C_18  and  C_20
REMARK    7  A    between atoms: C_18  and  C_29
REMARK                            x       y       z     vdW  Elec       q    Type
REMARK                         _______ _______ _______ _____ _____    ______ ____
ROOT
ATOM      1  O   UNL     1      33.900 -23.915 -19.367  0.00  0.00    -0.270 OA
ATOM      2  N   UNL     1      33.851 -22.659 -17.417  0.00  0.00    -0.301 N 
ATOM      3  C   UNL     1      33.989 -22.835 -18.788  0.00  0.00    +0.246 C 
ATOM      4  H   UNL     1      33.939 -21.751 -17.046  0.00  0.00    +0.150 HD
ENDROOT
BRANCH   3   5
ATOM      5  C   UNL     1      34.288 -21.611 -19.575  0.00  0.00    +0.053 C 
ATOM      6  C   UNL     1      33.238 -20.841 -20.032  0.00  0.00    +0.006 C 
ATOM      7  C   UNL     1      35.604 -21.284 -19.824  0.00  0.00    +0.006 C 
ATOM      8  C   UNL     1      34.842 -19.339 -21.038  0.00  0.00    +0.122 C 
ATOM      9  C   UNL     1      33.519 -19.692 -20.772  0.00  0.00    +0.020 C 
ATOM     10  C   UNL     1      35.884 -20.136 -20.564  0.00  0.00    +0.020 C 
BRANCH   8  11
ATOM     11  S   UNL     1      35.193 -17.900 -21.962  0.00  0.00    +0.057 S 
ATOM     12  O   UNL     1      34.361 -17.909 -23.159  0.00  0.00    -0.153 OA
ATOM     13  O   UNL     1      35.157 -16.754 -21.065  0.00  0.00    -0.153 OA
BRANCH  11  14
ATOM     14  N   UNL     1      36.814 -18.191 -22.416  0.00  0.00    -0.203 NA
ATOM     15  H   UNL     1      37.176 -18.987 -21.890  0.00  0.00    +0.144 HD
ATOM     16  H   UNL     1      37.377 -17.365 -22.213  0.00  0.00    +0.144 HD
ENDBRANCH  11  14
ENDBRANCH   8  11
ENDBRANCH   3   5
BRANCH   2  17
ATOM     17  C   UNL     1      33.585 -23.752 -16.517  0.00  0.00    +0.094 C 
BRANCH  17  18
ATOM     18  C   UNL     1      33.631 -23.307 -15.033  0.00  0.00    +0.042 C 
BRANCH  18  20
ATOM     19  N   UNL     1      38.152 -25.446 -12.486  0.00  0.00    -0.312 N 
ATOM     20  C   UNL     1      34.799 -23.878 -14.298  0.00  0.00    -0.021 C 
ATOM     21  C   UNL     1      36.002 -24.097 -14.979  0.00  0.00    -0.003 C 
ATOM     22  C   UNL     1      34.678 -24.188 -12.945  0.00  0.00    -0.003 C 
ATOM     23  C   UNL     1      37.099 -24.638 -14.278  0.00  0.00    +0.014 C 
ATOM     24  C   UNL     1      36.949 -24.939 -12.923  0.00  0.00    +0.048 C 
ATOM     25  C   UNL     1      35.753 -24.725 -12.230  0.00  0.00    +0.014 C 
ATOM     26  C   UNL     1      38.432 -24.983 -14.638  0.00  0.00    +0.017 C 
ATOM     27  C   UNL     1      39.055 -25.476 -13.514  0.00  0.00    +0.062 C 
ATOM     28  H   UNL     1      38.337 -25.744 -11.565  0.00  0.00    +0.152 HD
ENDBRANCH  18  20
BRANCH  18  29
ATOM     29  C   UNL     1      32.258 -23.649 -14.387  0.00  0.00    +0.006 C 
ATOM     30  C   UNL     1      31.138 -22.729 -14.858  0.00  0.00    +0.000 C 
ENDBRANCH  18  29
ENDBRANCH  17  18
ENDBRANCH   2  17
TORSDOF 7
ENDMDL
MODEL 4
REMARK VINA RESULT:     -10.4      4.109      9.651
REMARK  Name = 5496599
REMARK  7 active torsions:
REMARK  status: ('A' for Active; 'I' for Inactive)
REMARK    1  A    between atoms: N_2  and  C_17
REMARK    2  A    between atoms: C_3  and  C_5
REMARK    3  A    between atoms: C_8  and  S_11
REMARK    4  A    between atoms: S_11  and  N_14
REMARK    5  A    between atoms: C_17  and  C_18
REMARK    6  A    between atoms: C_18  and  C_20
REMARK    7  A    between atoms: C_18  and  C_29
REMARK                            x       y       z     vdW  Elec       q    Type
REMARK                         _______ _______ _______ _____ _____    ______ ____
ROOT
ATOM      1  O   UNL     1      32.746 -21.435 -20.251  0.00  0.00    -0.270 OA
ATOM      2  N   UNL     1      34.618 -20.108 -20.586  0.00  0.00    -0.301 N 
ATOM      3  C   UNL     1      33.883 -21.092 -19.938  0.00  0.00    +0.246 C 
ATOM      4  H   UNL     1      35.524 -19.903 -20.261  0.00  0.00    +0.150 HD
ENDROOT
BRANCH   3   5
ATOM      5  C   UNL     1      34.542 -21.736 -18.773  0.00  0.00    +0.053 C 
ATOM      6  C   UNL     1      35.883 -21.497 -18.552  0.00  0.00    +0.006 C 
ATOM      7  C   UNL     1      33.794 -22.551 -17.951  0.00  0.00    +0.006 C 
ATOM      8  C   UNL     1      35.768 -22.932 -16.611  0.00  0.00    +0.122 C 
ATOM      9  C   UNL     1      36.502 -22.103 -17.458  0.00  0.00    +0.020 C 
ATOM     10  C   UNL     1      34.413 -23.156 -16.858  0.00  0.00    +0.020 C 
BRANCH   8  11
ATOM     11  S   UNL     1      36.543 -23.688 -15.241  0.00  0.00    +0.057 S 
ATOM     12  O   UNL     1      36.399 -25.132 -15.372  0.00  0.00    -0.153 OA
ATOM     13  O   UNL     1      37.867 -23.105 -15.079  0.00  0.00    -0.153 OA
BRANCH  11  14
ATOM     14  N   UNL     1      35.545 -23.148 -13.963  0.00  0.00    -0.203 NA
ATOM     15  H   UNL     1      35.136 -23.953 -13.488  0.00  0.00    +0.144 HD
ATOM     16  H   UNL     1      34.801 -22.560 -14.339  0.00  0.00    +0.144 HD
ENDBRANCH  11  14
ENDBRANCH   8  11
ENDBRANCH   3   5
BRANCH   2  17
ATOM     17  C   UNL     1      34.107 -19.375 -21.717  0.00  0.00    +0.094 C 
BRANCH  17  18
ATOM     18  C   UNL     1      35.007 -18.166 -22.081  0.00  0.00    +0.042 C 
BRANCH  18  20
ATOM     19  N   UNL     1      32.386 -13.203 -22.031  0.00  0.00    -0.312 N 
ATOM     20  C   UNL     1      34.277 -16.865 -22.012  0.00  0.00    -0.021 C 
ATOM     21  C   UNL     1      34.503 -15.895 -22.994  0.00  0.00    -0.003 C 
ATOM     22  C   UNL     1      33.381 -16.631 -20.970  0.00  0.00    -0.003 C 
ATOM     23  C   UNL     1      33.812 -14.669 -22.922  0.00  0.00    +0.014 C 
ATOM     24  C   UNL     1      32.920 -14.462 -21.867  0.00  0.00    +0.048 C 
ATOM     25  C   UNL     1      32.684 -15.422 -20.878  0.00  0.00    +0.014 C 
ATOM     26  C   UNL     1      33.794 -13.492 -23.722  0.00  0.00    +0.017 C 
ATOM     27  C   UNL     1      32.908 -12.609 -23.148  0.00  0.00    +0.062 C 
ATOM     28  H   UNL     1      31.724 -12.790 -21.430  0.00  0.00    +0.152 HD
ENDBRANCH  18  20
BRANCH  18  29
ATOM     29  C   UNL     1      35.650 -18.448 -23.469  0.00  0.00    +0.006 C 
ATOM     30  C   UNL     1      34.754 -19.281 -24.377  0.00  0.00    +0.000 C 
ENDBRANCH  18  29
ENDBRANCH  17  18
ENDBRANCH   2  17
TORSDOF 7
ENDMDL
MODEL 5
REMARK VINA RESULT:     -10.4      3.911      9.198
REMARK  Name = 5496599
REMARK  7 active torsions:
REMARK  status: ('A' for Active; 'I' for Inactive)
REMARK    1  A    between atoms: N_2  and  C_17
REMARK    2  A    between atoms: C_3  and  C_5
REMARK    3  A    between atoms: C_8  and  S_11
REMARK    4  A    between atoms: S_11  and  N_14
REMARK    5  A    between atoms: C_17  and  C_18
REMARK    6  A    between atoms: C_18  and  C_20
REMARK    7  A    between atoms: C_18  and  C_29
REMARK                            x       y       z     vdW  Elec       q    Type
REMARK                         _______ _______ _______ _____ _____    ______ ____
ROOT
ATOM      1  O   UNL     1      37.507 -20.148 -17.226  0.00  0.00    -0.270 OA
ATOM      2  N   UNL     1      36.616 -21.493 -18.892  0.00  0.00    -0.301 N 
ATOM      3  C   UNL     1      37.065 -21.230 -17.605  0.00  0.00    +0.246 C 
ATOM      4  H   UNL     1      36.279 -22.394 -19.100  0.00  0.00    +0.150 HD
ENDROOT
BRANCH   3   5
ATOM      5  C   UNL     1      37.016 -22.369 -16.653  0.00  0.00    +0.053 C 
ATOM      6  C   UNL     1      35.786 -22.874 -16.284  0.00  0.00    +0.006 C 
ATOM      7  C   UNL     1      38.199 -22.883 -16.167  0.00  0.00    +0.006 C 
ATOM      8  C   UNL     1      36.922 -24.483 -14.883  0.00  0.00    +0.122 C 
ATOM      9  C   UNL     1      35.740 -23.944 -15.389  0.00  0.00    +0.020 C 
ATOM     10  C   UNL     1      38.153 -23.952 -15.273  0.00  0.00    +0.020 C 
BRANCH   8  11
ATOM     11  S   UNL     1      36.864 -25.822 -13.765  0.00  0.00    +0.057 S 
ATOM     12  O   UNL     1      38.230 -26.216 -13.448  0.00  0.00    -0.153 OA
ATOM     13  O   UNL     1      35.940 -25.487 -12.690  0.00  0.00    -0.153 OA
BRANCH  11  14
ATOM     14  N   UNL     1      36.154 -27.031 -14.741  0.00  0.00    -0.203 NA
ATOM     15  H   UNL     1      36.557 -27.938 -14.506  0.00  0.00    +0.144 HD
ATOM     16  H   UNL     1      36.333 -26.823 -15.724  0.00  0.00    +0.144 HD
ENDBRANCH  11  14
ENDBRANCH   8  11
ENDBRANCH   3   5
BRANCH   2  17
ATOM     17  C   UNL     1      36.624 -20.499 -19.935  0.00  0.00    +0.094 C 
BRANCH  17  18
ATOM     18  C   UNL     1      35.325 -20.533 -20.781  0.00  0.00    +0.042 C 
BRANCH  18  20
ATOM     19  N   UNL     1      34.591 -16.035 -24.057  0.00  0.00    -0.312 N 
ATOM     20  C   UNL     1      35.137 -19.297 -21.598  0.00  0.00    -0.021 C 
ATOM     21  C   UNL     1      34.892 -19.410 -22.971  0.00  0.00    -0.003 C 
ATOM     22  C   UNL     1      35.211 -18.048 -20.986  0.00  0.00    -0.003 C 
ATOM     23  C   UNL     1      34.717 -18.239 -23.736  0.00  0.00    +0.014 C 
ATOM     24  C   UNL     1      34.796 -17.000 -23.096  0.00  0.00    +0.048 C 
ATOM     25  C   UNL     1      35.040 -16.873 -21.724  0.00  0.00    +0.014 C 
ATOM     26  C   UNL     1      34.460 -17.983 -25.112  0.00  0.00    +0.017 C 
ATOM     27  C   UNL     1      34.387 -16.619 -25.277  0.00  0.00    +0.062 C 
ATOM     28  H   UNL     1      34.591 -15.064 -23.888  0.00  0.00    +0.152 HD
ENDBRANCH  18  20
BRANCH  18  29
ATOM     29  C   UNL     1      34.137 -20.835 -19.822  0.00  0.00    +0.006 C 
ATOM     30  C   UNL     1      32.795 -20.381 -20.384  0.00  0.00    +0.000 C 
ENDBRANCH  18  29
ENDBRANCH  17  18
ENDBRANCH   2  17
TORSDOF 7
ENDMDL
MODEL 6
REMARK VINA RESULT:     -10.3      5.633     11.187
REMARK  Name = 5496599
REMARK  7 active torsions:
REMARK  status: ('A' for Active; 'I' for Inactive)
REMARK    1  A    between atoms: N_2  and  C_17
REMARK    2  A    between atoms: C_3  and  C_5
REMARK    3  A    between atoms: C_8  and  S_11
REMARK    4  A    between atoms: S_11  and  N_14
REMARK    5  A    between atoms: C_17  and  C_18
REMARK    6  A    between atoms: C_18  and  C_20
REMARK    7  A    between atoms: C_18  and  C_29
REMARK                            x       y       z     vdW  Elec       q    Type
REMARK                         _______ _______ _______ _____ _____    ______ ____
ROOT
ATOM      1  O   UNL     1      34.912 -17.908 -23.378  0.00  0.00    -0.270 OA
ATOM      2  N   UNL     1      34.440 -16.576 -21.539  0.00  0.00    -0.301 N 
ATOM      3  C   UNL     1      34.655 -17.787 -22.183  0.00  0.00    +0.246 C 
ATOM      4  H   UNL     1      34.240 -16.582 -20.575  0.00  0.00    +0.150 HD
ENDROOT
BRANCH   3   5
ATOM      5  C   UNL     1      34.534 -19.004 -21.339  0.00  0.00    +0.053 C 
ATOM      6  C   UNL     1      33.277 -19.432 -20.966  0.00  0.00    +0.006 C 
ATOM      7  C   UNL     1      35.681 -19.666 -20.956  0.00  0.00    +0.006 C 
ATOM      8  C   UNL     1      34.307 -21.262 -19.771  0.00  0.00    +0.122 C 
ATOM      9  C   UNL     1      33.163 -20.574 -20.173  0.00  0.00    +0.020 C 
ATOM     10  C   UNL     1      35.567 -20.807 -20.163  0.00  0.00    +0.020 C 
BRANCH   8  11
ATOM     11  S   UNL     1      34.164 -22.692 -18.780  0.00  0.00    +0.057 S 
ATOM     12  O   UNL     1      34.142 -23.857 -19.656  0.00  0.00    -0.153 OA
ATOM     13  O   UNL     1      35.147 -22.612 -17.709  0.00  0.00    -0.153 OA
BRANCH  11  14
ATOM     14  N   UNL     1      32.607 -22.473 -18.114  0.00  0.00    -0.203 NA
ATOM     15  H   UNL     1      31.957 -22.200 -18.851  0.00  0.00    +0.144 HD
ATOM     16  H   UNL     1      32.641 -21.741 -17.403  0.00  0.00    +0.144 HD
ENDBRANCH  11  14
ENDBRANCH   8  11
ENDBRANCH   3   5
BRANCH   2  17
ATOM     17  C   UNL     1      34.498 -15.311 -22.226  0.00  0.00    +0.094 C 
BRANCH  17  18
ATOM     18  C   UNL     1      33.085 -14.763 -22.555  0.00  0.00    +0.042 C 
BRANCH  18  20
ATOM     19  N   UNL     1      32.982  -9.317 -23.909  0.00  0.00    -0.312 N 
ATOM     20  C   UNL     1      33.106 -13.326 -22.961  0.00  0.00    -0.021 C 
ATOM     21  C   UNL     1      32.256 -12.417 -22.321  0.00  0.00    -0.003 C 
ATOM     22  C   UNL     1      33.969 -12.907 -23.972  0.00  0.00    -0.003 C 
ATOM     23  C   UNL     1      32.280 -11.062 -22.710  0.00  0.00    +0.014 C 
ATOM     24  C   UNL     1      33.155 -10.671 -23.727  0.00  0.00    +0.048 C 
ATOM     25  C   UNL     1      34.010 -11.569 -24.375  0.00  0.00    +0.014 C 
ATOM     26  C   UNL     1      31.578  -9.898 -22.292  0.00  0.00    +0.017 C 
ATOM     27  C   UNL     1      32.031  -8.841 -23.048  0.00  0.00    +0.062 C 
ATOM     28  H   UNL     1      33.473  -8.770 -24.566  0.00  0.00    +0.152 HD
ENDBRANCH  18  20
BRANCH  18  29
ATOM     29  C   UNL     1      32.162 -15.055 -21.337  0.00  0.00    +0.006 C 
ATOM     30  C   UNL     1      32.765 -14.593 -20.016  0.00  0.00    +0.000 C 
ENDBRANCH  18  29
ENDBRANCH  17  18
ENDBRANCH   2  17
TORSDOF 7
ENDMDL
MODEL 7
REMARK VINA RESULT:     -10.2      1.397      2.032
REMARK  Name = 5496599
REMARK  7 active torsions:
REMARK  status: ('A' for Active; 'I' for Inactive)
REMARK    1  A    between atoms: N_2  and  C_17
REMARK    2  A    between atoms: C_3  and  C_5
REMARK    3  A    between atoms: C_8  and  S_11
REMARK    4  A    between atoms: S_11  and  N_14
REMARK    5  A    between atoms: C_17  and  C_18
REMARK    6  A    between atoms: C_18  and  C_20
REMARK    7  A    between atoms: C_18  and  C_29
REMARK                            x       y       z     vdW  Elec       q    Type
REMARK                         _______ _______ _______ _____ _____    ______ ____
ROOT
ATOM      1  O   UNL     1      32.283 -22.659 -18.370  0.00  0.00    -0.270 OA
ATOM      2  N   UNL     1      34.444 -22.790 -17.539  0.00  0.00    -0.301 N 
ATOM      3  C   UNL     1      33.461 -22.313 -18.396  0.00  0.00    +0.246 C 
ATOM      4  H   UNL     1      35.363 -22.452 -17.638  0.00  0.00    +0.150 HD
ENDROOT
BRANCH   3   5
ATOM      5  C   UNL     1      33.909 -21.336 -19.421  0.00  0.00    +0.053 C 
ATOM      6  C   UNL     1      35.258 -21.227 -19.691  0.00  0.00    +0.006 C 
ATOM      7  C   UNL     1      32.964 -20.569 -20.069  0.00  0.00    +0.006 C 
ATOM      8  C   UNL     1      34.743 -19.520 -21.322  0.00  0.00    +0.122 C 
ATOM      9  C   UNL     1      35.679 -20.308 -20.653  0.00  0.00    +0.020 C 
ATOM     10  C   UNL     1      33.385 -19.651 -21.030  0.00  0.00    +0.020 C 
BRANCH   8  11
ATOM     11  S   UNL     1      35.271 -18.371 -22.527  0.00  0.00    +0.057 S 
ATOM     12  O   UNL     1      34.442 -17.178 -22.417  0.00  0.00    -0.153 OA
ATOM     13  O   UNL     1      36.720 -18.254 -22.452  0.00  0.00    -0.153 OA
BRANCH  11  14
ATOM     14  N   UNL     1      34.861 -19.197 -23.966  0.00  0.00    -0.203 NA
ATOM     15  H   UNL     1      35.321 -18.749 -24.758  0.00  0.00    +0.144 HD
ATOM     16  H   UNL     1      33.850 -19.167 -24.098  0.00  0.00    +0.144 HD
ENDBRANCH  11  14
ENDBRANCH   8  11
ENDBRANCH   3   5
BRANCH   2  17
ATOM     17  C   UNL     1      34.171 -23.760 -16.509  0.00  0.00    +0.094 C 
BRANCH  17  18
ATOM     18  C   UNL     1      34.574 -23.245 -15.103  0.00  0.00    +0.042 C 
BRANCH  18  20
ATOM     19  N   UNL     1      39.104 -25.937 -13.171  0.00  0.00    -0.312 N 
ATOM     20  C   UNL     1      35.743 -23.979 -14.535  0.00  0.00    -0.021 C 
ATOM     21  C   UNL     1      36.953 -23.997 -15.238  0.00  0.00    -0.003 C 
ATOM     22  C   UNL     1      35.617 -24.638 -13.314  0.00  0.00    -0.003 C 
ATOM     23  C   UNL     1      38.053 -24.693 -14.695  0.00  0.00    +0.014 C 
ATOM     24  C   UNL     1      37.897 -25.344 -13.470  0.00  0.00    +0.048 C 
ATOM     25  C   UNL     1      36.694 -25.334 -12.757  0.00  0.00    +0.014 C 
ATOM     26  C   UNL     1      39.392 -24.916 -15.120  0.00  0.00    +0.017 C 
ATOM     27  C   UNL     1      40.013 -25.684 -14.162  0.00  0.00    +0.062 C 
ATOM     28  H   UNL     1      39.286 -26.466 -12.360  0.00  0.00    +0.152 HD
ENDBRANCH  18  20
BRANCH  18  29
ATOM     29  C   UNL     1      33.309 -23.287 -14.198  0.00  0.00    +0.006 C 
ATOM     30  C   UNL     1      32.017 -23.429 -14.994  0.00  0.00    +0.000 C 
ENDBRANCH  18  29
ENDBRANCH  17  18
ENDBRANCH   2  17
TORSDOF 7
ENDMDL
MODEL 8
REMARK VINA RESULT:     -10.2      4.804      7.892
REMARK  Name = 5496599
REMARK  7 active torsions:
REMARK  status: ('A' for Active; 'I' for Inactive)
REMARK    1  A    between atoms: N_2  and  C_17
REMARK    2  A    between atoms: C_3  and  C_5
REMARK    3  A    between atoms: C_8  and  S_11
REMARK    4  A    between atoms: S_11  and  N_14
REMARK    5  A    between atoms: C_17  and  C_18
REMARK    6  A    between atoms: C_18  and  C_20
REMARK    7  A    between atoms: C_18  and  C_29
REMARK                            x       y       z     vdW  Elec       q    Type
REMARK                         _______ _______ _______ _____ _____    ______ ____
ROOT
ATOM      1  O   UNL     1      35.000 -15.603 -24.147  0.00  0.00    -0.270 OA
ATOM      2  N   UNL     1      34.833 -16.384 -21.969  0.00  0.00    -0.301 N 
ATOM      3  C   UNL     1      34.575 -15.489 -23.000  0.00  0.00    +0.246 C 
ATOM      4  H   UNL     1      34.446 -16.207 -21.082  0.00  0.00    +0.150 HD
ENDROOT
BRANCH   3   5
ATOM      5  C   UNL     1      33.742 -14.311 -22.646  0.00  0.00    +0.053 C 
ATOM      6  C   UNL     1      33.690 -13.247 -23.523  0.00  0.00    +0.006 C 
ATOM      7  C   UNL     1      33.049 -14.318 -21.454  0.00  0.00    +0.006 C 
ATOM      8  C   UNL     1      32.197 -12.122 -21.990  0.00  0.00    +0.122 C 
ATOM      9  C   UNL     1      32.908 -12.140 -23.190  0.00  0.00    +0.020 C 
ATOM     10  C   UNL     1      32.268 -13.212 -21.123  0.00  0.00    +0.020 C 
BRANCH   8  11
ATOM     11  S   UNL     1      31.218 -10.737 -21.576  0.00  0.00    +0.057 S 
ATOM     12  O   UNL     1      31.106  -9.885 -22.752  0.00  0.00    -0.153 OA
ATOM     13  O   UNL     1      30.014 -11.206 -20.905  0.00  0.00    -0.153 OA
BRANCH  11  14
ATOM     14  N   UNL     1      32.219  -9.963 -20.428  0.00  0.00    -0.203 NA
ATOM     15  H   UNL     1      33.194 -10.200 -20.610  0.00  0.00    +0.144 HD
ATOM     16  H   UNL     1      31.963 -10.274 -19.490  0.00  0.00    +0.144 HD
ENDBRANCH  11  14
ENDBRANCH   8  11
ENDBRANCH   3   5
BRANCH   2  17
ATOM     17  C   UNL     1      35.644 -17.561 -22.149  0.00  0.00    +0.094 C 
BRANCH  17  18
ATOM     18  C   UNL     1      34.784 -18.839 -22.320  0.00  0.00    +0.042 C 
BRANCH  18  20
ATOM     19  N   UNL     1      35.160 -22.486 -18.070  0.00  0.00    -0.312 N 
ATOM     20  C   UNL     1      34.951 -19.801 -21.191  0.00  0.00    -0.021 C 
ATOM     21  C   UNL     1      33.823 -20.421 -20.641  0.00  0.00    -0.003 C 
ATOM     22  C   UNL     1      36.225 -20.069 -20.695  0.00  0.00    -0.003 C 
ATOM     23  C   UNL     1      33.988 -21.328 -19.574  0.00  0.00    +0.014 C 
ATOM     24  C   UNL     1      35.277 -21.577 -19.098  0.00  0.00    +0.048 C 
ATOM     25  C   UNL     1      36.413 -20.964 -19.638  0.00  0.00    +0.014 C 
ATOM     26  C   UNL     1      33.095 -22.117 -18.796  0.00  0.00    +0.017 C 
ATOM     27  C   UNL     1      33.846 -22.818 -17.880  0.00  0.00    +0.062 C 
ATOM     28  H   UNL     1      35.914 -22.845 -17.547  0.00  0.00    +0.152 HD
ENDBRANCH  18  20
BRANCH  18  29
ATOM     29  C   UNL     1      35.107 -19.450 -23.714  0.00  0.00    +0.006 C 
ATOM     30  C   UNL     1      34.286 -18.827 -24.837  0.00  0.00    +0.000 C 
ENDBRANCH  18  29
ENDBRANCH  17  18
ENDBRANCH   2  17
TORSDOF 7
ENDMDL
MODEL 9
REMARK VINA RESULT:     -10.2      4.842     10.676
REMARK  Name = 5496599
REMARK  7 active torsions:
REMARK  status: ('A' for Active; 'I' for Inactive)
REMARK    1  A    between atoms: N_2  and  C_17
REMARK    2  A    between atoms: C_3  and  C_5
REMARK    3  A    between atoms: C_8  and  S_11
REMARK    4  A    between atoms: S_11  and  N_14
REMARK    5  A    between atoms: C_17  and  C_18
REMARK    6  A    between atoms: C_18  and  C_20
REMARK    7  A    between atoms: C_18  and  C_29
REMARK                            x       y       z     vdW  Elec       q    Type
REMARK                         _______ _______ _______ _____ _____    ______ ____
ROOT
ATOM      1  O   UNL     1      34.562 -19.015 -22.988  0.00  0.00    -0.270 OA
ATOM      2  N   UNL     1      34.760 -17.530 -21.217  0.00  0.00    -0.301 N 
ATOM      3  C   UNL     1      34.576 -18.786 -21.781  0.00  0.00    +0.246 C 
ATOM      4  H   UNL     1      34.756 -17.448 -20.236  0.00  0.00    +0.150 HD
ENDROOT
BRANCH   3   5
ATOM      5  C   UNL     1      34.361 -19.904 -20.827  0.00  0.00    +0.053 C 
ATOM      6  C   UNL     1      33.077 -20.180 -20.406  0.00  0.00    +0.006 C 
ATOM      7  C   UNL     1      35.451 -20.629 -20.393  0.00  0.00    +0.006 C 
ATOM      8  C   UNL     1      33.960 -21.979 -19.054  0.00  0.00    +0.122 C 
ATOM      9  C   UNL     1      32.875 -21.230 -19.509  0.00  0.00    +0.020 C 
ATOM     10  C   UNL     1      35.249 -21.677 -19.497  0.00  0.00    +0.020 C 
BRANCH   8  11
ATOM     11  S   UNL     1      33.707 -23.293 -17.933  0.00  0.00    +0.057 S 
ATOM     12  O   UNL     1      33.593 -24.530 -18.694  0.00  0.00    -0.153 OA
ATOM     13  O   UNL     1      34.693 -23.188 -16.867  0.00  0.00    -0.153 OA
BRANCH  11  14
ATOM     14  N   UNL     1      32.171 -22.891 -17.302  0.00  0.00    -0.203 NA
ATOM     15  H   UNL     1      31.471 -23.533 -17.675  0.00  0.00    +0.144 HD
ATOM     16  H   UNL     1      31.933 -21.935 -17.569  0.00  0.00    +0.144 HD
ENDBRANCH  11  14
ENDBRANCH   8  11
ENDBRANCH   3   5
BRANCH   2  17
ATOM     17  C   UNL     1      34.955 -16.344 -22.010  0.00  0.00    +0.094 C 
BRANCH  17  18
ATOM     18  C   UNL     1      33.705 -15.428 -22.005  0.00  0.00    +0.042 C 
BRANCH  18  20
ATOM     19  N   UNL     1      33.500 -12.165 -26.568  0.00  0.00    -0.312 N 
ATOM     20  C   UNL     1      33.662 -14.506 -23.179  0.00  0.00    -0.021 C 
ATOM     21  C   UNL     1      33.420 -15.027 -24.455  0.00  0.00    -0.003 C 
ATOM     22  C   UNL     1      33.863 -13.140 -22.992  0.00  0.00    -0.003 C 
ATOM     23  C   UNL     1      33.382 -14.152 -25.560  0.00  0.00    +0.014 C 
ATOM     24  C   UNL     1      33.588 -12.788 -25.342  0.00  0.00    +0.048 C 
ATOM     25  C   UNL     1      33.830 -12.253 -24.072  0.00  0.00    +0.014 C 
ATOM     26  C   UNL     1      33.169 -14.325 -26.955  0.00  0.00    +0.017 C 
ATOM     27  C   UNL     1      33.247 -13.086 -27.548  0.00  0.00    +0.062 C 
ATOM     28  H   UNL     1      33.604 -11.197 -26.716  0.00  0.00    +0.152 HD
ENDBRANCH  18  20
BRANCH  18  29
ATOM     29  C   UNL     1      33.653 -14.695 -20.633  0.00  0.00    +0.006 C 
ATOM     30  C   UNL     1      32.319 -14.871 -19.919  0.00  0.00    +0.000 C 
ENDBRANCH  18  29
ENDBRANCH  17  18
ENDBRANCH   2  17
TORSDOF 7
ENDMDL
