MODEL 1
REMARK VINA RESULT:      -8.2      0.000      0.000
REMARK  Name = 1318
REMARK  0 active torsions:
REMARK  status: ('A' for Active; 'I' for Inactive)
REMARK                            x       y       z     vdW  Elec       q    Type
REMARK                         _______ _______ _______ _____ _____    ______ ____
ROOT
ATOM      1  N   UNL     1      33.552 -15.392 -26.329  0.00  0.00    -0.242 NA
ATOM      2  N   UNL     1      34.246 -17.838 -25.321  0.00  0.00    -0.242 NA
ATOM      3  C   UNL     1      33.905 -15.508 -25.033  0.00  0.00    +0.099 C 
ATOM      4  C   UNL     1      34.259 -16.755 -24.519  0.00  0.00    +0.099 C 
ATOM      5  C   UNL     1      33.922 -14.377 -24.186  0.00  0.00    +0.019 C 
ATOM      6  C   UNL     1      34.628 -16.867 -23.160  0.00  0.00    +0.019 C 
ATOM      7  C   UNL     1      34.289 -14.500 -22.843  0.00  0.00    +0.002 C 
ATOM      8  C   UNL     1      34.641 -15.741 -22.332  0.00  0.00    +0.002 C 
ATOM      9  C   UNL     1      33.563 -13.132 -24.721  0.00  0.00    +0.003 C 
ATOM     10  C   UNL     1      34.981 -18.129 -22.661  0.00  0.00    +0.003 C 
ATOM     11  C   UNL     1      33.201 -13.022 -26.054  0.00  0.00    +0.021 C 
ATOM     12  C   UNL     1      34.964 -19.238 -23.492  0.00  0.00    +0.021 C 
ATOM     13  C   UNL     1      33.212 -14.175 -26.810  0.00  0.00    +0.099 C 
ATOM     14  C   UNL     1      34.592 -19.040 -24.805  0.00  0.00    +0.099 C 
ENDROOT
TORSDOF 0
ENDMDL
MODEL 2
REMARK VINA RESULT:      -8.2      0.037      4.280
REMARK  Name = 1318
REMARK  0 active torsions:
REMARK  status: ('A' for Active; 'I' for Inactive)
REMARK                            x       y       z     vdW  Elec       q    Type
REMARK                         _______ _______ _______ _____ _____    ______ ____
ROOT
ATOM      1  N   UNL     1      34.217 -17.851 -25.278  0.00  0.00    -0.242 NA
ATOM      2  N   UNL     1      33.529 -15.413 -26.310  0.00  0.00    -0.242 NA
ATOM      3  C   UNL     1      34.243 -16.757 -24.490  0.00  0.00    +0.099 C 
ATOM      4  C   UNL     1      33.892 -15.514 -25.016  0.00  0.00    +0.099 C 
ATOM      5  C   UNL     1      34.622 -16.855 -23.132  0.00  0.00    +0.019 C 
ATOM      6  C   UNL     1      33.922 -14.373 -24.183  0.00  0.00    +0.019 C 
ATOM      7  C   UNL     1      34.648 -15.719 -22.318  0.00  0.00    +0.002 C 
ATOM      8  C   UNL     1      34.299 -14.482 -22.842  0.00  0.00    +0.002 C 
ATOM      9  C   UNL     1      34.972 -18.112 -22.621  0.00  0.00    +0.003 C 
ATOM     10  C   UNL     1      33.566 -13.132 -24.730  0.00  0.00    +0.003 C 
ATOM     11  C   UNL     1      34.942 -19.231 -23.438  0.00  0.00    +0.021 C 
ATOM     12  C   UNL     1      33.194 -13.037 -26.062  0.00  0.00    +0.021 C 
ATOM     13  C   UNL     1      34.560 -19.047 -24.750  0.00  0.00    +0.099 C 
ATOM     14  C   UNL     1      33.192 -14.199 -26.803  0.00  0.00    +0.099 C 
ENDROOT
TORSDOF 0
ENDMDL
MODEL 3
REMARK VINA RESULT:      -7.9      1.795      5.054
REMARK  Name = 1318
REMARK  0 active torsions:
REMARK  status: ('A' for Active; 'I' for Inactive)
REMARK                            x       y       z     vdW  Elec       q    Type
REMARK                         _______ _______ _______ _____ _____    ______ ____
ROOT
ATOM      1  N   UNL     1      35.027 -16.760 -21.553  0.00  0.00    -0.242 NA
ATOM      2  N   UNL     1      34.149 -14.407 -22.635  0.00  0.00    -0.242 NA
ATOM      3  C   UNL     1      34.669 -16.712 -22.853  0.00  0.00    +0.099 C 
ATOM      4  C   UNL     1      34.222 -15.512 -23.404  0.00  0.00    +0.099 C 
ATOM      5  C   UNL     1      34.743 -17.866 -23.665  0.00  0.00    +0.019 C 
ATOM      6  C   UNL     1      33.849 -15.470 -24.766  0.00  0.00    +0.019 C 
ATOM      7  C   UNL     1      34.371 -17.812 -25.011  0.00  0.00    +0.002 C 
ATOM      8  C   UNL     1      33.925 -16.618 -25.560  0.00  0.00    +0.002 C 
ATOM      9  C   UNL     1      35.195 -19.063 -23.092  0.00  0.00    +0.003 C 
ATOM     10  C   UNL     1      33.401 -14.255 -25.303  0.00  0.00    +0.003 C 
ATOM     11  C   UNL     1      35.561 -19.103 -21.756  0.00  0.00    +0.021 C 
ATOM     12  C   UNL     1      33.329 -13.124 -24.506  0.00  0.00    +0.021 C 
ATOM     13  C   UNL     1      35.459 -17.933 -21.036  0.00  0.00    +0.099 C 
ATOM     14  C   UNL     1      33.712 -13.252 -23.188  0.00  0.00    +0.099 C 
ENDROOT
TORSDOF 0
ENDMDL
MODEL 4
REMARK VINA RESULT:      -7.9      1.791      2.691
REMARK  Name = 1318
REMARK  0 active torsions:
REMARK  status: ('A' for Active; 'I' for Inactive)
REMARK                            x       y       z     vdW  Elec       q    Type
REMARK                         _______ _______ _______ _____ _____    ______ ____
ROOT
ATOM      1  N   UNL     1      34.143 -14.412 -22.686  0.00  0.00    -0.242 NA
ATOM      2  N   UNL     1      35.026 -16.749 -21.573  0.00  0.00    -0.242 NA
ATOM      3  C   UNL     1      34.219 -15.528 -23.440  0.00  0.00    +0.099 C 
ATOM      4  C   UNL     1      34.669 -16.719 -22.873  0.00  0.00    +0.099 C 
ATOM      5  C   UNL     1      33.847 -15.504 -24.803  0.00  0.00    +0.019 C 
ATOM      6  C   UNL     1      34.746 -17.883 -23.670  0.00  0.00    +0.019 C 
ATOM      7  C   UNL     1      33.927 -16.662 -25.582  0.00  0.00    +0.002 C 
ATOM      8  C   UNL     1      34.376 -17.847 -25.017  0.00  0.00    +0.002 C 
ATOM      9  C   UNL     1      33.397 -14.297 -25.356  0.00  0.00    +0.003 C 
ATOM     10  C   UNL     1      35.201 -19.071 -23.081  0.00  0.00    +0.003 C 
ATOM     11  C   UNL     1      33.322 -13.155 -24.573  0.00  0.00    +0.021 C 
ATOM     12  C   UNL     1      35.566 -19.094 -21.745  0.00  0.00    +0.021 C 
ATOM     13  C   UNL     1      33.704 -13.266 -23.254  0.00  0.00    +0.099 C 
ATOM     14  C   UNL     1      35.461 -17.914 -21.040  0.00  0.00    +0.099 C 
ENDROOT
TORSDOF 0
ENDMDL
MODEL 5
REMARK VINA RESULT:      -7.8      2.240      3.263
REMARK  Name = 1318
REMARK  0 active torsions:
REMARK  status: ('A' for Active; 'I' for Inactive)
REMARK                            x       y       z     vdW  Elec       q    Type
REMARK                         _______ _______ _______ _____ _____    ______ ____
ROOT
ATOM      1  N   UNL     1      32.312 -13.309 -23.035  0.00  0.00    -0.242 NA
ATOM      2  N   UNL     1      33.498 -15.221 -24.591  0.00  0.00    -0.242 NA
ATOM      3  C   UNL     1      33.036 -14.290 -22.458  0.00  0.00    +0.099 C 
ATOM      4  C   UNL     1      33.640 -15.264 -23.251  0.00  0.00    +0.099 C 
ATOM      5  C   UNL     1      33.190 -14.342 -21.055  0.00  0.00    +0.019 C 
ATOM      6  C   UNL     1      34.397 -16.288 -22.638  0.00  0.00    +0.019 C 
ATOM      7  C   UNL     1      33.941 -15.360 -20.459  0.00  0.00    +0.002 C 
ATOM      8  C   UNL     1      34.543 -16.330 -21.249  0.00  0.00    +0.002 C 
ATOM      9  C   UNL     1      32.575 -13.354 -20.274  0.00  0.00    +0.003 C 
ATOM     10  C   UNL     1      34.997 -17.259 -23.452  0.00  0.00    +0.003 C 
ATOM     11  C   UNL     1      31.833 -12.350 -20.875  0.00  0.00    +0.021 C 
ATOM     12  C   UNL     1      34.846 -17.207 -24.829  0.00  0.00    +0.021 C 
ATOM     13  C   UNL     1      31.733 -12.373 -22.250  0.00  0.00    +0.099 C 
ATOM     14  C   UNL     1      34.092 -16.175 -25.344  0.00  0.00    +0.099 C 
ENDROOT
TORSDOF 0
ENDMDL
MODEL 6
REMARK VINA RESULT:      -7.8      2.232      4.494
REMARK  Name = 1318
REMARK  0 active torsions:
REMARK  status: ('A' for Active; 'I' for Inactive)
REMARK                            x       y       z     vdW  Elec       q    Type
REMARK                         _______ _______ _______ _____ _____    ______ ____
ROOT
ATOM      1  N   UNL     1      33.466 -15.144 -24.660  0.00  0.00    -0.242 NA
ATOM      2  N   UNL     1      32.277 -13.240 -23.097  0.00  0.00    -0.242 NA
ATOM      3  C   UNL     1      33.603 -15.195 -23.319  0.00  0.00    +0.099 C 
ATOM      4  C   UNL     1      32.997 -14.224 -22.523  0.00  0.00    +0.099 C 
ATOM      5  C   UNL     1      34.357 -16.223 -22.710  0.00  0.00    +0.019 C 
ATOM      6  C   UNL     1      33.146 -14.284 -21.119  0.00  0.00    +0.019 C 
ATOM      7  C   UNL     1      34.498 -16.272 -21.320  0.00  0.00    +0.002 C 
ATOM      8  C   UNL     1      33.894 -15.306 -20.527  0.00  0.00    +0.002 C 
ATOM      9  C   UNL     1      34.959 -17.190 -23.527  0.00  0.00    +0.003 C 
ATOM     10  C   UNL     1      32.530 -13.300 -20.335  0.00  0.00    +0.003 C 
ATOM     11  C   UNL     1      34.812 -17.130 -24.904  0.00  0.00    +0.021 C 
ATOM     12  C   UNL     1      31.791 -12.291 -20.933  0.00  0.00    +0.021 C 
ATOM     13  C   UNL     1      34.061 -16.094 -25.416  0.00  0.00    +0.099 C 
ATOM     14  C   UNL     1      31.696 -12.307 -22.308  0.00  0.00    +0.099 C 
ENDROOT
TORSDOF 0
ENDMDL
MODEL 7
REMARK VINA RESULT:      -7.8      5.874      7.966
REMARK  Name = 1318
REMARK  0 active torsions:
REMARK  status: ('A' for Active; 'I' for Inactive)
REMARK                            x       y       z     vdW  Elec       q    Type
REMARK                         _______ _______ _______ _____ _____    ______ ____
ROOT
ATOM      1  N   UNL     1      32.781 -20.670 -20.352  0.00  0.00    -0.242 NA
ATOM      2  N   UNL     1      32.494 -22.324 -18.193  0.00  0.00    -0.242 NA
ATOM      3  C   UNL     1      33.871 -21.089 -19.678  0.00  0.00    +0.099 C 
ATOM      4  C   UNL     1      33.725 -21.932 -18.577  0.00  0.00    +0.099 C 
ATOM      5  C   UNL     1      35.165 -20.682 -20.076  0.00  0.00    +0.019 C 
ATOM      6  C   UNL     1      34.873 -22.365 -17.877  0.00  0.00    +0.019 C 
ATOM      7  C   UNL     1      36.293 -21.118 -19.375  0.00  0.00    +0.002 C 
ATOM      8  C   UNL     1      36.148 -21.957 -18.279  0.00  0.00    +0.002 C 
ATOM      9  C   UNL     1      35.292 -19.835 -21.185  0.00  0.00    +0.003 C 
ATOM     10  C   UNL     1      34.706 -23.213 -16.772  0.00  0.00    +0.003 C 
ATOM     11  C   UNL     1      34.166 -19.410 -21.872  0.00  0.00    +0.021 C 
ATOM     12  C   UNL     1      33.437 -23.611 -16.383  0.00  0.00    +0.021 C 
ATOM     13  C   UNL     1      32.942 -19.853 -21.417  0.00  0.00    +0.099 C 
ATOM     14  C   UNL     1      32.372 -23.142 -17.122  0.00  0.00    +0.099 C 
ENDROOT
TORSDOF 0
ENDMDL
MODEL 8
REMARK VINA RESULT:      -7.8      5.892      8.866
REMARK  Name = 1318
REMARK  0 active torsions:
REMARK  status: ('A' for Active; 'I' for Inactive)
REMARK                            x       y       z     vdW  Elec       q    Type
REMARK                         _______ _______ _______ _____ _____    ______ ____
ROOT
ATOM      1  N   UNL     1      32.537 -22.376 -18.176  0.00  0.00    -0.242 NA
ATOM      2  N   UNL     1      32.791 -20.717 -20.335  0.00  0.00    -0.242 NA
ATOM      3  C   UNL     1      33.760 -21.959 -18.561  0.00  0.00    +0.099 C 
ATOM      4  C   UNL     1      33.890 -21.114 -19.662  0.00  0.00    +0.099 C 
ATOM      5  C   UNL     1      34.916 -22.370 -17.861  0.00  0.00    +0.019 C 
ATOM      6  C   UNL     1      35.175 -20.682 -20.059  0.00  0.00    +0.019 C 
ATOM      7  C   UNL     1      36.183 -21.937 -18.263  0.00  0.00    +0.002 C 
ATOM      8  C   UNL     1      36.312 -21.095 -19.359  0.00  0.00    +0.002 C 
ATOM      9  C   UNL     1      34.766 -23.221 -16.757  0.00  0.00    +0.003 C 
ATOM     10  C   UNL     1      35.285 -19.831 -21.169  0.00  0.00    +0.003 C 
ATOM     11  C   UNL     1      33.505 -23.644 -16.368  0.00  0.00    +0.021 C 
ATOM     12  C   UNL     1      34.151 -19.429 -21.855  0.00  0.00    +0.021 C 
ATOM     13  C   UNL     1      32.431 -23.196 -17.106  0.00  0.00    +0.099 C 
ATOM     14  C   UNL     1      32.936 -19.896 -21.401  0.00  0.00    +0.099 C 
ENDROOT
TORSDOF 0
ENDMDL
MODEL 9
REMARK VINA RESULT:      -7.6      2.132      3.021
REMARK  Name = 1318
REMARK  0 active torsions:
REMARK  status: ('A' for Active; 'I' for Inactive)
REMARK                            x       y       z     vdW  Elec       q    Type
REMARK                         _______ _______ _______ _____ _____    ______ ____
ROOT
ATOM      1  N   UNL     1      33.317 -14.719 -21.435  0.00  0.00    -0.242 NA
ATOM      2  N   UNL     1      34.719 -17.052 -21.167  0.00  0.00    -0.242 NA
ATOM      3  C   UNL     1      33.725 -15.386 -22.534  0.00  0.00    +0.099 C 
ATOM      4  C   UNL     1      34.440 -16.575 -22.397  0.00  0.00    +0.099 C 
ATOM      5  C   UNL     1      33.437 -14.894 -23.826  0.00  0.00    +0.019 C 
ATOM      6  C   UNL     1      34.865 -17.268 -23.553  0.00  0.00    +0.019 C 
ATOM      7  C   UNL     1      33.862 -15.587 -24.963  0.00  0.00    +0.002 C 
ATOM      8  C   UNL     1      34.574 -16.771 -24.826  0.00  0.00    +0.002 C 
ATOM      9  C   UNL     1      32.717 -13.696 -23.944  0.00  0.00    +0.003 C 
ATOM     10  C   UNL     1      35.582 -18.462 -23.395  0.00  0.00    +0.003 C 
ATOM     11  C   UNL     1      32.301 -13.017 -22.809  0.00  0.00    +0.021 C 
ATOM     12  C   UNL     1      35.865 -18.945 -22.127  0.00  0.00    +0.021 C 
ATOM     13  C   UNL     1      32.624 -13.568 -21.588  0.00  0.00    +0.099 C 
ATOM     14  C   UNL     1      35.414 -18.207 -21.054  0.00  0.00    +0.099 C 
ENDROOT
TORSDOF 0
ENDMDL
