MODEL 1
REMARK VINA RESULT:      -7.4      0.000      0.000
REMARK  Name = 62709
REMARK  8 active torsions:
REMARK  status: ('A' for Active; 'I' for Inactive)
REMARK    1  A    between atoms: C_1  and  C_2
REMARK    2  A    between atoms: C_1  and  C_8
REMARK    3  A    between atoms: C_1  and  C_14
REMARK    4  A    between atoms: C_1  and  C_21
REMARK    5  A    between atoms: C_14  and  C_15
REMARK    6  A    between atoms: C_15  and  N_17
REMARK    7  A    between atoms: C_21  and  O_22
REMARK    8  A    between atoms: C_21  and  C_24
REMARK                            x       y       z     vdW  Elec       q    Type
REMARK                         _______ _______ _______ _____ _____    ______ ____
ROOT
ATOM      1  C   UNL     1      35.770 -24.390 -14.732  0.00  0.00    +0.060 C 
ENDROOT
BRANCH   1   2
ATOM      2  C   UNL     1      36.069 -24.013 -13.247  0.00  0.00    -0.017 C 
ATOM      3  C   UNL     1      35.334 -24.632 -12.283  0.00  0.00    -0.004 C 
ATOM      4  C   UNL     1      37.044 -23.092 -13.017  0.00  0.00    -0.004 C 
ATOM      5  C   UNL     1      35.601 -24.297 -10.956  0.00  0.00    -0.000 C 
ATOM      6  C   UNL     1      37.310 -22.755 -11.689  0.00  0.00    -0.000 C 
ATOM      7  C   UNL     1      36.590 -23.358 -10.659  0.00  0.00    -0.000 C 
ENDBRANCH   1   2
BRANCH   1   8
ATOM      8  C   UNL     1      36.212 -23.278 -15.732  0.00  0.00    -0.017 C 
ATOM      9  C   UNL     1      35.391 -23.018 -16.788  0.00  0.00    -0.004 C 
ATOM     10  C   UNL     1      37.389 -22.639 -15.484  0.00  0.00    -0.004 C 
ATOM     11  C   UNL     1      35.786 -22.025 -17.683  0.00  0.00    -0.000 C 
ATOM     12  C   UNL     1      37.785 -21.645 -16.379  0.00  0.00    -0.000 C 
ATOM     13  C   UNL     1      36.983 -21.337 -17.478  0.00  0.00    -0.000 C 
ENDBRANCH   1   8
BRANCH   1  14
ATOM     14  C   UNL     1      34.225 -24.739 -14.811  0.00  0.00    -0.010 C 
BRANCH  14  15
ATOM     15  C   UNL     1      33.197 -23.577 -14.778  0.00  0.00    -0.058 C 
ATOM     16  C   UNL     1      32.454 -23.488 -16.115  0.00  0.00    -0.023 C 
BRANCH  15  17
ATOM     17  N   UNL     1      32.208 -23.764 -13.716  0.00  0.00    +0.385 N 
ATOM     18  C   UNL     1      31.790 -25.164 -13.650  0.00  0.00    -0.101 C 
ATOM     19  C   UNL     1      31.052 -22.896 -13.936  0.00  0.00    -0.101 C 
ATOM     20  H   UNL     1      32.635 -23.513 -12.825  0.00  0.00    -0.080 HD
ENDBRANCH  15  17
ENDBRANCH  14  15
ENDBRANCH   1  14
BRANCH   1  21
ATOM     21  C   UNL     1      36.542 -25.728 -15.154  0.00  0.00    +0.118 C 
BRANCH  21  22
ATOM     22  O   UNL     1      35.630 -26.820 -15.315  0.00  0.00    -0.384 OA
ATOM     23  H   UNL     1      34.754 -26.478 -15.554  0.00  0.00    +0.210 HD
ENDBRANCH  21  22
BRANCH  21  24
ATOM     24  C   UNL     1      37.690 -26.177 -14.223  0.00  0.00    +0.030 C 
ATOM     25  C   UNL     1      39.055 -25.745 -14.750  0.00  0.00    +0.003 C 
ENDBRANCH  21  24
ENDBRANCH   1  21
TORSDOF 8
ENDMDL
MODEL 2
REMARK VINA RESULT:      -7.2      1.570      4.643
REMARK  Name = 62709
REMARK  8 active torsions:
REMARK  status: ('A' for Active; 'I' for Inactive)
REMARK    1  A    between atoms: C_1  and  C_2
REMARK    2  A    between atoms: C_1  and  C_8
REMARK    3  A    between atoms: C_1  and  C_14
REMARK    4  A    between atoms: C_1  and  C_21
REMARK    5  A    between atoms: C_14  and  C_15
REMARK    6  A    between atoms: C_15  and  N_17
REMARK    7  A    between atoms: C_21  and  O_22
REMARK    8  A    between atoms: C_21  and  C_24
REMARK                            x       y       z     vdW  Elec       q    Type
REMARK                         _______ _______ _______ _____ _____    ______ ____
ROOT
ATOM      1  C   UNL     1      34.976 -23.818 -14.610  0.00  0.00    +0.060 C 
ENDROOT
BRANCH   1   2
ATOM      2  C   UNL     1      33.423 -23.910 -14.479  0.00  0.00    -0.017 C 
ATOM      3  C   UNL     1      32.910 -25.014 -13.872  0.00  0.00    -0.004 C 
ATOM      4  C   UNL     1      32.689 -22.881 -14.982  0.00  0.00    -0.004 C 
ATOM      5  C   UNL     1      31.523 -25.097 -13.754  0.00  0.00    -0.000 C 
ATOM      6  C   UNL     1      31.301 -22.963 -14.865  0.00  0.00    -0.000 C 
ATOM      7  C   UNL     1      30.718 -24.071 -14.251  0.00  0.00    -0.000 C 
ENDBRANCH   1   2
BRANCH   1   8
ATOM      8  C   UNL     1      35.687 -23.699 -13.227  0.00  0.00    -0.017 C 
ATOM      9  C   UNL     1      35.121 -24.347 -12.170  0.00  0.00    -0.004 C 
ATOM     10  C   UNL     1      36.826 -22.955 -13.166  0.00  0.00    -0.004 C 
ATOM     11  C   UNL     1      35.756 -24.240 -10.933  0.00  0.00    -0.000 C 
ATOM     12  C   UNL     1      37.462 -22.849 -11.928  0.00  0.00    -0.000 C 
ATOM     13  C   UNL     1      36.927 -23.491 -10.813  0.00  0.00    -0.000 C 
ENDBRANCH   1   8
BRANCH   1  14
ATOM     14  C   UNL     1      35.279 -22.606 -15.588  0.00  0.00    -0.010 C 
BRANCH  14  15
ATOM     15  C   UNL     1      35.568 -22.910 -17.081  0.00  0.00    -0.058 C 
ATOM     16  C   UNL     1      34.386 -22.470 -17.950  0.00  0.00    -0.023 C 
BRANCH  15  17
ATOM     17  N   UNL     1      36.766 -22.211 -17.550  0.00  0.00    +0.385 N 
ATOM     18  C   UNL     1      37.334 -21.397 -16.475  0.00  0.00    -0.101 C 
ATOM     19  C   UNL     1      36.450 -21.378 -18.709  0.00  0.00    -0.101 C 
ATOM     20  H   UNL     1      37.459 -22.904 -17.830  0.00  0.00    -0.080 HD
ENDBRANCH  15  17
ENDBRANCH  14  15
ENDBRANCH   1  14
BRANCH   1  21
ATOM     21  C   UNL     1      35.573 -25.119 -15.329  0.00  0.00    +0.118 C 
BRANCH  21  22
ATOM     22  O   UNL     1      34.826 -26.289 -14.981  0.00  0.00    -0.384 OA
ATOM     23  H   UNL     1      33.897 -26.166 -15.229  0.00  0.00    +0.210 HD
ENDBRANCH  21  22
BRANCH  21  24
ATOM     24  C   UNL     1      37.073 -25.402 -15.090  0.00  0.00    +0.030 C 
ATOM     25  C   UNL     1      37.297 -26.742 -14.394  0.00  0.00    +0.003 C 
ENDBRANCH  21  24
ENDBRANCH   1  21
TORSDOF 8
ENDMDL
MODEL 3
REMARK VINA RESULT:      -6.9      1.907      4.401
REMARK  Name = 62709
REMARK  8 active torsions:
REMARK  status: ('A' for Active; 'I' for Inactive)
REMARK    1  A    between atoms: C_1  and  C_2
REMARK    2  A    between atoms: C_1  and  C_8
REMARK    3  A    between atoms: C_1  and  C_14
REMARK    4  A    between atoms: C_1  and  C_21
REMARK    5  A    between atoms: C_14  and  C_15
REMARK    6  A    between atoms: C_15  and  N_17
REMARK    7  A    between atoms: C_21  and  O_22
REMARK    8  A    between atoms: C_21  and  C_24
REMARK                            x       y       z     vdW  Elec       q    Type
REMARK                         _______ _______ _______ _____ _____    ______ ____
ROOT
ATOM      1  C   UNL     1      35.062 -23.741 -14.891  0.00  0.00    +0.060 C 
ENDROOT
BRANCH   1   2
ATOM      2  C   UNL     1      33.555 -23.815 -14.492  0.00  0.00    -0.017 C 
ATOM      3  C   UNL     1      33.086 -25.006 -14.029  0.00  0.00    -0.004 C 
ATOM      4  C   UNL     1      32.812 -22.683 -14.634  0.00  0.00    -0.004 C 
ATOM      5  C   UNL     1      31.740 -25.073 -13.671  0.00  0.00    -0.000 C 
ATOM      6  C   UNL     1      31.465 -22.750 -14.277  0.00  0.00    -0.000 C 
ATOM      7  C   UNL     1      30.929 -23.944 -13.796  0.00  0.00    -0.000 C 
ENDBRANCH   1   2
BRANCH   1   8
ATOM      8  C   UNL     1      35.283 -23.044 -16.269  0.00  0.00    -0.017 C 
ATOM      9  C   UNL     1      34.268 -23.108 -17.176  0.00  0.00    -0.004 C 
ATOM     10  C   UNL     1      36.475 -22.419 -16.475  0.00  0.00    -0.004 C 
ATOM     11  C   UNL     1      34.465 -22.486 -18.409  0.00  0.00    -0.000 C 
ATOM     12  C   UNL     1      36.672 -21.796 -17.708  0.00  0.00    -0.000 C 
ATOM     13  C   UNL     1      35.668 -21.829 -18.674  0.00  0.00    -0.000 C 
ENDBRANCH   1   8
BRANCH   1  14
ATOM     14  C   UNL     1      35.622 -25.224 -14.831  0.00  0.00    -0.010 C 
BRANCH  14  15
ATOM     15  C   UNL     1      37.047 -25.459 -14.265  0.00  0.00    -0.058 C 
ATOM     16  C   UNL     1      37.008 -26.506 -13.148  0.00  0.00    -0.023 C 
BRANCH  15  17
ATOM     17  N   UNL     1      37.967 -25.929 -15.302  0.00  0.00    +0.385 N 
ATOM     18  C   UNL     1      37.608 -27.282 -15.726  0.00  0.00    -0.101 C 
ATOM     19  C   UNL     1      39.345 -25.894 -14.815  0.00  0.00    -0.101 C 
ATOM     20  H   UNL     1      37.894 -25.309 -16.108  0.00  0.00    -0.080 HD
ENDBRANCH  15  17
ENDBRANCH  14  15
ENDBRANCH   1  14
BRANCH   1  21
ATOM     21  C   UNL     1      35.906 -22.912 -13.811  0.00  0.00    +0.118 C 
BRANCH  21  22
ATOM     22  O   UNL     1      37.305 -22.950 -14.111  0.00  0.00    -0.384 OA
ATOM     23  H   UNL     1      37.443 -22.723 -15.043  0.00  0.00    +0.210 HD
ENDBRANCH  21  22
BRANCH  21  24
ATOM     24  C   UNL     1      35.706 -23.317 -12.333  0.00  0.00    +0.030 C 
ATOM     25  C   UNL     1      36.958 -23.063 -11.498  0.00  0.00    +0.003 C 
ENDBRANCH  21  24
ENDBRANCH   1  21
TORSDOF 8
ENDMDL
MODEL 4
REMARK VINA RESULT:      -6.8     15.207     17.890
REMARK  Name = 62709
REMARK  8 active torsions:
REMARK  status: ('A' for Active; 'I' for Inactive)
REMARK    1  A    between atoms: C_1  and  C_2
REMARK    2  A    between atoms: C_1  and  C_8
REMARK    3  A    between atoms: C_1  and  C_14
REMARK    4  A    between atoms: C_1  and  C_21
REMARK    5  A    between atoms: C_14  and  C_15
REMARK    6  A    between atoms: C_15  and  N_17
REMARK    7  A    between atoms: C_21  and  O_22
REMARK    8  A    between atoms: C_21  and  C_24
REMARK                            x       y       z     vdW  Elec       q    Type
REMARK                         _______ _______ _______ _____ _____    ______ ____
ROOT
ATOM      1  C   UNL     1      32.602  -8.798 -22.811  0.00  0.00    +0.060 C 
ENDROOT
BRANCH   1   2
ATOM      2  C   UNL     1      32.029  -9.524 -21.553  0.00  0.00    -0.017 C 
ATOM      3  C   UNL     1      31.145 -10.538 -21.763  0.00  0.00    -0.004 C 
ATOM      4  C   UNL     1      32.452  -9.094 -20.333  0.00  0.00    -0.004 C 
ATOM      5  C   UNL     1      30.633 -11.188 -20.640  0.00  0.00    -0.000 C 
ATOM      6  C   UNL     1      31.939  -9.743 -19.209  0.00  0.00    -0.000 C 
ATOM      7  C   UNL     1      31.030 -10.790 -19.363  0.00  0.00    -0.000 C 
ENDBRANCH   1   2
BRANCH   1   8
ATOM      8  C   UNL     1      31.898  -7.434 -23.086  0.00  0.00    -0.017 C 
ATOM      9  C   UNL     1      31.450  -7.201 -24.352  0.00  0.00    -0.004 C 
ATOM     10  C   UNL     1      31.777  -6.565 -22.044  0.00  0.00    -0.004 C 
ATOM     11  C   UNL     1      30.822  -5.981 -24.600  0.00  0.00    -0.000 C 
ATOM     12  C   UNL     1      31.148  -5.344 -22.291  0.00  0.00    -0.000 C 
ATOM     13  C   UNL     1      30.670  -5.052 -23.569  0.00  0.00    -0.000 C 
ENDBRANCH   1   8
BRANCH   1  14
ATOM     14  C   UNL     1      32.495  -9.824 -24.016  0.00  0.00    -0.010 C 
BRANCH  14  15
ATOM     15  C   UNL     1      33.664 -10.816 -24.253  0.00  0.00    -0.058 C 
ATOM     16  C   UNL     1      33.349 -12.170 -23.611  0.00  0.00    -0.023 C 
BRANCH  15  17
ATOM     17  N   UNL     1      33.904 -11.031 -25.682  0.00  0.00    +0.385 N 
ATOM     18  C   UNL     1      33.597 -12.414 -26.047  0.00  0.00    -0.101 C 
ATOM     19  C   UNL     1      35.289 -10.709 -26.020  0.00  0.00    -0.101 C 
ATOM     20  H   UNL     1      33.290 -10.414 -26.212  0.00  0.00    -0.080 HD
ENDBRANCH  15  17
ENDBRANCH  14  15
ENDBRANCH   1  14
BRANCH   1  21
ATOM     21  C   UNL     1      34.163  -8.488 -22.637  0.00  0.00    +0.118 C 
BRANCH  21  22
ATOM     22  O   UNL     1      34.377  -7.420 -21.709  0.00  0.00    -0.384 OA
ATOM     23  H   UNL     1      35.054  -6.820 -22.056  0.00  0.00    +0.210 HD
ENDBRANCH  21  22
BRANCH  21  24
ATOM     24  C   UNL     1      34.946  -8.180 -23.933  0.00  0.00    +0.030 C 
ATOM     25  C   UNL     1      34.725  -6.746 -24.406  0.00  0.00    +0.003 C 
ENDBRANCH  21  24
ENDBRANCH   1  21
TORSDOF 8
ENDMDL
MODEL 5
REMARK VINA RESULT:      -6.7      1.516      5.217
REMARK  Name = 62709
REMARK  8 active torsions:
REMARK  status: ('A' for Active; 'I' for Inactive)
REMARK    1  A    between atoms: C_1  and  C_2
REMARK    2  A    between atoms: C_1  and  C_8
REMARK    3  A    between atoms: C_1  and  C_14
REMARK    4  A    between atoms: C_1  and  C_21
REMARK    5  A    between atoms: C_14  and  C_15
REMARK    6  A    between atoms: C_15  and  N_17
REMARK    7  A    between atoms: C_21  and  O_22
REMARK    8  A    between atoms: C_21  and  C_24
REMARK                            x       y       z     vdW  Elec       q    Type
REMARK                         _______ _______ _______ _____ _____    ______ ____
ROOT
ATOM      1  C   UNL     1      34.624 -23.371 -15.575  0.00  0.00    +0.060 C 
ENDROOT
BRANCH   1   2
ATOM      2  C   UNL     1      35.080 -22.729 -16.923  0.00  0.00    -0.017 C 
ATOM      3  C   UNL     1      36.307 -22.142 -16.954  0.00  0.00    -0.004 C 
ATOM      4  C   UNL     1      34.219 -22.800 -17.975  0.00  0.00    -0.004 C 
ATOM      5  C   UNL     1      36.716 -21.569 -18.158  0.00  0.00    -0.000 C 
ATOM      6  C   UNL     1      34.627 -22.225 -19.179  0.00  0.00    -0.000 C 
ATOM      7  C   UNL     1      35.875 -21.610 -19.271  0.00  0.00    -0.000 C 
ENDBRANCH   1   2
BRANCH   1   8
ATOM      8  C   UNL     1      33.088 -23.240 -15.339  0.00  0.00    -0.017 C 
ATOM      9  C   UNL     1      32.664 -23.010 -14.065  0.00  0.00    -0.004 C 
ATOM     10  C   UNL     1      32.271 -23.365 -16.422  0.00  0.00    -0.004 C 
ATOM     11  C   UNL     1      31.291 -22.894 -13.853  0.00  0.00    -0.000 C 
ATOM     12  C   UNL     1      30.897 -23.248 -16.211  0.00  0.00    -0.000 C 
ATOM     13  C   UNL     1      30.407 -23.012 -14.927  0.00  0.00    -0.000 C 
ENDBRANCH   1   8
BRANCH   1  14
ATOM     14  C   UNL     1      35.502 -22.705 -14.434  0.00  0.00    -0.010 C 
BRANCH  14  15
ATOM     15  C   UNL     1      36.272 -23.628 -13.453  0.00  0.00    -0.058 C 
ATOM     16  C   UNL     1      37.780 -23.395 -13.578  0.00  0.00    -0.023 C 
BRANCH  15  17
ATOM     17  N   UNL     1      35.883 -23.380 -12.064  0.00  0.00    +0.385 N 
ATOM     18  C   UNL     1      37.007 -22.824 -11.312  0.00  0.00    -0.101 C 
ATOM     19  C   UNL     1      35.409 -24.614 -11.438  0.00  0.00    -0.101 C 
ATOM     20  H   UNL     1      35.122 -22.701 -12.055  0.00  0.00    -0.080 HD
ENDBRANCH  15  17
ENDBRANCH  14  15
ENDBRANCH   1  14
BRANCH   1  21
ATOM     21  C   UNL     1      34.969 -24.935 -15.534  0.00  0.00    +0.118 C 
BRANCH  21  22
ATOM     22  O   UNL     1      34.280 -25.586 -14.462  0.00  0.00    -0.384 OA
ATOM     23  H   UNL     1      33.427 -25.918 -14.780  0.00  0.00    +0.210 HD
ENDBRANCH  21  22
BRANCH  21  24
ATOM     24  C   UNL     1      36.468 -25.301 -15.453  0.00  0.00    +0.030 C 
ATOM     25  C   UNL     1      36.679 -26.799 -15.253  0.00  0.00    +0.003 C 
ENDBRANCH  21  24
ENDBRANCH   1  21
TORSDOF 8
ENDMDL
MODEL 6
REMARK VINA RESULT:      -6.5      1.346      4.197
REMARK  Name = 62709
REMARK  8 active torsions:
REMARK  status: ('A' for Active; 'I' for Inactive)
REMARK    1  A    between atoms: C_1  and  C_2
REMARK    2  A    between atoms: C_1  and  C_8
REMARK    3  A    between atoms: C_1  and  C_14
REMARK    4  A    between atoms: C_1  and  C_21
REMARK    5  A    between atoms: C_14  and  C_15
REMARK    6  A    between atoms: C_15  and  N_17
REMARK    7  A    between atoms: C_21  and  O_22
REMARK    8  A    between atoms: C_21  and  C_24
REMARK                            x       y       z     vdW  Elec       q    Type
REMARK                         _______ _______ _______ _____ _____    ______ ____
ROOT
ATOM      1  C   UNL     1      35.575 -23.782 -15.119  0.00  0.00    +0.060 C 
ENDROOT
BRANCH   1   2
ATOM      2  C   UNL     1      35.919 -22.830 -16.307  0.00  0.00    -0.017 C 
ATOM      3  C   UNL     1      35.138 -22.906 -17.419  0.00  0.00    -0.004 C 
ATOM      4  C   UNL     1      36.977 -21.988 -16.150  0.00  0.00    -0.004 C 
ATOM      5  C   UNL     1      35.445 -22.055 -18.480  0.00  0.00    -0.000 C 
ATOM      6  C   UNL     1      37.285 -21.137 -17.212  0.00  0.00    -0.000 C 
ATOM      7  C   UNL     1      36.519 -21.170 -18.377  0.00  0.00    -0.000 C 
ENDBRANCH   1   2
BRANCH   1   8
ATOM      8  C   UNL     1      36.603 -24.945 -14.967  0.00  0.00    -0.017 C 
ATOM      9  C   UNL     1      36.129 -26.220 -15.057  0.00  0.00    -0.004 C 
ATOM     10  C   UNL     1      37.906 -24.611 -14.754  0.00  0.00    -0.004 C 
ATOM     11  C   UNL     1      37.048 -27.260 -14.919  0.00  0.00    -0.000 C 
ATOM     12  C   UNL     1      38.825 -25.651 -14.618  0.00  0.00    -0.000 C 
ATOM     13  C   UNL     1      38.396 -26.976 -14.701  0.00  0.00    -0.000 C 
ENDBRANCH   1   8
BRANCH   1  14
ATOM     14  C   UNL     1      34.085 -24.276 -15.349  0.00  0.00    -0.010 C 
BRANCH  14  15
ATOM     15  C   UNL     1      32.927 -23.261 -15.160  0.00  0.00    -0.058 C 
ATOM     16  C   UNL     1      32.048 -23.219 -16.413  0.00  0.00    -0.023 C 
BRANCH  15  17
ATOM     17  N   UNL     1      32.082 -23.617 -14.019  0.00  0.00    +0.385 N 
ATOM     18  C   UNL     1      32.041 -25.069 -13.849  0.00  0.00    -0.101 C 
ATOM     19  C   UNL     1      30.732 -23.085 -14.199  0.00  0.00    -0.101 C 
ATOM     20  H   UNL     1      32.481 -23.206 -13.176  0.00  0.00    -0.080 HD
ENDBRANCH  15  17
ENDBRANCH  14  15
ENDBRANCH   1  14
BRANCH   1  21
ATOM     21  C   UNL     1      35.561 -22.989 -13.728  0.00  0.00    +0.118 C 
BRANCH  21  22
ATOM     22  O   UNL     1      36.815 -22.339 -13.493  0.00  0.00    -0.384 OA
ATOM     23  H   UNL     1      37.056 -21.811 -14.269  0.00  0.00    +0.210 HD
ENDBRANCH  21  22
BRANCH  21  24
ATOM     24  C   UNL     1      35.191 -23.814 -12.475  0.00  0.00    +0.030 C 
ATOM     25  C   UNL     1      36.319 -23.828 -11.447  0.00  0.00    +0.003 C 
ENDBRANCH  21  24
ENDBRANCH   1  21
TORSDOF 8
ENDMDL
MODEL 7
REMARK VINA RESULT:      -6.3      1.738      4.650
REMARK  Name = 62709
REMARK  8 active torsions:
REMARK  status: ('A' for Active; 'I' for Inactive)
REMARK    1  A    between atoms: C_1  and  C_2
REMARK    2  A    between atoms: C_1  and  C_8
REMARK    3  A    between atoms: C_1  and  C_14
REMARK    4  A    between atoms: C_1  and  C_21
REMARK    5  A    between atoms: C_14  and  C_15
REMARK    6  A    between atoms: C_15  and  N_17
REMARK    7  A    between atoms: C_21  and  O_22
REMARK    8  A    between atoms: C_21  and  C_24
REMARK                            x       y       z     vdW  Elec       q    Type
REMARK                         _______ _______ _______ _____ _____    ______ ____
ROOT
ATOM      1  C   UNL     1      35.037 -23.931 -14.512  0.00  0.00    +0.060 C 
ENDROOT
BRANCH   1   2
ATOM      2  C   UNL     1      35.671 -23.743 -13.099  0.00  0.00    -0.017 C 
ATOM      3  C   UNL     1      36.706 -22.866 -12.987  0.00  0.00    -0.004 C 
ATOM      4  C   UNL     1      35.145 -24.467 -12.073  0.00  0.00    -0.004 C 
ATOM      5  C   UNL     1      37.272 -22.696 -11.725  0.00  0.00    -0.000 C 
ATOM      6  C   UNL     1      35.712 -24.298 -10.810  0.00  0.00    -0.000 C 
ATOM      7  C   UNL     1      36.775 -23.413 -10.635  0.00  0.00    -0.000 C 
ENDBRANCH   1   2
BRANCH   1   8
ATOM      8  C   UNL     1      33.478 -23.966 -14.470  0.00  0.00    -0.017 C 
ATOM      9  C   UNL     1      32.813 -22.829 -14.816  0.00  0.00    -0.004 C 
ATOM     10  C   UNL     1      32.884 -25.132 -14.089  0.00  0.00    -0.004 C 
ATOM     11  C   UNL     1      31.420 -22.859 -14.777  0.00  0.00    -0.000 C 
ATOM     12  C   UNL     1      31.490 -25.162 -14.050  0.00  0.00    -0.000 C 
ATOM     13  C   UNL     1      30.758 -24.027 -14.395  0.00  0.00    -0.000 C 
ENDBRANCH   1   8
BRANCH   1  14
ATOM     14  C   UNL     1      35.686 -25.240 -15.131  0.00  0.00    -0.010 C 
BRANCH  14  15
ATOM     15  C   UNL     1      36.689 -26.051 -14.270  0.00  0.00    -0.058 C 
ATOM     16  C   UNL     1      36.945 -27.422 -14.902  0.00  0.00    -0.023 C 
BRANCH  15  17
ATOM     17  N   UNL     1      37.972 -25.358 -14.144  0.00  0.00    +0.385 N 
ATOM     18  C   UNL     1      38.796 -25.592 -15.330  0.00  0.00    -0.101 C 
ATOM     19  C   UNL     1      38.674 -25.798 -12.939  0.00  0.00    -0.101 C 
ATOM     20  H   UNL     1      37.796 -24.357 -14.067  0.00  0.00    -0.080 HD
ENDBRANCH  15  17
ENDBRANCH  14  15
ENDBRANCH   1  14
BRANCH   1  21
ATOM     21  C   UNL     1      35.448 -22.735 -15.494  0.00  0.00    +0.118 C 
BRANCH  21  22
ATOM     22  O   UNL     1      34.942 -22.955 -16.815  0.00  0.00    -0.384 OA
ATOM     23  H   UNL     1      35.682 -23.035 -17.436  0.00  0.00    +0.210 HD
ENDBRANCH  21  22
BRANCH  21  24
ATOM     24  C   UNL     1      36.957 -22.419 -15.590  0.00  0.00    +0.030 C 
ATOM     25  C   UNL     1      37.285 -21.567 -16.813  0.00  0.00    +0.003 C 
ENDBRANCH  21  24
ENDBRANCH   1  21
TORSDOF 8
ENDMDL
MODEL 8
REMARK VINA RESULT:      -6.3      2.061      4.417
REMARK  Name = 62709
REMARK  8 active torsions:
REMARK  status: ('A' for Active; 'I' for Inactive)
REMARK    1  A    between atoms: C_1  and  C_2
REMARK    2  A    between atoms: C_1  and  C_8
REMARK    3  A    between atoms: C_1  and  C_14
REMARK    4  A    between atoms: C_1  and  C_21
REMARK    5  A    between atoms: C_14  and  C_15
REMARK    6  A    between atoms: C_15  and  N_17
REMARK    7  A    between atoms: C_21  and  O_22
REMARK    8  A    between atoms: C_21  and  C_24
REMARK                            x       y       z     vdW  Elec       q    Type
REMARK                         _______ _______ _______ _____ _____    ______ ____
ROOT
ATOM      1  C   UNL     1      35.957 -23.551 -14.830  0.00  0.00    +0.060 C 
ENDROOT
BRANCH   1   2
ATOM      2  C   UNL     1      36.038 -23.694 -13.278  0.00  0.00    -0.017 C 
ATOM      3  C   UNL     1      36.937 -22.910 -12.622  0.00  0.00    -0.004 C 
ATOM      4  C   UNL     1      35.204 -24.592 -12.686  0.00  0.00    -0.004 C 
ATOM      5  C   UNL     1      37.009 -23.036 -11.235  0.00  0.00    -0.000 C 
ATOM      6  C   UNL     1      35.277 -24.719 -11.298  0.00  0.00    -0.000 C 
ATOM      7  C   UNL     1      36.179 -23.942 -10.573  0.00  0.00    -0.000 C 
ENDBRANCH   1   2
BRANCH   1   8
ATOM      8  C   UNL     1      34.488 -23.468 -15.348  0.00  0.00    -0.017 C 
ATOM      9  C   UNL     1      34.287 -23.574 -16.691  0.00  0.00    -0.004 C 
ATOM     10  C   UNL     1      33.503 -23.295 -14.423  0.00  0.00    -0.004 C 
ATOM     11  C   UNL     1      32.974 -23.499 -17.155  0.00  0.00    -0.000 C 
ATOM     12  C   UNL     1      32.189 -23.220 -14.887  0.00  0.00    -0.000 C 
ATOM     13  C   UNL     1      31.925 -23.323 -16.252  0.00  0.00    -0.000 C 
ENDBRANCH   1   8
BRANCH   1  14
ATOM     14  C   UNL     1      36.780 -24.761 -15.442  0.00  0.00    -0.010 C 
BRANCH  14  15
ATOM     15  C   UNL     1      37.082 -25.987 -14.540  0.00  0.00    -0.058 C 
ATOM     16  C   UNL     1      36.651 -27.280 -15.238  0.00  0.00    -0.023 C 
BRANCH  15  17
ATOM     17  N   UNL     1      38.509 -26.086 -14.230  0.00  0.00    +0.385 N 
ATOM     18  C   UNL     1      38.736 -25.881 -12.800  0.00  0.00    -0.101 C 
ATOM     19  C   UNL     1      39.270 -25.114 -15.013  0.00  0.00    -0.101 C 
ATOM     20  H   UNL     1      38.832 -27.021 -14.476  0.00  0.00    -0.080 HD
ENDBRANCH  15  17
ENDBRANCH  14  15
ENDBRANCH   1  14
BRANCH   1  21
ATOM     21  C   UNL     1      36.701 -22.222 -15.327  0.00  0.00    +0.118 C 
BRANCH  21  22
ATOM     22  O   UNL     1      35.776 -21.140 -15.477  0.00  0.00    -0.384 OA
ATOM     23  H   UNL     1      36.256 -20.336 -15.727  0.00  0.00    +0.210 HD
ENDBRANCH  21  22
BRANCH  21  24
ATOM     24  C   UNL     1      37.527 -22.349 -16.626  0.00  0.00    +0.030 C 
ATOM     25  C   UNL     1      36.903 -21.566 -17.778  0.00  0.00    +0.003 C 
ENDBRANCH  21  24
ENDBRANCH   1  21
TORSDOF 8
ENDMDL
MODEL 9
REMARK VINA RESULT:      -5.8      1.591      4.949
REMARK  Name = 62709
REMARK  8 active torsions:
REMARK  status: ('A' for Active; 'I' for Inactive)
REMARK    1  A    between atoms: C_1  and  C_2
REMARK    2  A    between atoms: C_1  and  C_8
REMARK    3  A    between atoms: C_1  and  C_14
REMARK    4  A    between atoms: C_1  and  C_21
REMARK    5  A    between atoms: C_14  and  C_15
REMARK    6  A    between atoms: C_15  and  N_17
REMARK    7  A    between atoms: C_21  and  O_22
REMARK    8  A    between atoms: C_21  and  C_24
REMARK                            x       y       z     vdW  Elec       q    Type
REMARK                         _______ _______ _______ _____ _____    ______ ____
ROOT
ATOM      1  C   UNL     1      35.556 -23.564 -14.941  0.00  0.00    +0.060 C 
ENDROOT
BRANCH   1   2
ATOM      2  C   UNL     1      35.934 -22.724 -16.201  0.00  0.00    -0.017 C 
ATOM      3  C   UNL     1      35.156 -22.870 -17.309  0.00  0.00    -0.004 C 
ATOM      4  C   UNL     1      37.014 -21.901 -16.107  0.00  0.00    -0.004 C 
ATOM      5  C   UNL     1      35.491 -22.119 -18.435  0.00  0.00    -0.000 C 
ATOM      6  C   UNL     1      37.351 -21.150 -17.234  0.00  0.00    -0.000 C 
ATOM      7  C   UNL     1      36.590 -21.259 -18.397  0.00  0.00    -0.000 C 
ENDBRANCH   1   2
BRANCH   1   8
ATOM      8  C   UNL     1      34.024 -23.839 -14.842  0.00  0.00    -0.017 C 
ATOM      9  C   UNL     1      33.225 -23.301 -15.805  0.00  0.00    -0.004 C 
ATOM     10  C   UNL     1      33.587 -24.599 -13.800  0.00  0.00    -0.004 C 
ATOM     11  C   UNL     1      31.855 -23.546 -15.716  0.00  0.00    -0.000 C 
ATOM     12  C   UNL     1      32.216 -24.845 -13.711  0.00  0.00    -0.000 C 
ATOM     13  C   UNL     1      31.351 -24.319 -14.669  0.00  0.00    -0.000 C 
ENDBRANCH   1   8
BRANCH   1  14
ATOM     14  C   UNL     1      36.147 -22.793 -13.687  0.00  0.00    -0.010 C 
BRANCH  14  15
ATOM     15  C   UNL     1      37.149 -23.534 -12.763  0.00  0.00    -0.058 C 
ATOM     16  C   UNL     1      37.626 -22.605 -11.643  0.00  0.00    -0.023 C 
BRANCH  15  17
ATOM     17  N   UNL     1      36.541 -24.716 -12.149  0.00  0.00    +0.385 N 
ATOM     18  C   UNL     1      35.868 -24.354 -10.903  0.00  0.00    -0.101 C 
ATOM     19  C   UNL     1      37.554 -25.741 -11.903  0.00  0.00    -0.101 C 
ATOM     20  H   UNL     1      35.847 -25.096 -12.792  0.00  0.00    -0.080 HD
ENDBRANCH  15  17
ENDBRANCH  14  15
ENDBRANCH   1  14
BRANCH   1  21
ATOM     21  C   UNL     1      36.285 -24.990 -14.959  0.00  0.00    +0.118 C 
BRANCH  21  22
ATOM     22  O   UNL     1      37.648 -24.868 -15.376  0.00  0.00    -0.384 OA
ATOM     23  H   UNL     1      37.688 -24.386 -16.217  0.00  0.00    +0.210 HD
ENDBRANCH  21  22
BRANCH  21  24
ATOM     24  C   UNL     1      35.607 -26.092 -15.806  0.00  0.00    +0.030 C 
ATOM     25  C   UNL     1      36.515 -27.304 -15.997  0.00  0.00    +0.003 C 
ENDBRANCH  21  24
ENDBRANCH   1  21
TORSDOF 8
ENDMDL
