MODEL 1
REMARK VINA RESULT:     -11.9      0.000      0.000
REMARK  Name = 6852141
REMARK  6 active torsions:
REMARK  status: ('A' for Active; 'I' for Inactive)
REMARK    1  A    between atoms: C_3  and  N_18
REMARK    2  A    between atoms: C_7  and  C_31
REMARK    3  A    between atoms: C_9  and  C_13
REMARK    4  A    between atoms: C_19  and  C_21
REMARK    5  A    between atoms: C_24  and  O_28
REMARK    6  A    between atoms: C_31  and  O_32
REMARK                            x       y       z     vdW  Elec       q    Type
REMARK                         _______ _______ _______ _____ _____    ______ ____
ROOT
ATOM      1  C   UNL     1      32.434 -23.490 -15.638  0.00  0.00    +0.014 C 
ATOM      2  C   UNL     1      32.384 -24.366 -14.527  0.00  0.00    +0.001 C 
ATOM      3  C   UNL     1      33.682 -23.135 -16.177  0.00  0.00    +0.051 C 
ATOM      4  C   UNL     1      31.236 -22.995 -16.176  0.00  0.00    +0.004 C 
ATOM      5  C   UNL     1      33.583 -24.861 -13.988  0.00  0.00    +0.007 C 
ATOM      6  C   UNL     1      34.862 -23.637 -15.629  0.00  0.00    +0.021 C 
ATOM      7  C   UNL     1      34.813 -24.498 -14.537  0.00  0.00    +0.077 C 
ATOM      8  C   UNL     1      31.137 -24.720 -13.988  0.00  0.00    +0.000 C 
ATOM      9  C   UNL     1      30.005 -23.358 -15.627  0.00  0.00    +0.031 C 
ATOM     10  C   UNL     1      29.956 -24.220 -14.536  0.00  0.00    +0.003 C 
ENDROOT
BRANCH   9  13
ATOM     11  N   UNL     1      28.328 -23.242 -17.455  0.00  0.00    -0.343 N 
ATOM     12  N   UNL     1      28.055 -21.957 -15.522  0.00  0.00    -0.285 NA
ATOM     13  C   UNL     1      28.773 -22.837 -16.198  0.00  0.00    +0.117 C 
ATOM     14  H   UNL     1      27.491 -22.877 -17.822  0.00  0.00    +0.144 HD
ATOM     15  H   UNL     1      28.851 -23.895 -17.975  0.00  0.00    +0.144 HD
ATOM     16  H   UNL     1      27.221 -21.603 -15.907  0.00  0.00    +0.188 HD
ENDBRANCH   9  13
BRANCH   3  18
ATOM     17  O   UNL     1      33.907 -23.740 -19.104  0.00  0.00    -0.270 OA
ATOM     18  N   UNL     1      33.793 -22.271 -17.274  0.00  0.00    -0.280 N 
ATOM     19  C   UNL     1      33.896 -22.612 -18.625  0.00  0.00    +0.249 C 
ATOM     20  H   UNL     1      33.801 -21.309 -17.067  0.00  0.00    +0.155 HD
BRANCH  19  21
ATOM     21  C   UNL     1      34.032 -21.462 -19.558  0.00  0.00    +0.053 C 
ATOM     22  C   UNL     1      35.276 -20.932 -19.830  0.00  0.00    +0.016 C 
ATOM     23  C   UNL     1      32.879 -20.960 -20.129  0.00  0.00    +0.004 C 
ATOM     24  C   UNL     1      35.373 -19.853 -20.710  0.00  0.00    +0.130 C 
ATOM     25  C   UNL     1      36.515 -21.489 -19.203  0.00  0.00    +0.034 C 
ATOM     26  C   UNL     1      32.977 -19.881 -21.009  0.00  0.00    +0.003 C 
ATOM     27  C   UNL     1      34.224 -19.329 -21.299  0.00  0.00    +0.036 C 
BRANCH  24  28
ATOM     28  O   UNL     1      36.583 -19.301 -21.007  0.00  0.00    -0.506 OA
ATOM     29  H   UNL     1      37.080 -18.872 -20.337  0.00  0.00    +0.292 HD
ENDBRANCH  24  28
ENDBRANCH  19  21
ENDBRANCH   3  18
BRANCH   7  31
ATOM     30  O   UNL     1      36.288 -25.078 -12.754  0.00  0.00    -0.245 OA
ATOM     31  C   UNL     1      36.046 -25.020 -13.967  0.00  0.00    +0.341 C 
BRANCH  31  32
ATOM     32  O   UNL     1      36.911 -25.442 -14.940  0.00  0.00    -0.441 OA
ATOM     33  C   UNL     1      36.856 -26.827 -15.297  0.00  0.00    +0.256 C 
ENDBRANCH  31  32
ENDBRANCH   7  31
TORSDOF 6
ENDMDL
MODEL 2
REMARK VINA RESULT:     -11.5      2.326      4.903
REMARK  Name = 6852141
REMARK  6 active torsions:
REMARK  status: ('A' for Active; 'I' for Inactive)
REMARK    1  A    between atoms: C_3  and  N_18
REMARK    2  A    between atoms: C_7  and  C_31
REMARK    3  A    between atoms: C_9  and  C_13
REMARK    4  A    between atoms: C_19  and  C_21
REMARK    5  A    between atoms: C_24  and  O_28
REMARK    6  A    between atoms: C_31  and  O_32
REMARK                            x       y       z     vdW  Elec       q    Type
REMARK                         _______ _______ _______ _____ _____    ______ ____
ROOT
ATOM      1  C   UNL     1      33.270 -23.423 -15.537  0.00  0.00    +0.014 C 
ATOM      2  C   UNL     1      32.733 -24.235 -14.511  0.00  0.00    +0.001 C 
ATOM      3  C   UNL     1      32.414 -22.912 -16.527  0.00  0.00    +0.051 C 
ATOM      4  C   UNL     1      34.646 -23.146 -15.545  0.00  0.00    +0.004 C 
ATOM      5  C   UNL     1      31.356 -24.513 -14.503  0.00  0.00    +0.007 C 
ATOM      6  C   UNL     1      31.048 -23.197 -16.503  0.00  0.00    +0.021 C 
ATOM      7  C   UNL     1      30.521 -23.996 -15.493  0.00  0.00    +0.077 C 
ATOM      8  C   UNL     1      33.589 -24.747 -13.522  0.00  0.00    +0.000 C 
ATOM      9  C   UNL     1      35.482 -23.663 -14.554  0.00  0.00    +0.031 C 
ATOM     10  C   UNL     1      34.954 -24.461 -13.544  0.00  0.00    +0.003 C 
ENDROOT
BRANCH   9  13
ATOM     11  N   UNL     1      37.606 -23.263 -15.777  0.00  0.00    -0.343 N 
ATOM     12  N   UNL     1      37.559 -23.191 -13.442  0.00  0.00    -0.285 NA
ATOM     13  C   UNL     1      36.905 -23.365 -14.576  0.00  0.00    +0.117 C 
ATOM     14  H   UNL     1      38.569 -23.061 -15.769  0.00  0.00    +0.144 HD
ATOM     15  H   UNL     1      37.136 -23.393 -16.633  0.00  0.00    +0.144 HD
ATOM     16  H   UNL     1      38.523 -22.989 -13.455  0.00  0.00    +0.188 HD
ENDBRANCH   9  13
BRANCH   3  18
ATOM     17  O   UNL     1      33.798 -23.655 -19.080  0.00  0.00    -0.270 OA
ATOM     18  N   UNL     1      32.888 -22.104 -17.568  0.00  0.00    -0.280 N 
ATOM     19  C   UNL     1      33.530 -22.508 -18.742  0.00  0.00    +0.249 C 
ATOM     20  H   UNL     1      32.753 -21.135 -17.459  0.00  0.00    +0.155 HD
BRANCH  19  21
ATOM     21  C   UNL     1      33.944 -21.405 -19.648  0.00  0.00    +0.053 C 
ATOM     22  C   UNL     1      35.265 -21.011 -19.704  0.00  0.00    +0.016 C 
ATOM     23  C   UNL     1      32.967 -20.803 -20.416  0.00  0.00    +0.004 C 
ATOM     24  C   UNL     1      35.625 -19.972 -20.563  0.00  0.00    +0.130 C 
ATOM     25  C   UNL     1      36.313 -21.673 -18.865  0.00  0.00    +0.034 C 
ATOM     26  C   UNL     1      33.327 -19.765 -21.275  0.00  0.00    +0.003 C 
ATOM     27  C   UNL     1      34.656 -19.351 -21.349  0.00  0.00    +0.036 C 
BRANCH  24  28
ATOM     28  O   UNL     1      36.920 -19.554 -20.650  0.00  0.00    -0.506 OA
ATOM     29  H   UNL     1      37.261 -19.253 -21.469  0.00  0.00    +0.292 HD
ENDBRANCH  24  28
ENDBRANCH  19  21
ENDBRANCH   3  18
BRANCH   7  31
ATOM     30  O   UNL     1      28.563 -25.112 -14.710  0.00  0.00    -0.245 OA
ATOM     31  C   UNL     1      29.096 -24.293 -15.471  0.00  0.00    +0.341 C 
BRANCH  31  32
ATOM     32  O   UNL     1      28.414 -23.552 -16.398  0.00  0.00    -0.441 OA
ATOM     33  C   UNL     1      27.535 -22.539 -15.896  0.00  0.00    +0.256 C 
ENDBRANCH  31  32
ENDBRANCH   7  31
TORSDOF 6
ENDMDL
MODEL 3
REMARK VINA RESULT:     -10.0      2.610      5.186
REMARK  Name = 6852141
REMARK  6 active torsions:
REMARK  status: ('A' for Active; 'I' for Inactive)
REMARK    1  A    between atoms: C_3  and  N_18
REMARK    2  A    between atoms: C_7  and  C_31
REMARK    3  A    between atoms: C_9  and  C_13
REMARK    4  A    between atoms: C_19  and  C_21
REMARK    5  A    between atoms: C_24  and  O_28
REMARK    6  A    between atoms: C_31  and  O_32
REMARK                            x       y       z     vdW  Elec       q    Type
REMARK                         _______ _______ _______ _____ _____    ______ ____
ROOT
ATOM      1  C   UNL     1      34.449 -23.578 -15.669  0.00  0.00    +0.014 C 
ATOM      2  C   UNL     1      33.818 -24.388 -14.695  0.00  0.00    +0.001 C 
ATOM      3  C   UNL     1      33.658 -22.845 -16.569  0.00  0.00    +0.051 C 
ATOM      4  C   UNL     1      35.851 -23.526 -15.715  0.00  0.00    +0.004 C 
ATOM      5  C   UNL     1      32.415 -24.441 -14.648  0.00  0.00    +0.007 C 
ATOM      6  C   UNL     1      32.265 -22.909 -16.508  0.00  0.00    +0.021 C 
ATOM      7  C   UNL     1      31.645 -23.706 -15.550  0.00  0.00    +0.077 C 
ATOM      8  C   UNL     1      34.609 -25.122 -13.795  0.00  0.00    +0.000 C 
ATOM      9  C   UNL     1      36.621 -24.261 -14.813  0.00  0.00    +0.031 C 
ATOM     10  C   UNL     1      36.001 -25.057 -13.854  0.00  0.00    +0.003 C 
ENDROOT
BRANCH   9  13
ATOM     11  N   UNL     1      38.868 -24.868 -13.949  0.00  0.00    -0.343 N 
ATOM     12  N   UNL     1      38.660 -23.480 -15.818  0.00  0.00    -0.285 NA
ATOM     13  C   UNL     1      38.072 -24.194 -14.874  0.00  0.00    +0.117 C 
ATOM     14  H   UNL     1      39.849 -24.810 -14.008  0.00  0.00    +0.144 HD
ATOM     15  H   UNL     1      38.448 -25.403 -13.236  0.00  0.00    +0.144 HD
ATOM     16  H   UNL     1      39.642 -23.434 -15.860  0.00  0.00    +0.188 HD
ENDBRANCH   9  13
BRANCH   3  18
ATOM     17  O   UNL     1      34.111 -23.360 -19.487  0.00  0.00    -0.270 OA
ATOM     18  N   UNL     1      34.225 -22.029 -17.555  0.00  0.00    -0.280 N 
ATOM     19  C   UNL     1      34.413 -22.323 -18.908  0.00  0.00    +0.249 C 
ATOM     20  H   UNL     1      34.529 -21.141 -17.258  0.00  0.00    +0.155 HD
BRANCH  19  21
ATOM     21  C   UNL     1      35.075 -21.255 -19.702  0.00  0.00    +0.053 C 
ATOM     22  C   UNL     1      34.319 -20.371 -20.443  0.00  0.00    +0.016 C 
ATOM     23  C   UNL     1      36.454 -21.188 -19.664  0.00  0.00    +0.004 C 
ATOM     24  C   UNL     1      34.968 -19.378 -21.178  0.00  0.00    +0.130 C 
ATOM     25  C   UNL     1      32.826 -20.456 -20.473  0.00  0.00    +0.034 C 
ATOM     26  C   UNL     1      37.103 -20.196 -20.399  0.00  0.00    +0.003 C 
ATOM     27  C   UNL     1      36.359 -19.291 -21.155  0.00  0.00    +0.036 C 
BRANCH  24  28
ATOM     28  O   UNL     1      34.259 -18.484 -21.923  0.00  0.00    -0.506 OA
ATOM     29  H   UNL     1      33.331 -18.409 -21.808  0.00  0.00    +0.292 HD
ENDBRANCH  24  28
ENDBRANCH  19  21
ENDBRANCH   3  18
BRANCH   7  31
ATOM     30  O   UNL     1      29.452 -22.787 -15.367  0.00  0.00    -0.245 OA
ATOM     31  C   UNL     1      30.193 -23.772 -15.489  0.00  0.00    +0.341 C 
BRANCH  31  32
ATOM     32  O   UNL     1      29.743 -25.060 -15.582  0.00  0.00    -0.441 OA
ATOM     33  C   UNL     1      28.923 -25.539 -14.511  0.00  0.00    +0.256 C 
ENDBRANCH  31  32
ENDBRANCH   7  31
TORSDOF 6
ENDMDL
MODEL 4
REMARK VINA RESULT:      -9.7      2.663      7.016
REMARK  Name = 6852141
REMARK  6 active torsions:
REMARK  status: ('A' for Active; 'I' for Inactive)
REMARK    1  A    between atoms: C_3  and  N_18
REMARK    2  A    between atoms: C_7  and  C_31
REMARK    3  A    between atoms: C_9  and  C_13
REMARK    4  A    between atoms: C_19  and  C_21
REMARK    5  A    between atoms: C_24  and  O_28
REMARK    6  A    between atoms: C_31  and  O_32
REMARK                            x       y       z     vdW  Elec       q    Type
REMARK                         _______ _______ _______ _____ _____    ______ ____
ROOT
ATOM      1  C   UNL     1      35.222 -23.151 -16.226  0.00  0.00    +0.014 C 
ATOM      2  C   UNL     1      36.536 -22.716 -16.519  0.00  0.00    +0.001 C 
ATOM      3  C   UNL     1      34.181 -22.842 -17.117  0.00  0.00    +0.051 C 
ATOM      4  C   UNL     1      34.986 -23.880 -15.050  0.00  0.00    +0.004 C 
ATOM      5  C   UNL     1      36.772 -21.987 -17.696  0.00  0.00    +0.007 C 
ATOM      6  C   UNL     1      34.434 -22.117 -18.282  0.00  0.00    +0.021 C 
ATOM      7  C   UNL     1      35.727 -21.689 -18.570  0.00  0.00    +0.077 C 
ATOM      8  C   UNL     1      37.577 -23.025 -15.627  0.00  0.00    +0.000 C 
ATOM      9  C   UNL     1      36.032 -24.178 -14.175  0.00  0.00    +0.031 C 
ATOM     10  C   UNL     1      37.325 -23.751 -14.464  0.00  0.00    +0.003 C 
ENDROOT
BRANCH   9  13
ATOM     11  N   UNL     1      36.692 -25.860 -12.472  0.00  0.00    -0.343 N 
ATOM     12  N   UNL     1      34.639 -24.756 -12.303  0.00  0.00    -0.285 NA
ATOM     13  C   UNL     1      35.771 -24.936 -12.962  0.00  0.00    +0.117 C 
ATOM     14  H   UNL     1      36.495 -26.362 -11.648  0.00  0.00    +0.144 HD
ATOM     15  H   UNL     1      37.540 -26.010 -12.950  0.00  0.00    +0.144 HD
ATOM     16  H   UNL     1      34.460 -25.268 -11.482  0.00  0.00    +0.188 HD
ENDBRANCH   9  13
BRANCH   3  18
ATOM     17  O   UNL     1      32.312 -22.129 -14.885  0.00  0.00    -0.270 OA
ATOM     18  N   UNL     1      32.861 -23.244 -16.879  0.00  0.00    -0.280 N 
ATOM     19  C   UNL     1      32.032 -22.877 -15.815  0.00  0.00    +0.249 C 
ATOM     20  H   UNL     1      32.470 -23.859 -17.541  0.00  0.00    +0.155 HD
BRANCH  19  21
ATOM     21  C   UNL     1      30.682 -23.497 -15.823  0.00  0.00    +0.053 C 
ATOM     22  C   UNL     1      30.407 -24.574 -15.005  0.00  0.00    +0.016 C 
ATOM     23  C   UNL     1      29.732 -22.957 -16.668  0.00  0.00    +0.004 C 
ATOM     24  C   UNL     1      29.130 -25.136 -15.034  0.00  0.00    +0.130 C 
ATOM     25  C   UNL     1      31.447 -25.147 -14.095  0.00  0.00    +0.034 C 
ATOM     26  C   UNL     1      28.456 -23.519 -16.696  0.00  0.00    +0.003 C 
ATOM     27  C   UNL     1      28.156 -24.608 -15.879  0.00  0.00    +0.036 C 
BRANCH  24  28
ATOM     28  O   UNL     1      28.817 -26.200 -14.241  0.00  0.00    -0.506 OA
ATOM     29  H   UNL     1      28.987 -27.072 -14.539  0.00  0.00    +0.292 HD
ENDBRANCH  24  28
ENDBRANCH  19  21
ENDBRANCH   3  18
BRANCH   7  31
ATOM     30  O   UNL     1      37.116 -20.607 -20.179  0.00  0.00    -0.245 OA
ATOM     31  C   UNL     1      35.988 -20.932 -19.785  0.00  0.00    +0.341 C 
BRANCH  31  32
ATOM     32  O   UNL     1      34.829 -20.621 -20.443  0.00  0.00    -0.441 OA
ATOM     33  C   UNL     1      34.843 -19.444 -21.258  0.00  0.00    +0.256 C 
ENDBRANCH  31  32
ENDBRANCH   7  31
TORSDOF 6
ENDMDL
MODEL 5
REMARK VINA RESULT:      -9.1      3.017      7.222
REMARK  Name = 6852141
REMARK  6 active torsions:
REMARK  status: ('A' for Active; 'I' for Inactive)
REMARK    1  A    between atoms: C_3  and  N_18
REMARK    2  A    between atoms: C_7  and  C_31
REMARK    3  A    between atoms: C_9  and  C_13
REMARK    4  A    between atoms: C_19  and  C_21
REMARK    5  A    between atoms: C_24  and  O_28
REMARK    6  A    between atoms: C_31  and  O_32
REMARK                            x       y       z     vdW  Elec       q    Type
REMARK                         _______ _______ _______ _____ _____    ______ ____
ROOT
ATOM      1  C   UNL     1      33.992 -22.694 -17.290  0.00  0.00    +0.014 C 
ATOM      2  C   UNL     1      32.751 -22.393 -17.899  0.00  0.00    +0.001 C 
ATOM      3  C   UNL     1      34.008 -23.414 -16.084  0.00  0.00    +0.051 C 
ATOM      4  C   UNL     1      35.180 -22.266 -17.904  0.00  0.00    +0.004 C 
ATOM      5  C   UNL     1      31.562 -22.821 -17.286  0.00  0.00    +0.007 C 
ATOM      6  C   UNL     1      32.817 -23.832 -15.489  0.00  0.00    +0.021 C 
ATOM      7  C   UNL     1      31.596 -23.535 -16.089  0.00  0.00    +0.077 C 
ATOM      8  C   UNL     1      32.734 -21.673 -19.105  0.00  0.00    +0.000 C 
ATOM      9  C   UNL     1      35.145 -21.552 -19.101  0.00  0.00    +0.031 C 
ATOM     10  C   UNL     1      33.925 -21.256 -19.701  0.00  0.00    +0.003 C 
ENDROOT
BRANCH   9  13
ATOM     11  N   UNL     1      36.684 -19.764 -19.877  0.00  0.00    -0.343 N 
ATOM     12  N   UNL     1      37.252 -22.013 -20.162  0.00  0.00    -0.285 NA
ATOM     13  C   UNL     1      36.385 -21.117 -19.724  0.00  0.00    +0.117 C 
ATOM     14  H   UNL     1      37.529 -19.492 -20.302  0.00  0.00    +0.144 HD
ATOM     15  H   UNL     1      36.049 -19.081 -19.561  0.00  0.00    +0.144 HD
ATOM     16  H   UNL     1      38.092 -21.721 -20.584  0.00  0.00    +0.188 HD
ENDBRANCH   9  13
BRANCH   3  18
ATOM     17  O   UNL     1      35.406 -26.050 -15.805  0.00  0.00    -0.270 OA
ATOM     18  N   UNL     1      35.205 -23.739 -15.434  0.00  0.00    -0.280 N 
ATOM     19  C   UNL     1      35.813 -24.994 -15.335  0.00  0.00    +0.249 C 
ATOM     20  H   UNL     1      35.673 -22.995 -14.993  0.00  0.00    +0.155 HD
BRANCH  19  21
ATOM     21  C   UNL     1      37.073 -25.025 -14.549  0.00  0.00    +0.053 C 
ATOM     22  C   UNL     1      37.044 -24.838 -13.182  0.00  0.00    +0.016 C 
ATOM     23  C   UNL     1      38.252 -25.247 -15.233  0.00  0.00    +0.004 C 
ATOM     24  C   UNL     1      38.243 -24.873 -12.469  0.00  0.00    +0.130 C 
ATOM     25  C   UNL     1      35.758 -24.599 -12.455  0.00  0.00    +0.034 C 
ATOM     26  C   UNL     1      39.451 -25.282 -14.521  0.00  0.00    +0.003 C 
ATOM     27  C   UNL     1      39.445 -25.095 -13.139  0.00  0.00    +0.036 C 
BRANCH  24  28
ATOM     28  O   UNL     1      38.258 -24.694 -11.118  0.00  0.00    -0.506 OA
ATOM     29  H   UNL     1      38.298 -23.828 -10.761  0.00  0.00    +0.292 HD
ENDBRANCH  24  28
ENDBRANCH  19  21
ENDBRANCH   3  18
BRANCH   7  31
ATOM     30  O   UNL     1      30.115 -25.138 -15.126  0.00  0.00    -0.245 OA
ATOM     31  C   UNL     1      30.356 -23.972 -15.466  0.00  0.00    +0.341 C 
BRANCH  31  32
ATOM     32  O   UNL     1      29.483 -22.931 -15.299  0.00  0.00    -0.441 OA
ATOM     33  C   UNL     1      28.175 -23.087 -15.861  0.00  0.00    +0.256 C 
ENDBRANCH  31  32
ENDBRANCH   7  31
TORSDOF 6
ENDMDL
