MODEL 1
REMARK VINA RESULT:      -9.6      0.000      0.000
REMARK  Name = 446958
REMARK  9 active torsions:
REMARK  status: ('A' for Active; 'I' for Inactive)
REMARK    1  A    between atoms: O_1  and  C_7
REMARK    2  A    between atoms: O_1  and  C_17
REMARK    3  A    between atoms: C_3  and  O_8
REMARK    4  A    between atoms: C_4  and  O_10
REMARK    5  A    between atoms: C_5  and  O_12
REMARK    6  A    between atoms: C_6  and  C_14
REMARK    7  A    between atoms: C_14  and  O_15
REMARK    8  A    between atoms: C_20  and  C_25
REMARK    9  A    between atoms: C_21  and  N_30
REMARK                            x       y       z     vdW  Elec       q    Type
REMARK                         _______ _______ _______ _____ _____    ______ ____
ROOT
ATOM      1  O   UNL     1      35.246 -23.402 -14.524  0.00  0.00    -0.451 OA
ENDROOT
BRANCH   1   7
ATOM      2  O   UNL     1      36.409 -25.452 -14.314  0.00  0.00    -0.316 OA
ATOM      3  C   UNL     1      36.763 -23.818 -11.971  0.00  0.00    +0.173 C 
ATOM      4  C   UNL     1      37.906 -24.654 -12.554  0.00  0.00    +0.169 C 
ATOM      5  C   UNL     1      35.414 -24.439 -12.337  0.00  0.00    +0.210 C 
ATOM      6  C   UNL     1      37.695 -24.866 -14.059  0.00  0.00    +0.177 C 
ATOM      7  C   UNL     1      35.314 -24.657 -13.849  0.00  0.00    +0.318 C 
BRANCH   3   8
ATOM      8  O   UNL     1      36.880 -23.754 -10.552  0.00  0.00    -0.379 OA
ATOM      9  H   UNL     1      36.694 -24.627 -10.173  0.00  0.00    +0.211 HD
ENDBRANCH   3   8
BRANCH   4  10
ATOM     10  O   UNL     1      37.944 -25.929 -11.908  0.00  0.00    -0.379 OA
ATOM     11  H   UNL     1      37.239 -25.974 -11.242  0.00  0.00    +0.211 HD
ENDBRANCH   4  10
BRANCH   5  12
ATOM     12  O   UNL     1      34.350 -23.595 -11.912  0.00  0.00    -0.377 OA
ATOM     13  H   UNL     1      33.559 -23.781 -12.442  0.00  0.00    +0.211 HD
ENDBRANCH   5  12
BRANCH   6  14
ATOM     14  C   UNL     1      38.742 -25.792 -14.667  0.00  0.00    +0.169 C 
BRANCH  14  15
ATOM     15  O   UNL     1      38.248 -27.119 -14.628  0.00  0.00    -0.379 OA
ATOM     16  H   UNL     1      38.985 -27.742 -14.730  0.00  0.00    +0.211 HD
ENDBRANCH  14  15
ENDBRANCH   6  14
ENDBRANCH   1   7
BRANCH   1  17
ATOM     17  C   UNL     1      34.235 -23.249 -15.432  0.00  0.00    +0.143 C 
ATOM     18  C   UNL     1      32.912 -23.353 -15.018  0.00  0.00    +0.042 C 
ATOM     19  C   UNL     1      34.540 -22.990 -16.766  0.00  0.00    +0.061 C 
ATOM     20  C   UNL     1      31.881 -23.196 -15.945  0.00  0.00    +0.058 C 
ATOM     21  C   UNL     1      33.509 -22.833 -17.692  0.00  0.00    +0.146 C 
ATOM     22  C   UNL     1      32.180 -22.935 -17.283  0.00  0.00    +0.029 C 
BRANCH  20  25
ATOM     23  O   UNL     1      30.193 -23.776 -14.408  0.00  0.00    -0.270 OA
ATOM     24  N   UNL     1      29.512 -22.836 -16.385  0.00  0.00    -0.325 N 
ATOM     25  C   UNL     1      30.495 -23.302 -15.517  0.00  0.00    +0.243 C 
ATOM     26  H   UNL     1      28.562 -22.891 -16.129  0.00  0.00    +0.145 HD
ATOM     27  H   UNL     1      29.765 -22.452 -17.255  0.00  0.00    +0.145 HD
ENDBRANCH  20  25
BRANCH  21  30
ATOM     28  O   UNL     1      32.911 -22.121 -19.803  0.00  0.00    -0.126 OA
ATOM     29  O   UNL     1      34.977 -22.786 -19.470  0.00  0.00    -0.126 OA
ATOM     30  N   UNL     1      33.814 -22.567 -19.055  0.00  0.00    +0.058 N 
ENDBRANCH  21  30
ENDBRANCH   1  17
TORSDOF 9
ENDMDL
MODEL 2
REMARK VINA RESULT:      -9.5      1.528      2.741
REMARK  Name = 446958
REMARK  9 active torsions:
REMARK  status: ('A' for Active; 'I' for Inactive)
REMARK    1  A    between atoms: O_1  and  C_7
REMARK    2  A    between atoms: O_1  and  C_17
REMARK    3  A    between atoms: C_3  and  O_8
REMARK    4  A    between atoms: C_4  and  O_10
REMARK    5  A    between atoms: C_5  and  O_12
REMARK    6  A    between atoms: C_6  and  C_14
REMARK    7  A    between atoms: C_14  and  O_15
REMARK    8  A    between atoms: C_20  and  C_25
REMARK    9  A    between atoms: C_21  and  N_30
REMARK                            x       y       z     vdW  Elec       q    Type
REMARK                         _______ _______ _______ _____ _____    ______ ____
ROOT
ATOM      1  O   UNL     1      35.401 -24.354 -14.560  0.00  0.00    -0.451 OA
ENDROOT
BRANCH   1   7
ATOM      2  O   UNL     1      36.019 -23.108 -12.645  0.00  0.00    -0.316 OA
ATOM      3  C   UNL     1      38.198 -24.754 -13.553  0.00  0.00    +0.173 C 
ATOM      4  C   UNL     1      37.903 -24.553 -12.064  0.00  0.00    +0.169 C 
ATOM      5  C   UNL     1      37.685 -23.560 -14.360  0.00  0.00    +0.210 C 
ATOM      6  C   UNL     1      36.416 -24.240 -11.854  0.00  0.00    +0.177 C 
ATOM      7  C   UNL     1      36.209 -23.295 -14.050  0.00  0.00    +0.318 C 
BRANCH   3   8
ATOM      8  O   UNL     1      39.601 -24.891 -13.759  0.00  0.00    -0.379 OA
ATOM      9  H   UNL     1      40.060 -24.825 -12.907  0.00  0.00    +0.211 HD
ENDBRANCH   3   8
BRANCH   4  10
ATOM     10  O   UNL     1      38.680 -23.460 -11.567  0.00  0.00    -0.379 OA
ATOM     11  H   UNL     1      38.711 -22.756 -12.235  0.00  0.00    +0.211 HD
ENDBRANCH   4  10
BRANCH   5  12
ATOM     12  O   UNL     1      37.837 -23.803 -15.754  0.00  0.00    -0.377 OA
ATOM     13  H   UNL     1      37.427 -23.080 -16.255  0.00  0.00    +0.211 HD
ENDBRANCH   5  12
BRANCH   6  14
ATOM     14  C   UNL     1      36.091 -23.912 -10.402  0.00  0.00    +0.169 C 
BRANCH  14  15
ATOM     15  O   UNL     1      35.283 -24.948  -9.874  0.00  0.00    -0.379 OA
ATOM     16  H   UNL     1      35.026 -24.728  -8.965  0.00  0.00    +0.211 HD
ENDBRANCH  14  15
ENDBRANCH   6  14
ENDBRANCH   1   7
BRANCH   1  17
ATOM     17  C   UNL     1      34.262 -23.991 -15.224  0.00  0.00    +0.143 C 
ATOM     18  C   UNL     1      33.035 -24.046 -14.572  0.00  0.00    +0.042 C 
ATOM     19  C   UNL     1      34.340 -23.570 -16.548  0.00  0.00    +0.061 C 
ATOM     20  C   UNL     1      31.873 -23.675 -15.249  0.00  0.00    +0.058 C 
ATOM     21  C   UNL     1      33.178 -23.199 -17.225  0.00  0.00    +0.146 C 
ATOM     22  C   UNL     1      31.945 -23.251 -16.576  0.00  0.00    +0.029 C 
BRANCH  20  25
ATOM     23  O   UNL     1      29.723 -22.851 -14.749  0.00  0.00    -0.270 OA
ATOM     24  N   UNL     1      30.345 -24.808 -13.727  0.00  0.00    -0.325 N 
ATOM     25  C   UNL     1      30.587 -23.728 -14.571  0.00  0.00    +0.243 C 
ATOM     26  H   UNL     1      29.485 -24.878 -13.252  0.00  0.00    +0.145 HD
ATOM     27  H   UNL     1      31.032 -25.502 -13.605  0.00  0.00    +0.145 HD
ENDBRANCH  20  25
BRANCH  21  30
ATOM     28  O   UNL     1      33.980 -23.403 -19.378  0.00  0.00    -0.126 OA
ATOM     29  O   UNL     1      32.588 -21.765 -18.932  0.00  0.00    -0.126 OA
ATOM     30  N   UNL     1      33.252 -22.767 -18.577  0.00  0.00    +0.058 N 
ENDBRANCH  21  30
ENDBRANCH   1  17
TORSDOF 9
ENDMDL
MODEL 3
REMARK VINA RESULT:      -9.4      0.720      3.028
REMARK  Name = 446958
REMARK  9 active torsions:
REMARK  status: ('A' for Active; 'I' for Inactive)
REMARK    1  A    between atoms: O_1  and  C_7
REMARK    2  A    between atoms: O_1  and  C_17
REMARK    3  A    between atoms: C_3  and  O_8
REMARK    4  A    between atoms: C_4  and  O_10
REMARK    5  A    between atoms: C_5  and  O_12
REMARK    6  A    between atoms: C_6  and  C_14
REMARK    7  A    between atoms: C_14  and  O_15
REMARK    8  A    between atoms: C_20  and  C_25
REMARK    9  A    between atoms: C_21  and  N_30
REMARK                            x       y       z     vdW  Elec       q    Type
REMARK                         _______ _______ _______ _____ _____    ______ ____
ROOT
ATOM      1  O   UNL     1      35.270 -23.435 -14.486  0.00  0.00    -0.451 OA
ENDROOT
BRANCH   1   7
ATOM      2  O   UNL     1      36.446 -25.474 -14.242  0.00  0.00    -0.316 OA
ATOM      3  C   UNL     1      36.795 -23.796 -11.930  0.00  0.00    +0.173 C 
ATOM      4  C   UNL     1      37.943 -24.635 -12.501  0.00  0.00    +0.169 C 
ATOM      5  C   UNL     1      35.450 -24.432 -12.282  0.00  0.00    +0.210 C 
ATOM      6  C   UNL     1      37.729 -24.876 -14.001  0.00  0.00    +0.177 C 
ATOM      7  C   UNL     1      35.347 -24.677 -13.789  0.00  0.00    +0.318 C 
BRANCH   3   8
ATOM      8  O   UNL     1      36.916 -23.705 -10.513  0.00  0.00    -0.379 OA
ATOM      9  H   UNL     1      36.887 -24.595 -10.129  0.00  0.00    +0.211 HD
ENDBRANCH   3   8
BRANCH   4  10
ATOM     10  O   UNL     1      37.989 -25.898 -11.832  0.00  0.00    -0.379 OA
ATOM     11  H   UNL     1      37.116 -26.321 -11.880  0.00  0.00    +0.211 HD
ENDBRANCH   4  10
BRANCH   5  12
ATOM     12  O   UNL     1      34.381 -23.587 -11.869  0.00  0.00    -0.377 OA
ATOM     13  H   UNL     1      33.534 -24.013 -12.076  0.00  0.00    +0.211 HD
ENDBRANCH   5  12
BRANCH   6  14
ATOM     14  C   UNL     1      38.780 -25.807 -14.595  0.00  0.00    +0.169 C 
BRANCH  14  15
ATOM     15  O   UNL     1      38.260 -27.124 -14.610  0.00  0.00    -0.379 OA
ATOM     16  H   UNL     1      38.283 -27.471 -15.516  0.00  0.00    +0.211 HD
ENDBRANCH  14  15
ENDBRANCH   6  14
ENDBRANCH   1   7
BRANCH   1  17
ATOM     17  C   UNL     1      34.246 -23.299 -15.383  0.00  0.00    +0.143 C 
ATOM     18  C   UNL     1      34.524 -22.972 -16.706  0.00  0.00    +0.042 C 
ATOM     19  C   UNL     1      32.932 -23.487 -14.964  0.00  0.00    +0.061 C 
ATOM     20  C   UNL     1      33.480 -22.834 -17.620  0.00  0.00    +0.058 C 
ATOM     21  C   UNL     1      31.888 -23.349 -15.879  0.00  0.00    +0.146 C 
ATOM     22  C   UNL     1      32.161 -23.023 -17.207  0.00  0.00    +0.029 C 
BRANCH  20  25
ATOM     23  O   UNL     1      34.592 -23.140 -19.675  0.00  0.00    -0.270 OA
ATOM     24  N   UNL     1      33.069 -21.429 -19.567  0.00  0.00    -0.325 N 
ATOM     25  C   UNL     1      33.766 -22.494 -19.005  0.00  0.00    +0.243 C 
ATOM     26  H   UNL     1      33.235 -21.170 -20.503  0.00  0.00    +0.145 HD
ATOM     27  H   UNL     1      32.409 -20.934 -19.031  0.00  0.00    +0.145 HD
ENDBRANCH  20  25
BRANCH  21  30
ATOM     28  O   UNL     1      29.982 -22.638 -14.792  0.00  0.00    -0.126 OA
ATOM     29  O   UNL     1      29.959 -24.608 -15.760  0.00  0.00    -0.126 OA
ATOM     30  N   UNL     1      30.545 -23.542 -15.456  0.00  0.00    +0.058 N 
ENDBRANCH  21  30
ENDBRANCH   1  17
TORSDOF 9
ENDMDL
MODEL 4
REMARK VINA RESULT:      -9.3      1.409      2.589
REMARK  Name = 446958
REMARK  9 active torsions:
REMARK  status: ('A' for Active; 'I' for Inactive)
REMARK    1  A    between atoms: O_1  and  C_7
REMARK    2  A    between atoms: O_1  and  C_17
REMARK    3  A    between atoms: C_3  and  O_8
REMARK    4  A    between atoms: C_4  and  O_10
REMARK    5  A    between atoms: C_5  and  O_12
REMARK    6  A    between atoms: C_6  and  C_14
REMARK    7  A    between atoms: C_14  and  O_15
REMARK    8  A    between atoms: C_20  and  C_25
REMARK    9  A    between atoms: C_21  and  N_30
REMARK                            x       y       z     vdW  Elec       q    Type
REMARK                         _______ _______ _______ _____ _____    ______ ____
ROOT
ATOM      1  O   UNL     1      34.645 -24.340 -14.328  0.00  0.00    -0.451 OA
ENDROOT
BRANCH   1   7
ATOM      2  O   UNL     1      36.539 -23.109 -13.623  0.00  0.00    -0.316 OA
ATOM      3  C   UNL     1      37.078 -25.937 -13.600  0.00  0.00    +0.173 C 
ATOM      4  C   UNL     1      37.606 -25.004 -12.506  0.00  0.00    +0.169 C 
ATOM      5  C   UNL     1      36.857 -25.157 -14.898  0.00  0.00    +0.210 C 
ATOM      6  C   UNL     1      36.691 -23.781 -12.362  0.00  0.00    +0.177 C 
ATOM      7  C   UNL     1      35.974 -23.933 -14.647  0.00  0.00    +0.318 C 
BRANCH   3   8
ATOM      8  O   UNL     1      38.009 -26.988 -13.837  0.00  0.00    -0.379 OA
ATOM      9  H   UNL     1      38.711 -26.671 -14.427  0.00  0.00    +0.211 HD
ENDBRANCH   3   8
BRANCH   4  10
ATOM     10  O   UNL     1      38.920 -24.560 -12.852  0.00  0.00    -0.379 OA
ATOM     11  H   UNL     1      39.573 -25.207 -12.539  0.00  0.00    +0.211 HD
ENDBRANCH   4  10
BRANCH   5  12
ATOM     12  O   UNL     1      36.242 -25.989 -15.875  0.00  0.00    -0.377 OA
ATOM     13  H   UNL     1      36.457 -25.659 -16.762  0.00  0.00    +0.211 HD
ENDBRANCH   5  12
BRANCH   6  14
ATOM     14  C   UNL     1      37.236 -22.761 -11.370  0.00  0.00    +0.169 C 
BRANCH  14  15
ATOM     15  O   UNL     1      38.177 -21.940 -12.037  0.00  0.00    -0.379 OA
ATOM     16  H   UNL     1      39.000 -21.907 -11.524  0.00  0.00    +0.211 HD
ENDBRANCH  14  15
ENDBRANCH   6  14
ENDBRANCH   1   7
BRANCH   1  17
ATOM     17  C   UNL     1      33.653 -23.904 -15.162  0.00  0.00    +0.143 C 
ATOM     18  C   UNL     1      32.334 -23.890 -14.719  0.00  0.00    +0.042 C 
ATOM     19  C   UNL     1      33.970 -23.477 -16.448  0.00  0.00    +0.061 C 
ATOM     20  C   UNL     1      31.322 -23.444 -15.569  0.00  0.00    +0.058 C 
ATOM     21  C   UNL     1      32.958 -23.030 -17.298  0.00  0.00    +0.146 C 
ATOM     22  C   UNL     1      31.634 -23.013 -16.859  0.00  0.00    +0.029 C 
BRANCH  20  25
ATOM     23  O   UNL     1      29.291 -22.367 -15.054  0.00  0.00    -0.270 OA
ATOM     24  N   UNL     1      29.363 -24.639 -14.752  0.00  0.00    -0.325 N 
ATOM     25  C   UNL     1      29.942 -23.425 -15.110  0.00  0.00    +0.243 C 
ATOM     26  H   UNL     1      28.430 -24.666 -14.438  0.00  0.00    +0.145 HD
ATOM     27  H   UNL     1      29.886 -25.471 -14.813  0.00  0.00    +0.145 HD
ENDBRANCH  20  25
BRANCH  21  30
ATOM     28  O   UNL     1      34.008 -23.315 -19.332  0.00  0.00    -0.126 OA
ATOM     29  O   UNL     1      32.819 -21.497 -19.014  0.00  0.00    -0.126 OA
ATOM     30  N   UNL     1      33.277 -22.592 -18.611  0.00  0.00    +0.058 N 
ENDBRANCH  21  30
ENDBRANCH   1  17
TORSDOF 9
ENDMDL
MODEL 5
REMARK VINA RESULT:      -9.2      1.348      3.882
REMARK  Name = 446958
REMARK  9 active torsions:
REMARK  status: ('A' for Active; 'I' for Inactive)
REMARK    1  A    between atoms: O_1  and  C_7
REMARK    2  A    between atoms: O_1  and  C_17
REMARK    3  A    between atoms: C_3  and  O_8
REMARK    4  A    between atoms: C_4  and  O_10
REMARK    5  A    between atoms: C_5  and  O_12
REMARK    6  A    between atoms: C_6  and  C_14
REMARK    7  A    between atoms: C_14  and  O_15
REMARK    8  A    between atoms: C_20  and  C_25
REMARK    9  A    between atoms: C_21  and  N_30
REMARK                            x       y       z     vdW  Elec       q    Type
REMARK                         _______ _______ _______ _____ _____    ______ ____
ROOT
ATOM      1  O   UNL     1      34.711 -24.379 -14.348  0.00  0.00    -0.451 OA
ENDROOT
BRANCH   1   7
ATOM      2  O   UNL     1      36.575 -23.138 -13.581  0.00  0.00    -0.316 OA
ATOM      3  C   UNL     1      37.127 -25.962 -13.543  0.00  0.00    +0.173 C 
ATOM      4  C   UNL     1      37.615 -25.028 -12.432  0.00  0.00    +0.169 C 
ATOM      5  C   UNL     1      36.945 -25.184 -14.846  0.00  0.00    +0.210 C 
ATOM      6  C   UNL     1      36.689 -23.810 -12.317  0.00  0.00    +0.177 C 
ATOM      7  C   UNL     1      36.047 -23.964 -14.624  0.00  0.00    +0.318 C 
BRANCH   3   8
ATOM      8  O   UNL     1      38.072 -27.009 -13.749  0.00  0.00    -0.379 OA
ATOM      9  H   UNL     1      37.808 -27.534 -14.521  0.00  0.00    +0.211 HD
ENDBRANCH   3   8
BRANCH   4  10
ATOM     10  O   UNL     1      38.937 -24.576 -12.734  0.00  0.00    -0.379 OA
ATOM     11  H   UNL     1      39.426 -25.284 -13.185  0.00  0.00    +0.211 HD
ENDBRANCH   4  10
BRANCH   5  12
ATOM     12  O   UNL     1      36.366 -26.018 -15.843  0.00  0.00    -0.377 OA
ATOM     13  H   UNL     1      36.746 -26.909 -15.780  0.00  0.00    +0.211 HD
ENDBRANCH   5  12
BRANCH   6  14
ATOM     14  C   UNL     1      37.197 -22.788 -11.307  0.00  0.00    +0.169 C 
BRANCH  14  15
ATOM     15  O   UNL     1      38.144 -21.951 -11.947  0.00  0.00    -0.379 OA
ATOM     16  H   UNL     1      38.065 -22.050 -12.909  0.00  0.00    +0.211 HD
ENDBRANCH  14  15
ENDBRANCH   6  14
ENDBRANCH   1   7
BRANCH   1  17
ATOM     17  C   UNL     1      33.740 -23.923 -15.196  0.00  0.00    +0.143 C 
ATOM     18  C   UNL     1      34.087 -23.460 -16.460  0.00  0.00    +0.042 C 
ATOM     19  C   UNL     1      32.409 -23.924 -14.785  0.00  0.00    +0.061 C 
ATOM     20  C   UNL     1      33.097 -22.996 -17.325  0.00  0.00    +0.058 C 
ATOM     21  C   UNL     1      31.418 -23.460 -15.651  0.00  0.00    +0.146 C 
ATOM     22  C   UNL     1      31.761 -22.996 -16.920  0.00  0.00    +0.029 C 
BRANCH  20  25
ATOM     23  O   UNL     1      34.398 -23.011 -19.289  0.00  0.00    -0.270 OA
ATOM     24  N   UNL     1      32.691 -21.483 -19.191  0.00  0.00    -0.325 N 
ATOM     25  C   UNL     1      33.455 -22.513 -18.650  0.00  0.00    +0.243 C 
ATOM     26  H   UNL     1      32.904 -21.130 -20.086  0.00  0.00    +0.145 HD
ATOM     27  H   UNL     1      31.940 -21.106 -18.680  0.00  0.00    +0.145 HD
ENDBRANCH  20  25
BRANCH  21  30
ATOM     28  O   UNL     1      29.371 -22.426 -15.412  0.00  0.00    -0.126 OA
ATOM     29  O   UNL     1      29.585 -24.495 -14.710  0.00  0.00    -0.126 OA
ATOM     30  N   UNL     1      30.059 -23.460 -15.237  0.00  0.00    +0.058 N 
ENDBRANCH  21  30
ENDBRANCH   1  17
TORSDOF 9
ENDMDL
MODEL 6
REMARK VINA RESULT:      -8.2     10.257     13.642
REMARK  Name = 446958
REMARK  9 active torsions:
REMARK  status: ('A' for Active; 'I' for Inactive)
REMARK    1  A    between atoms: O_1  and  C_7
REMARK    2  A    between atoms: O_1  and  C_17
REMARK    3  A    between atoms: C_3  and  O_8
REMARK    4  A    between atoms: C_4  and  O_10
REMARK    5  A    between atoms: C_5  and  O_12
REMARK    6  A    between atoms: C_6  and  C_14
REMARK    7  A    between atoms: C_14  and  O_15
REMARK    8  A    between atoms: C_20  and  C_25
REMARK    9  A    between atoms: C_21  and  N_30
REMARK                            x       y       z     vdW  Elec       q    Type
REMARK                         _______ _______ _______ _____ _____    ______ ____
ROOT
ATOM      1  O   UNL     1      33.331 -14.922 -23.836  0.00  0.00    -0.451 OA
ENDROOT
BRANCH   1   7
ATOM      2  O   UNL     1      35.264 -15.815 -22.804  0.00  0.00    -0.316 OA
ATOM      3  C   UNL     1      34.095 -17.713 -24.624  0.00  0.00    +0.173 C 
ATOM      4  C   UNL     1      34.689 -18.143 -23.279  0.00  0.00    +0.169 C 
ATOM      5  C   UNL     1      34.756 -16.420 -25.105  0.00  0.00    +0.210 C 
ATOM      6  C   UNL     1      34.621 -16.985 -22.275  0.00  0.00    +0.177 C 
ATOM      7  C   UNL     1      34.681 -15.342 -24.022  0.00  0.00    +0.318 C 
BRANCH   3   8
ATOM      8  O   UNL     1      34.299 -18.734 -25.596  0.00  0.00    -0.379 OA
ATOM      9  H   UNL     1      34.512 -19.568 -25.149  0.00  0.00    +0.211 HD
ENDBRANCH   3   8
BRANCH   4  10
ATOM     10  O   UNL     1      36.056 -18.518 -23.460  0.00  0.00    -0.379 OA
ATOM     11  H   UNL     1      36.463 -18.682 -22.594  0.00  0.00    +0.211 HD
ENDBRANCH   4  10
BRANCH   5  12
ATOM     12  O   UNL     1      34.115 -15.947 -26.285  0.00  0.00    -0.377 OA
ATOM     13  H   UNL     1      34.555 -15.138 -26.589  0.00  0.00    +0.211 HD
ENDBRANCH   5  12
BRANCH   6  14
ATOM     14  C   UNL     1      35.308 -17.320 -20.956  0.00  0.00    +0.169 C 
BRANCH  14  15
ATOM     15  O   UNL     1      35.221 -18.717 -20.743  0.00  0.00    -0.379 OA
ATOM     16  H   UNL     1      35.048 -18.892 -19.804  0.00  0.00    +0.211 HD
ENDBRANCH  14  15
ENDBRANCH   6  14
ENDBRANCH   1   7
BRANCH   1  17
ATOM     17  C   UNL     1      33.140 -13.625 -23.447  0.00  0.00    +0.143 C 
ATOM     18  C   UNL     1      33.796 -12.598 -24.118  0.00  0.00    +0.042 C 
ATOM     19  C   UNL     1      32.290 -13.342 -22.382  0.00  0.00    +0.061 C 
ATOM     20  C   UNL     1      33.601 -11.275 -23.722  0.00  0.00    +0.058 C 
ATOM     21  C   UNL     1      32.094 -12.019 -21.986  0.00  0.00    +0.146 C 
ATOM     22  C   UNL     1      32.749 -10.985 -22.655  0.00  0.00    +0.029 C 
BRANCH  20  25
ATOM     23  O   UNL     1      34.031  -9.005 -24.177  0.00  0.00    -0.270 OA
ATOM     24  N   UNL     1      35.247 -10.546 -25.363  0.00  0.00    -0.325 N 
ATOM     25  C   UNL     1      34.283 -10.198 -24.421  0.00  0.00    +0.243 C 
ATOM     26  H   UNL     1      35.730  -9.843 -25.855  0.00  0.00    +0.145 HD
ATOM     27  H   UNL     1      35.446 -11.494 -25.537  0.00  0.00    +0.145 HD
ENDBRANCH  20  25
BRANCH  21  30
ATOM     28  O   UNL     1      31.639 -11.902 -19.728  0.00  0.00    -0.126 OA
ATOM     29  O   UNL     1      30.073 -11.295 -21.143  0.00  0.00    -0.126 OA
ATOM     30  N   UNL     1      31.226 -11.725 -20.900  0.00  0.00    +0.058 N 
ENDBRANCH  21  30
ENDBRANCH   1  17
TORSDOF 9
ENDMDL
MODEL 7
REMARK VINA RESULT:      -8.1     10.171     13.251
REMARK  Name = 446958
REMARK  9 active torsions:
REMARK  status: ('A' for Active; 'I' for Inactive)
REMARK    1  A    between atoms: O_1  and  C_7
REMARK    2  A    between atoms: O_1  and  C_17
REMARK    3  A    between atoms: C_3  and  O_8
REMARK    4  A    between atoms: C_4  and  O_10
REMARK    5  A    between atoms: C_5  and  O_12
REMARK    6  A    between atoms: C_6  and  C_14
REMARK    7  A    between atoms: C_14  and  O_15
REMARK    8  A    between atoms: C_20  and  C_25
REMARK    9  A    between atoms: C_21  and  N_30
REMARK                            x       y       z     vdW  Elec       q    Type
REMARK                         _______ _______ _______ _____ _____    ______ ____
ROOT
ATOM      1  O   UNL     1      33.366 -15.044 -23.715  0.00  0.00    -0.451 OA
ENDROOT
BRANCH   1   7
ATOM      2  O   UNL     1      35.311 -15.971 -22.736  0.00  0.00    -0.316 OA
ATOM      3  C   UNL     1      34.120 -17.807 -24.606  0.00  0.00    +0.173 C 
ATOM      4  C   UNL     1      34.730 -18.282 -23.283  0.00  0.00    +0.169 C 
ATOM      5  C   UNL     1      34.776 -16.498 -25.050  0.00  0.00    +0.210 C 
ATOM      6  C   UNL     1      34.674 -17.159 -22.239  0.00  0.00    +0.177 C 
ATOM      7  C   UNL     1      34.714 -15.457 -23.930  0.00  0.00    +0.318 C 
BRANCH   3   8
ATOM      8  O   UNL     1      34.313 -18.795 -25.614  0.00  0.00    -0.379 OA
ATOM      9  H   UNL     1      33.670 -19.510 -25.493  0.00  0.00    +0.211 HD
ENDBRANCH   3   8
BRANCH   4  10
ATOM     10  O   UNL     1      36.095 -18.650 -23.493  0.00  0.00    -0.379 OA
ATOM     11  H   UNL     1      36.450 -18.161 -24.252  0.00  0.00    +0.211 HD
ENDBRANCH   4  10
BRANCH   5  12
ATOM     12  O   UNL     1      34.122 -15.986 -26.206  0.00  0.00    -0.377 OA
ATOM     13  H   UNL     1      33.187 -15.822 -26.002  0.00  0.00    +0.211 HD
ENDBRANCH   5  12
BRANCH   6  14
ATOM     14  C   UNL     1      35.377 -17.538 -20.941  0.00  0.00    +0.169 C 
BRANCH  14  15
ATOM     15  O   UNL     1      35.163 -18.916 -20.697  0.00  0.00    -0.379 OA
ATOM     16  H   UNL     1      34.396 -19.028 -20.114  0.00  0.00    +0.211 HD
ENDBRANCH  14  15
ENDBRANCH   6  14
ENDBRANCH   1   7
BRANCH   1  17
ATOM     17  C   UNL     1      33.168 -13.723 -23.423  0.00  0.00    +0.143 C 
ATOM     18  C   UNL     1      32.311 -13.365 -22.389  0.00  0.00    +0.042 C 
ATOM     19  C   UNL     1      33.828 -12.746 -24.164  0.00  0.00    +0.061 C 
ATOM     20  C   UNL     1      32.110 -12.017 -22.090  0.00  0.00    +0.058 C 
ATOM     21  C   UNL     1      33.627 -11.399 -23.865  0.00  0.00    +0.146 C 
ATOM     22  C   UNL     1      32.769 -11.033 -22.828  0.00  0.00    +0.029 C 
BRANCH  20  25
ATOM     23  O   UNL     1      30.046 -11.278 -21.229  0.00  0.00    -0.270 OA
ATOM     24  N   UNL     1      31.707 -11.706 -19.707  0.00  0.00    -0.325 N 
ATOM     25  C   UNL     1      31.215 -11.637 -21.008  0.00  0.00    +0.243 C 
ATOM     26  H   UNL     1      31.129 -11.456 -18.949  0.00  0.00    +0.145 HD
ATOM     27  H   UNL     1      32.630 -12.003 -19.545  0.00  0.00    +0.145 HD
ENDBRANCH  20  25
BRANCH  21  30
ATOM     28  O   UNL     1      34.308  -9.219 -24.188  0.00  0.00    -0.126 OA
ATOM     29  O   UNL     1      34.863 -10.720 -25.690  0.00  0.00    -0.126 OA
ATOM     30  N   UNL     1      34.298 -10.398 -24.618  0.00  0.00    +0.058 N 
ENDBRANCH  21  30
ENDBRANCH   1  17
TORSDOF 9
ENDMDL
MODEL 8
REMARK VINA RESULT:      -8.0      2.750      7.252
REMARK  Name = 446958
REMARK  9 active torsions:
REMARK  status: ('A' for Active; 'I' for Inactive)
REMARK    1  A    between atoms: O_1  and  C_7
REMARK    2  A    between atoms: O_1  and  C_17
REMARK    3  A    between atoms: C_3  and  O_8
REMARK    4  A    between atoms: C_4  and  O_10
REMARK    5  A    between atoms: C_5  and  O_12
REMARK    6  A    between atoms: C_6  and  C_14
REMARK    7  A    between atoms: C_14  and  O_15
REMARK    8  A    between atoms: C_20  and  C_25
REMARK    9  A    between atoms: C_21  and  N_30
REMARK                            x       y       z     vdW  Elec       q    Type
REMARK                         _______ _______ _______ _____ _____    ______ ____
ROOT
ATOM      1  O   UNL     1      34.655 -23.259 -14.943  0.00  0.00    -0.451 OA
ENDROOT
BRANCH   1   7
ATOM      2  O   UNL     1      32.708 -24.558 -14.591  0.00  0.00    -0.316 OA
ATOM      3  C   UNL     1      32.293 -22.616 -16.674  0.00  0.00    +0.173 C 
ATOM      4  C   UNL     1      31.201 -22.953 -15.654  0.00  0.00    +0.169 C 
ATOM      5  C   UNL     1      33.245 -23.801 -16.840  0.00  0.00    +0.210 C 
ATOM      6  C   UNL     1      31.832 -23.446 -14.345  0.00  0.00    +0.177 C 
ATOM      7  C   UNL     1      33.785 -24.253 -15.482  0.00  0.00    +0.318 C 
BRANCH   3   8
ATOM      8  O   UNL     1      31.703 -22.307 -17.934  0.00  0.00    -0.379 OA
ATOM      9  H   UNL     1      31.642 -21.344 -18.034  0.00  0.00    +0.211 HD
ENDBRANCH   3   8
BRANCH   4  10
ATOM     10  O   UNL     1      30.359 -23.982 -16.177  0.00  0.00    -0.379 OA
ATOM     11  H   UNL     1      29.434 -23.786 -15.956  0.00  0.00    +0.211 HD
ENDBRANCH   4  10
BRANCH   5  12
ATOM     12  O   UNL     1      34.333 -23.446 -17.685  0.00  0.00    -0.377 OA
ATOM     13  H   UNL     1      34.259 -22.510 -17.931  0.00  0.00    +0.211 HD
ENDBRANCH   5  12
BRANCH   6  14
ATOM     14  C   UNL     1      30.788 -23.910 -13.336  0.00  0.00    +0.169 C 
BRANCH  14  15
ATOM     15  O   UNL     1      30.482 -25.268 -13.593  0.00  0.00    -0.379 OA
ATOM     16  H   UNL     1      30.340 -25.394 -14.544  0.00  0.00    +0.211 HD
ENDBRANCH  14  15
ENDBRANCH   6  14
ENDBRANCH   1   7
BRANCH   1  17
ATOM     17  C   UNL     1      35.611 -23.692 -14.065  0.00  0.00    +0.143 C 
ATOM     18  C   UNL     1      36.789 -24.253 -14.548  0.00  0.00    +0.042 C 
ATOM     19  C   UNL     1      35.397 -23.569 -12.695  0.00  0.00    +0.061 C 
ATOM     20  C   UNL     1      37.764 -24.693 -13.653  0.00  0.00    +0.058 C 
ATOM     21  C   UNL     1      36.373 -24.009 -11.801  0.00  0.00    +0.146 C 
ATOM     22  C   UNL     1      37.556 -24.571 -12.279  0.00  0.00    +0.029 C 
BRANCH  20  25
ATOM     23  O   UNL     1      39.624 -26.129 -13.497  0.00  0.00    -0.270 OA
ATOM     24  N   UNL     1      39.450 -24.867 -15.403  0.00  0.00    -0.325 N 
ATOM     25  C   UNL     1      38.999 -25.278 -14.152  0.00  0.00    +0.243 C 
ATOM     26  H   UNL     1      40.282 -25.243 -15.774  0.00  0.00    +0.145 HD
ATOM     27  H   UNL     1      38.939 -24.202 -15.917  0.00  0.00    +0.145 HD
ENDBRANCH  20  25
BRANCH  21  30
ATOM     28  O   UNL     1      35.375 -24.681  -9.833  0.00  0.00    -0.126 OA
ATOM     29  O   UNL     1      36.763 -22.981  -9.773  0.00  0.00    -0.126 OA
ATOM     30  N   UNL     1      36.160 -23.884 -10.401  0.00  0.00    +0.058 N 
ENDBRANCH  21  30
ENDBRANCH   1  17
TORSDOF 9
ENDMDL
MODEL 9
REMARK VINA RESULT:      -7.9      1.861      2.371
REMARK  Name = 446958
REMARK  9 active torsions:
REMARK  status: ('A' for Active; 'I' for Inactive)
REMARK    1  A    between atoms: O_1  and  C_7
REMARK    2  A    between atoms: O_1  and  C_17
REMARK    3  A    between atoms: C_3  and  O_8
REMARK    4  A    between atoms: C_4  and  O_10
REMARK    5  A    between atoms: C_5  and  O_12
REMARK    6  A    between atoms: C_6  and  C_14
REMARK    7  A    between atoms: C_14  and  O_15
REMARK    8  A    between atoms: C_20  and  C_25
REMARK    9  A    between atoms: C_21  and  N_30
REMARK                            x       y       z     vdW  Elec       q    Type
REMARK                         _______ _______ _______ _____ _____    ______ ____
ROOT
ATOM      1  O   UNL     1      36.888 -23.182 -15.149  0.00  0.00    -0.451 OA
ENDROOT
BRANCH   1   7
ATOM      2  O   UNL     1      37.607 -25.421 -14.878  0.00  0.00    -0.316 OA
ATOM      3  C   UNL     1      37.675 -24.003 -12.374  0.00  0.00    +0.173 C 
ATOM      4  C   UNL     1      38.765 -25.005 -12.765  0.00  0.00    +0.169 C 
ATOM      5  C   UNL     1      36.364 -24.344 -13.085  0.00  0.00    +0.210 C 
ATOM      6  C   UNL     1      38.878 -25.097 -14.293  0.00  0.00    +0.177 C 
ATOM      7  C   UNL     1      36.584 -24.461 -14.595  0.00  0.00    +0.318 C 
BRANCH   3   8
ATOM      8  O   UNL     1      37.467 -24.035 -10.965  0.00  0.00    -0.379 OA
ATOM      9  H   UNL     1      37.324 -23.133 -10.639  0.00  0.00    +0.211 HD
ENDBRANCH   3   8
BRANCH   4  10
ATOM     10  O   UNL     1      38.435 -26.296 -12.248  0.00  0.00    -0.379 OA
ATOM     11  H   UNL     1      39.242 -26.832 -12.178  0.00  0.00    +0.211 HD
ENDBRANCH   4  10
BRANCH   5  12
ATOM     12  O   UNL     1      35.388 -23.341 -12.828  0.00  0.00    -0.377 OA
ATOM     13  H   UNL     1      35.831 -22.497 -12.646  0.00  0.00    +0.211 HD
ENDBRANCH   5  12
BRANCH   6  14
ATOM     14  C   UNL     1      39.866 -26.169 -14.739  0.00  0.00    +0.169 C 
BRANCH  14  15
ATOM     15  O   UNL     1      40.919 -26.235 -13.793  0.00  0.00    -0.379 OA
ATOM     16  H   UNL     1      41.663 -25.691 -14.098  0.00  0.00    +0.211 HD
ENDBRANCH  14  15
ENDBRANCH   6  14
ENDBRANCH   1   7
BRANCH   1  17
ATOM     17  C   UNL     1      36.148 -22.792 -16.231  0.00  0.00    +0.143 C 
ATOM     18  C   UNL     1      34.777 -23.025 -16.251  0.00  0.00    +0.042 C 
ATOM     19  C   UNL     1      36.774 -22.165 -17.305  0.00  0.00    +0.061 C 
ATOM     20  C   UNL     1      34.022 -22.626 -17.354  0.00  0.00    +0.058 C 
ATOM     21  C   UNL     1      36.019 -21.766 -18.408  0.00  0.00    +0.146 C 
ATOM     22  C   UNL     1      34.644 -21.995 -18.433  0.00  0.00    +0.029 C 
BRANCH  20  25
ATOM     23  O   UNL     1      31.856 -22.327 -18.229  0.00  0.00    -0.270 OA
ATOM     24  N   UNL     1      32.060 -23.736 -16.431  0.00  0.00    -0.325 N 
ATOM     25  C   UNL     1      32.588 -22.865 -17.380  0.00  0.00    +0.243 C 
ATOM     26  H   UNL     1      31.093 -23.923 -16.418  0.00  0.00    +0.145 HD
ATOM     27  H   UNL     1      32.653 -24.165 -15.773  0.00  0.00    +0.145 HD
ENDBRANCH  20  25
BRANCH  21  30
ATOM     28  O   UNL     1      36.692 -19.870 -19.536  0.00  0.00    -0.126 OA
ATOM     29  O   UNL     1      37.156 -21.828 -20.413  0.00  0.00    -0.126 OA
ATOM     30  N   UNL     1      36.653 -21.124 -19.506  0.00  0.00    +0.058 N 
ENDBRANCH  21  30
ENDBRANCH   1  17
TORSDOF 9
ENDMDL
