MODEL 1
REMARK VINA RESULT:      -4.9      0.000      0.000
REMARK  Name = 964
REMARK  4 active torsions:
REMARK  status: ('A' for Active; 'I' for Inactive)
REMARK    1  A    between atoms: C_2  and  C_4
REMARK    2  A    between atoms: C_2  and  C_7
REMARK    3  A    between atoms: C_4  and  O_5
REMARK    4  A    between atoms: C_7  and  O_8
REMARK                            x       y       z     vdW  Elec       q    Type
REMARK                         _______ _______ _______ _____ _____    ______ ____
ROOT
ATOM      1  O   UNL     1      38.375 -26.896 -14.469  0.00  0.00    -0.282 OA
ATOM      2  C   UNL     1      38.715 -25.749 -14.721  0.00  0.00    +0.277 C 
ENDROOT
BRANCH   2   4
ATOM      3  O   UNL     1      40.843 -24.861 -14.134  0.00  0.00    -0.242 OA
ATOM      4  C   UNL     1      40.179 -25.491 -14.931  0.00  0.00    +0.376 C 
BRANCH   4   5
ATOM      5  O   UNL     1      40.569 -25.999 -16.107  0.00  0.00    -0.475 OA
ATOM      6  H   UNL     1      41.326 -25.654 -16.539  0.00  0.00    +0.296 HD
ENDBRANCH   4   5
ENDBRANCH   2   4
BRANCH   2   7
ATOM      7  C   UNL     1      37.789 -24.570 -14.866  0.00  0.00    +0.214 C 
BRANCH   7   8
ATOM      8  O   UNL     1      38.414 -23.562 -15.636  0.00  0.00    -0.375 OA
ATOM      9  H   UNL     1      37.910 -23.419 -16.452  0.00  0.00    +0.211 HD
ENDBRANCH   7   8
ENDBRANCH   2   7
TORSDOF 4
ENDMDL
MODEL 2
REMARK VINA RESULT:      -4.8      1.536      1.861
REMARK  Name = 964
REMARK  4 active torsions:
REMARK  status: ('A' for Active; 'I' for Inactive)
REMARK    1  A    between atoms: C_2  and  C_4
REMARK    2  A    between atoms: C_2  and  C_7
REMARK    3  A    between atoms: C_4  and  O_5
REMARK    4  A    between atoms: C_7  and  O_8
REMARK                            x       y       z     vdW  Elec       q    Type
REMARK                         _______ _______ _______ _____ _____    ______ ____
ROOT
ATOM      1  O   UNL     1      39.203 -24.557 -13.430  0.00  0.00    -0.282 OA
ATOM      2  C   UNL     1      39.110 -25.572 -14.104  0.00  0.00    +0.277 C 
ENDROOT
BRANCH   2   4
ATOM      3  O   UNL     1      41.239 -26.635 -14.094  0.00  0.00    -0.242 OA
ATOM      4  C   UNL     1      40.364 -26.098 -14.741  0.00  0.00    +0.376 C 
BRANCH   4   5
ATOM      5  O   UNL     1      40.359 -25.828 -16.052  0.00  0.00    -0.475 OA
ATOM      6  H   UNL     1      41.015 -26.197 -16.610  0.00  0.00    +0.296 HD
ENDBRANCH   4   5
ENDBRANCH   2   4
BRANCH   2   7
ATOM      7  C   UNL     1      37.848 -26.361 -14.334  0.00  0.00    +0.214 C 
BRANCH   7   8
ATOM      8  O   UNL     1      37.598 -26.470 -15.721  0.00  0.00    -0.375 OA
ATOM      9  H   UNL     1      38.394 -26.214 -16.215  0.00  0.00    +0.211 HD
ENDBRANCH   7   8
ENDBRANCH   2   7
TORSDOF 4
ENDMDL
MODEL 3
REMARK VINA RESULT:      -4.6      1.356      2.861
REMARK  Name = 964
REMARK  4 active torsions:
REMARK  status: ('A' for Active; 'I' for Inactive)
REMARK    1  A    between atoms: C_2  and  C_4
REMARK    2  A    between atoms: C_2  and  C_7
REMARK    3  A    between atoms: C_4  and  O_5
REMARK    4  A    between atoms: C_7  and  O_8
REMARK                            x       y       z     vdW  Elec       q    Type
REMARK                         _______ _______ _______ _____ _____    ______ ____
ROOT
ATOM      1  O   UNL     1      38.830 -24.541 -13.196  0.00  0.00    -0.282 OA
ATOM      2  C   UNL     1      39.123 -25.259 -14.141  0.00  0.00    +0.277 C 
ENDROOT
BRANCH   2   4
ATOM      3  O   UNL     1      37.955 -27.277 -14.617  0.00  0.00    -0.242 OA
ATOM      4  C   UNL     1      38.023 -26.073 -14.759  0.00  0.00    +0.376 C 
BRANCH   4   5
ATOM      5  O   UNL     1      37.227 -25.285 -15.491  0.00  0.00    -0.475 OA
ATOM      6  H   UNL     1      36.669 -24.661 -15.070  0.00  0.00    +0.296 HD
ENDBRANCH   4   5
ENDBRANCH   2   4
BRANCH   2   7
ATOM      7  C   UNL     1      40.490 -25.381 -14.760  0.00  0.00    +0.214 C 
BRANCH   7   8
ATOM      8  O   UNL     1      40.381 -25.944 -16.052  0.00  0.00    -0.375 OA
ATOM      9  H   UNL     1      39.779 -25.406 -16.590  0.00  0.00    +0.211 HD
ENDBRANCH   7   8
ENDBRANCH   2   7
TORSDOF 4
ENDMDL
MODEL 4
REMARK VINA RESULT:      -4.5      2.368      3.748
REMARK  Name = 964
REMARK  4 active torsions:
REMARK  status: ('A' for Active; 'I' for Inactive)
REMARK    1  A    between atoms: C_2  and  C_4
REMARK    2  A    between atoms: C_2  and  C_7
REMARK    3  A    between atoms: C_4  and  O_5
REMARK    4  A    between atoms: C_7  and  O_8
REMARK                            x       y       z     vdW  Elec       q    Type
REMARK                         _______ _______ _______ _____ _____    ______ ____
ROOT
ATOM      1  O   UNL     1      38.881 -26.924 -14.655  0.00  0.00    -0.282 OA
ATOM      2  C   UNL     1      37.807 -26.453 -14.309  0.00  0.00    +0.277 C 
ENDROOT
BRANCH   2   4
ATOM      3  O   UNL     1      36.711 -27.334 -16.228  0.00  0.00    -0.242 OA
ATOM      4  C   UNL     1      36.635 -26.653 -15.226  0.00  0.00    +0.376 C 
BRANCH   4   5
ATOM      5  O   UNL     1      35.588 -25.941 -14.792  0.00  0.00    -0.475 OA
ATOM      6  H   UNL     1      35.118 -25.388 -15.386  0.00  0.00    +0.296 HD
ENDBRANCH   4   5
ENDBRANCH   2   4
BRANCH   2   7
ATOM      7  C   UNL     1      37.546 -25.708 -13.026  0.00  0.00    +0.214 C 
BRANCH   7   8
ATOM      8  O   UNL     1      36.850 -26.542 -12.121  0.00  0.00    -0.375 OA
ATOM      9  H   UNL     1      37.380 -27.333 -11.937  0.00  0.00    +0.211 HD
ENDBRANCH   7   8
ENDBRANCH   2   7
TORSDOF 4
ENDMDL
MODEL 5
REMARK VINA RESULT:      -4.5      4.181      5.475
REMARK  Name = 964
REMARK  4 active torsions:
REMARK  status: ('A' for Active; 'I' for Inactive)
REMARK    1  A    between atoms: C_2  and  C_4
REMARK    2  A    between atoms: C_2  and  C_7
REMARK    3  A    between atoms: C_4  and  O_5
REMARK    4  A    between atoms: C_7  and  O_8
REMARK                            x       y       z     vdW  Elec       q    Type
REMARK                         _______ _______ _______ _____ _____    ______ ____
ROOT
ATOM      1  O   UNL     1      37.562 -23.021 -11.249  0.00  0.00    -0.282 OA
ATOM      2  C   UNL     1      37.027 -24.071 -11.574  0.00  0.00    +0.277 C 
ENDROOT
BRANCH   2   4
ATOM      3  O   UNL     1      35.287 -24.994 -10.240  0.00  0.00    -0.242 OA
ATOM      4  C   UNL     1      35.597 -24.275 -11.167  0.00  0.00    +0.376 C 
BRANCH   4   5
ATOM      5  O   UNL     1      34.785 -23.609 -11.998  0.00  0.00    -0.475 OA
ATOM      6  H   UNL     1      35.144 -23.127 -12.718  0.00  0.00    +0.296 HD
ENDBRANCH   4   5
ENDBRANCH   2   4
BRANCH   2   7
ATOM      7  C   UNL     1      37.670 -25.174 -12.373  0.00  0.00    +0.214 C 
BRANCH   7   8
ATOM      8  O   UNL     1      37.089 -26.416 -12.028  0.00  0.00    -0.375 OA
ATOM      9  H   UNL     1      36.521 -26.720 -12.753  0.00  0.00    +0.211 HD
ENDBRANCH   7   8
ENDBRANCH   2   7
TORSDOF 4
ENDMDL
MODEL 6
REMARK VINA RESULT:      -4.4      9.780     10.825
REMARK  Name = 964
REMARK  4 active torsions:
REMARK  status: ('A' for Active; 'I' for Inactive)
REMARK    1  A    between atoms: C_2  and  C_4
REMARK    2  A    between atoms: C_2  and  C_7
REMARK    3  A    between atoms: C_4  and  O_5
REMARK    4  A    between atoms: C_7  and  O_8
REMARK                            x       y       z     vdW  Elec       q    Type
REMARK                         _______ _______ _______ _____ _____    ______ ____
ROOT
ATOM      1  O   UNL     1      41.084 -14.819 -17.791  0.00  0.00    -0.282 OA
ATOM      2  C   UNL     1      41.362 -14.674 -16.609  0.00  0.00    +0.277 C 
ENDROOT
BRANCH   2   4
ATOM      3  O   UNL     1      42.276 -16.646 -15.639  0.00  0.00    -0.242 OA
ATOM      4  C   UNL     1      41.327 -15.895 -15.735  0.00  0.00    +0.376 C 
BRANCH   4   5
ATOM      5  O   UNL     1      40.120 -16.019 -15.170  0.00  0.00    -0.475 OA
ATOM      6  H   UNL     1      39.721 -15.283 -14.747  0.00  0.00    +0.296 HD
ENDBRANCH   4   5
ENDBRANCH   2   4
BRANCH   2   7
ATOM      7  C   UNL     1      41.761 -13.379 -15.952  0.00  0.00    +0.214 C 
BRANCH   7   8
ATOM      8  O   UNL     1      41.162 -13.286 -14.675  0.00  0.00    -0.375 OA
ATOM      9  H   UNL     1      41.115 -14.168 -14.274  0.00  0.00    +0.211 HD
ENDBRANCH   7   8
ENDBRANCH   2   7
TORSDOF 4
ENDMDL
MODEL 7
REMARK VINA RESULT:      -4.4      4.047      4.955
REMARK  Name = 964
REMARK  4 active torsions:
REMARK  status: ('A' for Active; 'I' for Inactive)
REMARK    1  A    between atoms: C_2  and  C_4
REMARK    2  A    between atoms: C_2  and  C_7
REMARK    3  A    between atoms: C_4  and  O_5
REMARK    4  A    between atoms: C_7  and  O_8
REMARK                            x       y       z     vdW  Elec       q    Type
REMARK                         _______ _______ _______ _____ _____    ______ ____
ROOT
ATOM      1  O   UNL     1      37.176 -26.262 -12.040  0.00  0.00    -0.282 OA
ATOM      2  C   UNL     1      36.986 -25.058 -11.940  0.00  0.00    +0.277 C 
ENDROOT
BRANCH   2   4
ATOM      3  O   UNL     1      36.034 -24.116  -9.973  0.00  0.00    -0.242 OA
ATOM      4  C   UNL     1      35.850 -24.607 -11.068  0.00  0.00    +0.376 C 
BRANCH   4   5
ATOM      5  O   UNL     1      34.681 -24.884 -11.659  0.00  0.00    -0.475 OA
ATOM      6  H   UNL     1      34.472 -24.499 -12.488  0.00  0.00    +0.296 HD
ENDBRANCH   4   5
ENDBRANCH   2   4
BRANCH   2   7
ATOM      7  C   UNL     1      37.808 -23.981 -12.597  0.00  0.00    +0.214 C 
BRANCH   7   8
ATOM      8  O   UNL     1      38.459 -23.207 -11.609  0.00  0.00    -0.375 OA
ATOM      9  H   UNL     1      39.302 -22.877 -11.960  0.00  0.00    +0.211 HD
ENDBRANCH   7   8
ENDBRANCH   2   7
TORSDOF 4
ENDMDL
MODEL 8
REMARK VINA RESULT:      -4.4     11.167     12.691
REMARK  Name = 964
REMARK  4 active torsions:
REMARK  status: ('A' for Active; 'I' for Inactive)
REMARK    1  A    between atoms: C_2  and  C_4
REMARK    2  A    between atoms: C_2  and  C_7
REMARK    3  A    between atoms: C_4  and  O_5
REMARK    4  A    between atoms: C_7  and  O_8
REMARK                            x       y       z     vdW  Elec       q    Type
REMARK                         _______ _______ _______ _____ _____    ______ ____
ROOT
ATOM      1  O   UNL     1      26.305 -22.098 -15.269  0.00  0.00    -0.282 OA
ATOM      2  C   UNL     1      27.183 -22.192 -16.115  0.00  0.00    +0.277 C 
ENDROOT
BRANCH   2   4
ATOM      3  O   UNL     1      26.378 -20.779 -17.852  0.00  0.00    -0.242 OA
ATOM      4  C   UNL     1      26.815 -21.866 -17.534  0.00  0.00    +0.376 C 
BRANCH   4   5
ATOM      5  O   UNL     1      26.992 -22.942 -18.311  0.00  0.00    -0.475 OA
ATOM      6  H   UNL     1      26.324 -23.598 -18.363  0.00  0.00    +0.296 HD
ENDBRANCH   4   5
ENDBRANCH   2   4
BRANCH   2   7
ATOM      7  C   UNL     1      28.613 -22.585 -15.857  0.00  0.00    +0.214 C 
BRANCH   7   8
ATOM      8  O   UNL     1      29.399 -22.307 -16.999  0.00  0.00    -0.375 OA
ATOM      9  H   UNL     1      28.872 -21.807 -17.641  0.00  0.00    +0.211 HD
ENDBRANCH   7   8
ENDBRANCH   2   7
TORSDOF 4
ENDMDL
MODEL 9
REMARK VINA RESULT:      -4.3      1.869      2.807
REMARK  Name = 964
REMARK  4 active torsions:
REMARK  status: ('A' for Active; 'I' for Inactive)
REMARK    1  A    between atoms: C_2  and  C_4
REMARK    2  A    between atoms: C_2  and  C_7
REMARK    3  A    between atoms: C_4  and  O_5
REMARK    4  A    between atoms: C_7  and  O_8
REMARK                            x       y       z     vdW  Elec       q    Type
REMARK                         _______ _______ _______ _____ _____    ______ ____
ROOT
ATOM      1  O   UNL     1      35.623 -25.069 -15.477  0.00  0.00    -0.282 OA
ATOM      2  C   UNL     1      36.775 -25.264 -15.119  0.00  0.00    +0.277 C 
ENDROOT
BRANCH   2   4
ATOM      3  O   UNL     1      38.176 -27.087 -14.504  0.00  0.00    -0.242 OA
ATOM      4  C   UNL     1      37.311 -26.661 -15.242  0.00  0.00    +0.376 C 
BRANCH   4   5
ATOM      5  O   UNL     1      36.738 -27.281 -16.281  0.00  0.00    -0.475 OA
ATOM      6  H   UNL     1      36.039 -26.866 -16.748  0.00  0.00    +0.296 HD
ENDBRANCH   4   5
ENDBRANCH   2   4
BRANCH   2   7
ATOM      7  C   UNL     1      37.719 -24.218 -14.587  0.00  0.00    +0.214 C 
BRANCH   7   8
ATOM      8  O   UNL     1      38.879 -24.164 -15.394  0.00  0.00    -0.375 OA
ATOM      9  H   UNL     1      39.137 -25.064 -15.649  0.00  0.00    +0.211 HD
ENDBRANCH   7   8
ENDBRANCH   2   7
TORSDOF 4
ENDMDL
