MODEL 1
REMARK VINA RESULT:      -7.1      0.000      0.000
REMARK  Name = 447084
REMARK  10 active torsions:
REMARK  status: ('A' for Active; 'I' for Inactive)
REMARK    1  A    between atoms: C_2  and  O_7
REMARK    2  A    between atoms: C_3  and  O_9
REMARK    3  A    between atoms: C_4  and  O_11
REMARK    4  A    between atoms: C_5  and  C_19
REMARK    5  A    between atoms: C_6  and  O_13
REMARK    6  A    between atoms: O_13  and  C_14
REMARK    7  A    between atoms: C_14  and  C_15
REMARK    8  A    between atoms: C_15  and  C_16
REMARK    9  A    between atoms: C_16  and  C_17
REMARK   10  A    between atoms: C_19  and  O_20
REMARK                            x       y       z     vdW  Elec       q    Type
REMARK                         _______ _______ _______ _____ _____    ______ ____
ROOT
ATOM      1  O   UNL     1      36.444 -23.430 -13.540  0.00  0.00    -0.326 OA
ATOM      2  C   UNL     1      37.475 -26.003 -14.302  0.00  0.00    +0.172 C 
ATOM      3  C   UNL     1      37.269 -25.622 -12.835  0.00  0.00    +0.169 C 
ATOM      4  C   UNL     1      37.684 -24.755 -15.163  0.00  0.00    +0.196 C 
ATOM      5  C   UNL     1      36.165 -24.563 -12.715  0.00  0.00    +0.176 C 
ATOM      6  C   UNL     1      36.568 -23.737 -14.933  0.00  0.00    +0.266 C 
ENDROOT
BRANCH   2   7
ATOM      7  O   UNL     1      38.611 -26.852 -14.441  0.00  0.00    -0.379 OA
ATOM      8  H   UNL     1      39.085 -26.626 -15.256  0.00  0.00    +0.211 HD
ENDBRANCH   2   7
BRANCH   3   9
ATOM      9  O   UNL     1      36.885 -26.775 -12.092  0.00  0.00    -0.379 OA
ATOM     10  H   UNL     1      36.085 -26.579 -11.580  0.00  0.00    +0.211 HD
ENDBRANCH   3   9
BRANCH   4  11
ATOM     11  O   UNL     1      38.921 -24.128 -14.820  0.00  0.00    -0.378 OA
ATOM     12  H   UNL     1      38.798 -23.166 -14.789  0.00  0.00    +0.211 HD
ENDBRANCH   4  11
BRANCH   6  13
ATOM     13  O   UNL     1      35.352 -24.220 -15.493  0.00  0.00    -0.329 OA
BRANCH  13  14
ATOM     14  C   UNL     1      34.366 -23.201 -15.552  0.00  0.00    +0.145 C 
BRANCH  14  15
ATOM     15  C   UNL     1      33.557 -23.372 -16.830  0.00  0.00    +0.032 C 
BRANCH  15  16
ATOM     16  C   UNL     1      32.060 -23.212 -16.575  0.00  0.00    +0.003 C 
BRANCH  16  17
ATOM     17  C   UNL     1      31.764 -23.049 -15.084  0.00  0.00    +0.000 C 
ATOM     18  C   UNL     1      30.270 -22.958 -14.820  0.00  0.00    +0.000 C 
ENDBRANCH  16  17
ENDBRANCH  15  16
ENDBRANCH  14  15
ENDBRANCH  13  14
ENDBRANCH   6  13
BRANCH   5  19
ATOM     19  C   UNL     1      36.027 -24.059 -11.281  0.00  0.00    +0.169 C 
BRANCH  19  20
ATOM     20  O   UNL     1      35.310 -25.023 -10.533  0.00  0.00    -0.379 OA
ATOM     21  H   UNL     1      35.226 -25.838 -11.052  0.00  0.00    +0.211 HD
ENDBRANCH  19  20
ENDBRANCH   5  19
TORSDOF 10
ENDMDL
MODEL 2
REMARK VINA RESULT:      -7.1      1.976      2.664
REMARK  Name = 447084
REMARK  10 active torsions:
REMARK  status: ('A' for Active; 'I' for Inactive)
REMARK    1  A    between atoms: C_2  and  O_7
REMARK    2  A    between atoms: C_3  and  O_9
REMARK    3  A    between atoms: C_4  and  O_11
REMARK    4  A    between atoms: C_5  and  C_19
REMARK    5  A    between atoms: C_6  and  O_13
REMARK    6  A    between atoms: O_13  and  C_14
REMARK    7  A    between atoms: C_14  and  C_15
REMARK    8  A    between atoms: C_15  and  C_16
REMARK    9  A    between atoms: C_16  and  C_17
REMARK   10  A    between atoms: C_19  and  O_20
REMARK                            x       y       z     vdW  Elec       q    Type
REMARK                         _______ _______ _______ _____ _____    ______ ____
ROOT
ATOM      1  O   UNL     1      36.924 -23.390 -13.628  0.00  0.00    -0.326 OA
ATOM      2  C   UNL     1      37.734 -26.027 -14.437  0.00  0.00    +0.172 C 
ATOM      3  C   UNL     1      37.407 -25.698 -12.980  0.00  0.00    +0.169 C 
ATOM      4  C   UNL     1      38.182 -24.771 -15.188  0.00  0.00    +0.196 C 
ATOM      5  C   UNL     1      36.424 -24.522 -12.912  0.00  0.00    +0.176 C 
ATOM      6  C   UNL     1      37.171 -23.639 -15.016  0.00  0.00    +0.266 C 
ENDROOT
BRANCH   2   7
ATOM      7  O   UNL     1      38.774 -26.998 -14.506  0.00  0.00    -0.379 OA
ATOM      8  H   UNL     1      38.731 -27.573 -13.726  0.00  0.00    +0.211 HD
ENDBRANCH   2   7
BRANCH   3   9
ATOM      9  O   UNL     1      36.810 -26.833 -12.358  0.00  0.00    -0.379 OA
ATOM     10  H   UNL     1      36.853 -26.734 -11.393  0.00  0.00    +0.211 HD
ENDBRANCH   3   9
BRANCH   4  11
ATOM     11  O   UNL     1      39.435 -24.316 -14.674  0.00  0.00    -0.378 OA
ATOM     12  H   UNL     1      39.541 -23.371 -14.870  0.00  0.00    +0.211 HD
ENDBRANCH   4  11
BRANCH   6  13
ATOM     13  O   UNL     1      35.980 -23.943 -15.734  0.00  0.00    -0.329 OA
BRANCH  13  14
ATOM     14  C   UNL     1      35.494 -22.809 -16.436  0.00  0.00    +0.145 C 
BRANCH  14  15
ATOM     15  C   UNL     1      36.679 -21.975 -16.906  0.00  0.00    +0.032 C 
BRANCH  15  16
ATOM     16  C   UNL     1      36.586 -21.653 -18.395  0.00  0.00    +0.003 C 
BRANCH  16  17
ATOM     17  C   UNL     1      35.187 -21.940 -18.940  0.00  0.00    +0.000 C 
ATOM     18  C   UNL     1      34.742 -20.870 -19.924  0.00  0.00    +0.000 C 
ENDBRANCH  16  17
ENDBRANCH  15  16
ENDBRANCH  14  15
ENDBRANCH  13  14
ENDBRANCH   6  13
BRANCH   5  19
ATOM     19  C   UNL     1      36.181 -24.078 -11.472  0.00  0.00    +0.169 C 
BRANCH  19  20
ATOM     20  O   UNL     1      35.327 -25.019 -10.849  0.00  0.00    -0.379 OA
ATOM     21  H   UNL     1      34.412 -24.862 -11.132  0.00  0.00    +0.211 HD
ENDBRANCH  19  20
ENDBRANCH   5  19
TORSDOF 10
ENDMDL
MODEL 3
REMARK VINA RESULT:      -6.9      1.737      3.699
REMARK  Name = 447084
REMARK  10 active torsions:
REMARK  status: ('A' for Active; 'I' for Inactive)
REMARK    1  A    between atoms: C_2  and  O_7
REMARK    2  A    between atoms: C_3  and  O_9
REMARK    3  A    between atoms: C_4  and  O_11
REMARK    4  A    between atoms: C_5  and  C_19
REMARK    5  A    between atoms: C_6  and  O_13
REMARK    6  A    between atoms: O_13  and  C_14
REMARK    7  A    between atoms: C_14  and  C_15
REMARK    8  A    between atoms: C_15  and  C_16
REMARK    9  A    between atoms: C_16  and  C_17
REMARK   10  A    between atoms: C_19  and  O_20
REMARK                            x       y       z     vdW  Elec       q    Type
REMARK                         _______ _______ _______ _____ _____    ______ ____
ROOT
ATOM      1  O   UNL     1      35.851 -25.391 -14.153  0.00  0.00    -0.326 OA
ATOM      2  C   UNL     1      36.830 -23.513 -12.209  0.00  0.00    +0.172 C 
ATOM      3  C   UNL     1      37.715 -24.630 -12.764  0.00  0.00    +0.169 C 
ATOM      4  C   UNL     1      35.352 -23.899 -12.295  0.00  0.00    +0.196 C 
ATOM      5  C   UNL     1      37.236 -25.036 -14.164  0.00  0.00    +0.176 C 
ATOM      6  C   UNL     1      34.982 -24.343 -13.710  0.00  0.00    +0.266 C 
ENDROOT
BRANCH   2   7
ATOM      7  O   UNL     1      37.157 -23.251 -10.847  0.00  0.00    -0.379 OA
ATOM      8  H   UNL     1      37.337 -22.304 -10.734  0.00  0.00    +0.211 HD
ENDBRANCH   2   7
BRANCH   3   9
ATOM      9  O   UNL     1      39.062 -24.171 -12.853  0.00  0.00    -0.379 OA
ATOM     10  H   UNL     1      39.226 -23.821 -13.743  0.00  0.00    +0.211 HD
ENDBRANCH   3   9
BRANCH   4  11
ATOM     11  O   UNL     1      35.080 -24.990 -11.413  0.00  0.00    -0.378 OA
ATOM     12  H   UNL     1      35.718 -25.703 -11.576  0.00  0.00    +0.211 HD
ENDBRANCH   4  11
BRANCH   6  13
ATOM     13  O   UNL     1      34.995 -23.220 -14.585  0.00  0.00    -0.329 OA
BRANCH  13  14
ATOM     14  C   UNL     1      33.945 -23.293 -15.538  0.00  0.00    +0.145 C 
BRANCH  14  15
ATOM     15  C   UNL     1      34.512 -22.993 -16.919  0.00  0.00    +0.032 C 
BRANCH  15  16
ATOM     16  C   UNL     1      33.407 -22.843 -17.961  0.00  0.00    +0.003 C 
BRANCH  16  17
ATOM     17  C   UNL     1      33.964 -22.346 -19.295  0.00  0.00    +0.000 C 
ATOM     18  C   UNL     1      33.322 -21.034 -19.713  0.00  0.00    +0.000 C 
ENDBRANCH  16  17
ENDBRANCH  15  16
ENDBRANCH  14  15
ENDBRANCH  13  14
ENDBRANCH   6  13
BRANCH   5  19
ATOM     19  C   UNL     1      38.010 -26.240 -14.693  0.00  0.00    +0.169 C 
BRANCH  19  20
ATOM     20  O   UNL     1      39.141 -25.771 -15.403  0.00  0.00    -0.379 OA
ATOM     21  H   UNL     1      39.732 -26.516 -15.598  0.00  0.00    +0.211 HD
ENDBRANCH  19  20
ENDBRANCH   5  19
TORSDOF 10
ENDMDL
MODEL 4
REMARK VINA RESULT:      -6.8      4.286      6.359
REMARK  Name = 447084
REMARK  10 active torsions:
REMARK  status: ('A' for Active; 'I' for Inactive)
REMARK    1  A    between atoms: C_2  and  O_7
REMARK    2  A    between atoms: C_3  and  O_9
REMARK    3  A    between atoms: C_4  and  O_11
REMARK    4  A    between atoms: C_5  and  C_19
REMARK    5  A    between atoms: C_6  and  O_13
REMARK    6  A    between atoms: O_13  and  C_14
REMARK    7  A    between atoms: C_14  and  C_15
REMARK    8  A    between atoms: C_15  and  C_16
REMARK    9  A    between atoms: C_16  and  C_17
REMARK   10  A    between atoms: C_19  and  O_20
REMARK                            x       y       z     vdW  Elec       q    Type
REMARK                         _______ _______ _______ _____ _____    ______ ____
ROOT
ATOM      1  O   UNL     1      30.649 -22.838 -16.051  0.00  0.00    -0.326 OA
ATOM      2  C   UNL     1      31.867 -24.860 -14.408  0.00  0.00    +0.172 C 
ATOM      3  C   UNL     1      30.349 -24.763 -14.571  0.00  0.00    +0.169 C 
ATOM      4  C   UNL     1      32.525 -23.500 -14.647  0.00  0.00    +0.196 C 
ATOM      5  C   UNL     1      30.003 -24.107 -15.914  0.00  0.00    +0.176 C 
ATOM      6  C   UNL     1      32.077 -22.899 -15.979  0.00  0.00    +0.266 C 
ENDROOT
BRANCH   2   7
ATOM      7  O   UNL     1      32.198 -25.306 -13.096  0.00  0.00    -0.379 OA
ATOM      8  H   UNL     1      33.111 -25.632 -13.087  0.00  0.00    +0.211 HD
ENDBRANCH   2   7
BRANCH   3   9
ATOM      9  O   UNL     1      29.781 -26.070 -14.537  0.00  0.00    -0.379 OA
ATOM     10  H   UNL     1      29.148 -26.129 -13.804  0.00  0.00    +0.211 HD
ENDBRANCH   3   9
BRANCH   4  11
ATOM     11  O   UNL     1      32.150 -22.587 -13.612  0.00  0.00    -0.378 OA
ATOM     12  H   UNL     1      32.580 -21.731 -13.766  0.00  0.00    +0.211 HD
ENDBRANCH   4  11
BRANCH   6  13
ATOM     13  O   UNL     1      32.644 -23.639 -17.055  0.00  0.00    -0.329 OA
BRANCH  13  14
ATOM     14  C   UNL     1      33.794 -22.992 -17.581  0.00  0.00    +0.145 C 
BRANCH  14  15
ATOM     15  C   UNL     1      33.576 -22.735 -19.066  0.00  0.00    +0.032 C 
BRANCH  15  16
ATOM     16  C   UNL     1      34.198 -21.412 -19.506  0.00  0.00    +0.003 C 
BRANCH  16  17
ATOM     17  C   UNL     1      33.176 -20.527 -20.219  0.00  0.00    +0.000 C 
ATOM     18  C   UNL     1      33.852 -19.398 -20.981  0.00  0.00    +0.000 C 
ENDBRANCH  16  17
ENDBRANCH  15  16
ENDBRANCH  14  15
ENDBRANCH  13  14
ENDBRANCH   6  13
BRANCH   5  19
ATOM     19  C   UNL     1      28.502 -23.869 -16.051  0.00  0.00    +0.169 C 
BRANCH  19  20
ATOM     20  O   UNL     1      28.059 -24.473 -17.252  0.00  0.00    -0.379 OA
ATOM     21  H   UNL     1      27.293 -23.985 -17.596  0.00  0.00    +0.211 HD
ENDBRANCH  19  20
ENDBRANCH   5  19
TORSDOF 10
ENDMDL
MODEL 5
REMARK VINA RESULT:      -6.8     10.101     12.683
REMARK  Name = 447084
REMARK  10 active torsions:
REMARK  status: ('A' for Active; 'I' for Inactive)
REMARK    1  A    between atoms: C_2  and  O_7
REMARK    2  A    between atoms: C_3  and  O_9
REMARK    3  A    between atoms: C_4  and  O_11
REMARK    4  A    between atoms: C_5  and  C_19
REMARK    5  A    between atoms: C_6  and  O_13
REMARK    6  A    between atoms: O_13  and  C_14
REMARK    7  A    between atoms: C_14  and  C_15
REMARK    8  A    between atoms: C_15  and  C_16
REMARK    9  A    between atoms: C_16  and  C_17
REMARK   10  A    between atoms: C_19  and  O_20
REMARK                            x       y       z     vdW  Elec       q    Type
REMARK                         _______ _______ _______ _____ _____    ______ ____
ROOT
ATOM      1  O   UNL     1      34.952 -14.854 -23.233  0.00  0.00    -0.326 OA
ATOM      2  C   UNL     1      32.897 -15.106 -21.239  0.00  0.00    +0.172 C 
ATOM      3  C   UNL     1      32.930 -13.928 -22.215  0.00  0.00    +0.169 C 
ATOM      4  C   UNL     1      34.298 -15.685 -21.039  0.00  0.00    +0.196 C 
ATOM      5  C   UNL     1      33.649 -14.335 -23.508  0.00  0.00    +0.176 C 
ATOM      6  C   UNL     1      34.955 -16.005 -22.381  0.00  0.00    +0.266 C 
ENDROOT
BRANCH   2   7
ATOM      7  O   UNL     1      32.388 -14.688 -19.975  0.00  0.00    -0.379 OA
ATOM      8  H   UNL     1      31.612 -15.223 -19.746  0.00  0.00    +0.211 HD
ENDBRANCH   2   7
BRANCH   3   9
ATOM      9  O   UNL     1      31.598 -13.534 -22.532  0.00  0.00    -0.379 OA
ATOM     10  H   UNL     1      31.545 -12.565 -22.558  0.00  0.00    +0.211 HD
ENDBRANCH   3   9
BRANCH   4  11
ATOM     11  O   UNL     1      35.128 -14.736 -20.366  0.00  0.00    -0.378 OA
ATOM     12  H   UNL     1      34.723 -14.499 -19.516  0.00  0.00    +0.211 HD
ENDBRANCH   4  11
BRANCH   6  13
ATOM     13  O   UNL     1      34.310 -17.124 -22.979  0.00  0.00    -0.329 OA
BRANCH  13  14
ATOM     14  C   UNL     1      35.198 -18.222 -23.119  0.00  0.00    +0.145 C 
BRANCH  14  15
ATOM     15  C   UNL     1      34.528 -19.472 -22.564  0.00  0.00    +0.032 C 
BRANCH  15  16
ATOM     16  C   UNL     1      34.373 -19.402 -21.047  0.00  0.00    +0.003 C 
BRANCH  16  17
ATOM     17  C   UNL     1      33.084 -20.083 -20.588  0.00  0.00    +0.000 C 
ATOM     18  C   UNL     1      33.368 -21.217 -19.616  0.00  0.00    +0.000 C 
ENDBRANCH  16  17
ENDBRANCH  15  16
ENDBRANCH  14  15
ENDBRANCH  13  14
ENDBRANCH   6  13
BRANCH   5  19
ATOM     19  C   UNL     1      33.822 -13.147 -24.449  0.00  0.00    +0.169 C 
BRANCH  19  20
ATOM     20  O   UNL     1      34.074 -11.991 -23.673  0.00  0.00    -0.379 OA
ATOM     21  H   UNL     1      33.936 -11.199 -24.218  0.00  0.00    +0.211 HD
ENDBRANCH  19  20
ENDBRANCH   5  19
TORSDOF 10
ENDMDL
MODEL 6
REMARK VINA RESULT:      -6.8      2.461      3.841
REMARK  Name = 447084
REMARK  10 active torsions:
REMARK  status: ('A' for Active; 'I' for Inactive)
REMARK    1  A    between atoms: C_2  and  O_7
REMARK    2  A    between atoms: C_3  and  O_9
REMARK    3  A    between atoms: C_4  and  O_11
REMARK    4  A    between atoms: C_5  and  C_19
REMARK    5  A    between atoms: C_6  and  O_13
REMARK    6  A    between atoms: O_13  and  C_14
REMARK    7  A    between atoms: C_14  and  C_15
REMARK    8  A    between atoms: C_15  and  C_16
REMARK    9  A    between atoms: C_16  and  C_17
REMARK   10  A    between atoms: C_19  and  O_20
REMARK                            x       y       z     vdW  Elec       q    Type
REMARK                         _______ _______ _______ _____ _____    ______ ____
ROOT
ATOM      1  O   UNL     1      37.215 -23.751 -14.123  0.00  0.00    -0.326 OA
ATOM      2  C   UNL     1      34.386 -24.257 -14.075  0.00  0.00    +0.172 C 
ATOM      3  C   UNL     1      35.198 -24.111 -12.787  0.00  0.00    +0.169 C 
ATOM      4  C   UNL     1      35.276 -24.723 -15.228  0.00  0.00    +0.196 C 
ATOM      5  C   UNL     1      36.435 -23.239 -13.039  0.00  0.00    +0.176 C 
ATOM      6  C   UNL     1      36.508 -23.830 -15.365  0.00  0.00    +0.266 C 
ENDROOT
BRANCH   2   7
ATOM      7  O   UNL     1      33.335 -25.202 -13.895  0.00  0.00    -0.379 OA
ATOM      8  H   UNL     1      33.508 -25.985 -14.441  0.00  0.00    +0.211 HD
ENDBRANCH   2   7
BRANCH   3   9
ATOM      9  O   UNL     1      34.396 -23.494 -11.784  0.00  0.00    -0.379 OA
ATOM     10  H   UNL     1      33.465 -23.728 -11.925  0.00  0.00    +0.211 HD
ENDBRANCH   3   9
BRANCH   4  11
ATOM     11  O   UNL     1      35.731 -26.056 -14.985  0.00  0.00    -0.378 OA
ATOM     12  H   UNL     1      35.539 -26.609 -15.760  0.00  0.00    +0.211 HD
ENDBRANCH   4  11
BRANCH   6  13
ATOM     13  O   UNL     1      36.123 -22.550 -15.854  0.00  0.00    -0.329 OA
BRANCH  13  14
ATOM     14  C   UNL     1      37.186 -21.920 -16.553  0.00  0.00    +0.145 C 
BRANCH  14  15
ATOM     15  C   UNL     1      36.752 -21.677 -17.993  0.00  0.00    +0.032 C 
BRANCH  15  16
ATOM     16  C   UNL     1      35.311 -22.121 -18.229  0.00  0.00    +0.003 C 
BRANCH  16  17
ATOM     17  C   UNL     1      34.756 -21.538 -19.529  0.00  0.00    +0.000 C 
ATOM     18  C   UNL     1      35.800 -20.708 -20.258  0.00  0.00    +0.000 C 
ENDBRANCH  16  17
ENDBRANCH  15  16
ENDBRANCH  14  15
ENDBRANCH  13  14
ENDBRANCH   6  13
BRANCH   5  19
ATOM     19  C   UNL     1      37.341 -23.185 -11.813  0.00  0.00    +0.169 C 
BRANCH  19  20
ATOM     20  O   UNL     1      38.112 -21.999 -11.875  0.00  0.00    -0.379 OA
ATOM     21  H   UNL     1      38.675 -21.938 -11.087  0.00  0.00    +0.211 HD
ENDBRANCH  19  20
ENDBRANCH   5  19
TORSDOF 10
ENDMDL
MODEL 7
REMARK VINA RESULT:      -6.8      2.565      3.332
REMARK  Name = 447084
REMARK  10 active torsions:
REMARK  status: ('A' for Active; 'I' for Inactive)
REMARK    1  A    between atoms: C_2  and  O_7
REMARK    2  A    between atoms: C_3  and  O_9
REMARK    3  A    between atoms: C_4  and  O_11
REMARK    4  A    between atoms: C_5  and  C_19
REMARK    5  A    between atoms: C_6  and  O_13
REMARK    6  A    between atoms: O_13  and  C_14
REMARK    7  A    between atoms: C_14  and  C_15
REMARK    8  A    between atoms: C_15  and  C_16
REMARK    9  A    between atoms: C_16  and  C_17
REMARK   10  A    between atoms: C_19  and  O_20
REMARK                            x       y       z     vdW  Elec       q    Type
REMARK                         _______ _______ _______ _____ _____    ______ ____
ROOT
ATOM      1  O   UNL     1      37.980 -23.651 -13.979  0.00  0.00    -0.326 OA
ATOM      2  C   UNL     1      36.716 -26.228 -13.813  0.00  0.00    +0.172 C 
ATOM      3  C   UNL     1      37.020 -25.399 -12.563  0.00  0.00    +0.169 C 
ATOM      4  C   UNL     1      37.670 -25.862 -14.951  0.00  0.00    +0.196 C 
ATOM      5  C   UNL     1      37.058 -23.907 -12.917  0.00  0.00    +0.176 C 
ATOM      6  C   UNL     1      37.684 -24.353 -15.192  0.00  0.00    +0.266 C 
ENDROOT
BRANCH   2   7
ATOM      7  O   UNL     1      36.851 -27.619 -13.531  0.00  0.00    -0.379 OA
ATOM      8  H   UNL     1      37.190 -28.076 -14.316  0.00  0.00    +0.211 HD
ENDBRANCH   2   7
BRANCH   3   9
ATOM      9  O   UNL     1      36.003 -25.616 -11.589  0.00  0.00    -0.379 OA
ATOM     10  H   UNL     1      35.747 -26.552 -11.590  0.00  0.00    +0.211 HD
ENDBRANCH   3   9
BRANCH   4  11
ATOM     11  O   UNL     1      39.002 -26.260 -14.619  0.00  0.00    -0.378 OA
ATOM     12  H   UNL     1      39.375 -25.637 -13.976  0.00  0.00    +0.211 HD
ENDBRANCH   4  11
BRANCH   6  13
ATOM     13  O   UNL     1      36.447 -23.946 -15.767  0.00  0.00    -0.329 OA
BRANCH  13  14
ATOM     14  C   UNL     1      36.366 -22.533 -15.879  0.00  0.00    +0.145 C 
BRANCH  14  15
ATOM     15  C   UNL     1      37.027 -22.104 -17.182  0.00  0.00    +0.032 C 
BRANCH  15  16
ATOM     16  C   UNL     1      36.002 -21.904 -18.295  0.00  0.00    +0.003 C 
BRANCH  16  17
ATOM     17  C   UNL     1      36.509 -20.919 -19.348  0.00  0.00    +0.000 C 
ATOM     18  C   UNL     1      35.441 -20.615 -20.386  0.00  0.00    +0.000 C 
ENDBRANCH  16  17
ENDBRANCH  15  16
ENDBRANCH  14  15
ENDBRANCH  13  14
ENDBRANCH   6  13
BRANCH   5  19
ATOM     19  C   UNL     1      37.492 -23.060 -11.724  0.00  0.00    +0.169 C 
BRANCH  19  20
ATOM     20  O   UNL     1      38.902 -23.121 -11.620  0.00  0.00    -0.379 OA
ATOM     21  H   UNL     1      39.226 -23.916 -12.073  0.00  0.00    +0.211 HD
ENDBRANCH  19  20
ENDBRANCH   5  19
TORSDOF 10
ENDMDL
MODEL 8
REMARK VINA RESULT:      -6.7      1.439      3.233
REMARK  Name = 447084
REMARK  10 active torsions:
REMARK  status: ('A' for Active; 'I' for Inactive)
REMARK    1  A    between atoms: C_2  and  O_7
REMARK    2  A    between atoms: C_3  and  O_9
REMARK    3  A    between atoms: C_4  and  O_11
REMARK    4  A    between atoms: C_5  and  C_19
REMARK    5  A    between atoms: C_6  and  O_13
REMARK    6  A    between atoms: O_13  and  C_14
REMARK    7  A    between atoms: C_14  and  C_15
REMARK    8  A    between atoms: C_15  and  C_16
REMARK    9  A    between atoms: C_16  and  C_17
REMARK   10  A    between atoms: C_19  and  O_20
REMARK                            x       y       z     vdW  Elec       q    Type
REMARK                         _______ _______ _______ _____ _____    ______ ____
ROOT
ATOM      1  O   UNL     1      36.240 -25.292 -14.049  0.00  0.00    -0.326 OA
ATOM      2  C   UNL     1      36.813 -23.393 -11.968  0.00  0.00    +0.172 C 
ATOM      3  C   UNL     1      37.843 -24.433 -12.412  0.00  0.00    +0.169 C 
ATOM      4  C   UNL     1      35.391 -23.879 -12.257  0.00  0.00    +0.196 C 
ATOM      5  C   UNL     1      37.585 -24.841 -13.869  0.00  0.00    +0.176 C 
ATOM      6  C   UNL     1      35.247 -24.317 -13.714  0.00  0.00    +0.266 C 
ENDROOT
BRANCH   2   7
ATOM      7  O   UNL     1      36.935 -23.138 -10.571  0.00  0.00    -0.379 OA
ATOM      8  H   UNL     1      37.772 -23.507 -10.248  0.00  0.00    +0.211 HD
ENDBRANCH   2   7
BRANCH   3   9
ATOM      9  O   UNL     1      39.152 -23.881 -12.313  0.00  0.00    -0.379 OA
ATOM     10  H   UNL     1      39.121 -23.065 -11.788  0.00  0.00    +0.211 HD
ENDBRANCH   3   9
BRANCH   4  11
ATOM     11  O   UNL     1      35.083 -25.005 -11.433  0.00  0.00    -0.378 OA
ATOM     12  H   UNL     1      34.215 -24.875 -11.020  0.00  0.00    +0.211 HD
ENDBRANCH   4  11
BRANCH   6  13
ATOM     13  O   UNL     1      35.296 -23.178 -14.566  0.00  0.00    -0.329 OA
BRANCH  13  14
ATOM     14  C   UNL     1      34.534 -23.379 -15.747  0.00  0.00    +0.145 C 
BRANCH  14  15
ATOM     15  C   UNL     1      33.054 -23.305 -15.397  0.00  0.00    +0.032 C 
BRANCH  15  16
ATOM     16  C   UNL     1      32.181 -23.251 -16.648  0.00  0.00    +0.003 C 
BRANCH  16  17
ATOM     17  C   UNL     1      30.721 -22.966 -16.295  0.00  0.00    +0.000 C 
ATOM     18  C   UNL     1      30.523 -22.853 -14.793  0.00  0.00    +0.000 C 
ENDBRANCH  16  17
ENDBRANCH  15  16
ENDBRANCH  14  15
ENDBRANCH  13  14
ENDBRANCH   6  13
BRANCH   5  19
ATOM     19  C   UNL     1      38.507 -25.977 -14.303  0.00  0.00    +0.169 C 
BRANCH  19  20
ATOM     20  O   UNL     1      39.041 -25.662 -15.575  0.00  0.00    -0.379 OA
ATOM     21  H   UNL     1      40.005 -25.577 -15.509  0.00  0.00    +0.211 HD
ENDBRANCH  19  20
ENDBRANCH   5  19
TORSDOF 10
ENDMDL
MODEL 9
REMARK VINA RESULT:      -6.7      2.629      4.167
REMARK  Name = 447084
REMARK  10 active torsions:
REMARK  status: ('A' for Active; 'I' for Inactive)
REMARK    1  A    between atoms: C_2  and  O_7
REMARK    2  A    between atoms: C_3  and  O_9
REMARK    3  A    between atoms: C_4  and  O_11
REMARK    4  A    between atoms: C_5  and  C_19
REMARK    5  A    between atoms: C_6  and  O_13
REMARK    6  A    between atoms: O_13  and  C_14
REMARK    7  A    between atoms: C_14  and  C_15
REMARK    8  A    between atoms: C_15  and  C_16
REMARK    9  A    between atoms: C_16  and  C_17
REMARK   10  A    between atoms: C_19  and  O_20
REMARK                            x       y       z     vdW  Elec       q    Type
REMARK                         _______ _______ _______ _____ _____    ______ ____
ROOT
ATOM      1  O   UNL     1      36.254 -24.913 -15.571  0.00  0.00    -0.326 OA
ATOM      2  C   UNL     1      37.045 -23.709 -13.083  0.00  0.00    +0.172 C 
ATOM      3  C   UNL     1      37.000 -25.227 -13.262  0.00  0.00    +0.169 C 
ATOM      4  C   UNL     1      36.081 -23.019 -14.050  0.00  0.00    +0.196 C 
ATOM      5  C   UNL     1      37.201 -25.590 -14.740  0.00  0.00    +0.176 C 
ATOM      6  C   UNL     1      36.318 -23.485 -15.486  0.00  0.00    +0.266 C 
ENDROOT
BRANCH   2   7
ATOM      7  O   UNL     1      36.688 -23.356 -11.749  0.00  0.00    -0.379 OA
ATOM      8  H   UNL     1      36.177 -24.077 -11.350  0.00  0.00    +0.211 HD
ENDBRANCH   2   7
BRANCH   3   9
ATOM      9  O   UNL     1      38.039 -25.829 -12.495  0.00  0.00    -0.379 OA
ATOM     10  H   UNL     1      38.815 -25.247 -12.487  0.00  0.00    +0.211 HD
ENDBRANCH   3   9
BRANCH   4  11
ATOM     11  O   UNL     1      34.732 -23.341 -13.707  0.00  0.00    -0.378 OA
ATOM     12  H   UNL     1      34.389 -22.678 -13.087  0.00  0.00    +0.211 HD
ENDBRANCH   4  11
BRANCH   6  13
ATOM     13  O   UNL     1      37.556 -22.968 -15.962  0.00  0.00    -0.329 OA
BRANCH  13  14
ATOM     14  C   UNL     1      37.365 -21.789 -16.731  0.00  0.00    +0.145 C 
BRANCH  14  15
ATOM     15  C   UNL     1      36.172 -21.994 -17.655  0.00  0.00    +0.032 C 
BRANCH  15  16
ATOM     16  C   UNL     1      36.379 -21.307 -19.003  0.00  0.00    +0.003 C 
BRANCH  16  17
ATOM     17  C   UNL     1      35.094 -21.310 -19.831  0.00  0.00    +0.000 C 
ATOM     18  C   UNL     1      34.958 -20.037 -20.651  0.00  0.00    +0.000 C 
ENDBRANCH  16  17
ENDBRANCH  15  16
ENDBRANCH  14  15
ENDBRANCH  13  14
ENDBRANCH   6  13
BRANCH   5  19
ATOM     19  C   UNL     1      37.025 -27.087 -14.977  0.00  0.00    +0.169 C 
BRANCH  19  20
ATOM     20  O   UNL     1      36.816 -27.301 -16.361  0.00  0.00    -0.379 OA
ATOM     21  H   UNL     1      37.063 -26.501 -16.852  0.00  0.00    +0.211 HD
ENDBRANCH  19  20
ENDBRANCH   5  19
TORSDOF 10
ENDMDL
