MODEL 1
REMARK VINA RESULT:      -7.9      0.000      0.000
REMARK  Name = 445026
REMARK  14 active torsions:
REMARK  status: ('A' for Active; 'I' for Inactive)
REMARK    1  A    between atoms: C_1  and  N_3
REMARK    2  A    between atoms: C_1  and  C_13
REMARK    3  A    between atoms: C_1  and  C_19
REMARK    4  A    between atoms: C_4  and  O_6
REMARK    5  A    between atoms: O_6  and  P_7
REMARK    6  A    between atoms: P_7  and  O_9
REMARK    7  A    between atoms: P_7  and  O_11
REMARK    8  A    between atoms: C_13  and  N_15
REMARK    9  A    between atoms: C_19  and  C_20
REMARK   10  A    between atoms: C_20  and  C_21
REMARK   11  A    between atoms: C_21  and  C_22
REMARK   12  A    between atoms: C_22  and  C_23
REMARK   13  A    between atoms: C_23  and  C_25
REMARK   14  A    between atoms: C_25  and  O_26
REMARK                            x       y       z     vdW  Elec       q    Type
REMARK                         _______ _______ _______ _____ _____    ______ ____
ROOT
ATOM      1  C   UNL     1      36.388 -24.049 -15.313  0.00  0.00    +0.055 C 
ENDROOT
BRANCH   1   3
ATOM      2  O   UNL     1      36.559 -26.956 -15.259  0.00  0.00    -0.226 OA
ATOM      3  N   UNL     1      37.529 -24.865 -14.959  0.00  0.00    -0.274 N 
ATOM      4  C   UNL     1      37.510 -26.241 -14.965  0.00  0.00    +0.408 C 
ATOM      5  H   UNL     1      38.365 -24.412 -14.700  0.00  0.00    +0.153 HD
BRANCH   4   6
ATOM      6  O   UNL     1      38.724 -26.727 -14.585  0.00  0.00    -0.356 OA
BRANCH   6   7
ATOM      7  P   UNL     1      40.092 -25.863 -14.556  0.00  0.00    +0.531 P 
ATOM      8  O   UNL     1      40.032 -24.616 -13.723  0.00  0.00    -0.215 OA
BRANCH   7   9
ATOM      9  O   UNL     1      41.215 -26.939 -14.111  0.00  0.00    -0.293 OA
ATOM     10  H   UNL     1      42.097 -26.554 -14.230  0.00  0.00    +0.223 HD
ENDBRANCH   7   9
BRANCH   7  11
ATOM     11  O   UNL     1      40.405 -25.624 -16.124  0.00  0.00    -0.293 OA
ATOM     12  H   UNL     1      39.598 -25.332 -16.573  0.00  0.00    +0.223 HD
ENDBRANCH   7  11
ENDBRANCH   6   7
ENDBRANCH   4   6
ENDBRANCH   1   3
BRANCH   1  13
ATOM     13  C   UNL     1      35.531 -23.707 -14.072  0.00  0.00    -0.047 C 
ATOM     14  C   UNL     1      36.396 -23.409 -12.842  0.00  0.00    -0.022 C 
BRANCH  13  15
ATOM     15  N   UNL     1      34.630 -24.818 -13.749  0.00  0.00    +0.383 N 
ATOM     16  H   UNL     1      35.135 -25.519 -13.207  0.00  0.00    -0.089 HD
ATOM     17  H   UNL     1      34.285 -25.238 -14.613  0.00  0.00    -0.089 HD
ATOM     18  H   UNL     1      33.842 -24.468 -13.204  0.00  0.00    -0.089 HD
ENDBRANCH  13  15
ENDBRANCH   1  13
BRANCH   1  19
ATOM     19  C   UNL     1      36.838 -22.835 -16.153  0.00  0.00    +0.018 C 
BRANCH  19  20
ATOM     20  C   UNL     1      35.852 -22.274 -17.189  0.00  0.00    +0.002 C 
BRANCH  20  21
ATOM     21  C   UNL     1      36.509 -21.638 -18.414  0.00  0.00    +0.001 C 
BRANCH  21  22
ATOM     22  C   UNL     1      35.660 -21.857 -19.673  0.00  0.00    +0.012 C 
BRANCH  22  23
ATOM     23  C   UNL     1      34.789 -20.647 -20.008  0.00  0.00    +0.109 C 
BRANCH  23  25
ATOM     24  O   UNL     1      32.445 -20.306 -20.589  0.00  0.00    -0.250 OA
ATOM     25  C   UNL     1      33.315 -20.968 -20.044  0.00  0.00    +0.314 C 
BRANCH  25  26
ATOM     26  O   UNL     1      33.078 -22.140 -19.400  0.00  0.00    -0.480 OA
ATOM     27  H   UNL     1      32.906 -22.141 -18.479  0.00  0.00    +0.295 HD
ENDBRANCH  25  26
ENDBRANCH  23  25
ENDBRANCH  22  23
ENDBRANCH  21  22
ENDBRANCH  20  21
ENDBRANCH  19  20
ENDBRANCH   1  19
TORSDOF 14
ENDMDL
MODEL 2
REMARK VINA RESULT:      -7.7      0.906      1.179
REMARK  Name = 445026
REMARK  14 active torsions:
REMARK  status: ('A' for Active; 'I' for Inactive)
REMARK    1  A    between atoms: C_1  and  N_3
REMARK    2  A    between atoms: C_1  and  C_13
REMARK    3  A    between atoms: C_1  and  C_19
REMARK    4  A    between atoms: C_4  and  O_6
REMARK    5  A    between atoms: O_6  and  P_7
REMARK    6  A    between atoms: P_7  and  O_9
REMARK    7  A    between atoms: P_7  and  O_11
REMARK    8  A    between atoms: C_13  and  N_15
REMARK    9  A    between atoms: C_19  and  C_20
REMARK   10  A    between atoms: C_20  and  C_21
REMARK   11  A    between atoms: C_21  and  C_22
REMARK   12  A    between atoms: C_22  and  C_23
REMARK   13  A    between atoms: C_23  and  C_25
REMARK   14  A    between atoms: C_25  and  O_26
REMARK                            x       y       z     vdW  Elec       q    Type
REMARK                         _______ _______ _______ _____ _____    ______ ____
ROOT
ATOM      1  C   UNL     1      36.159 -24.332 -15.087  0.00  0.00    +0.055 C 
ENDROOT
BRANCH   1   3
ATOM      2  O   UNL     1      36.688 -27.177 -15.412  0.00  0.00    -0.226 OA
ATOM      3  N   UNL     1      37.367 -25.055 -14.751  0.00  0.00    -0.274 N 
ATOM      4  C   UNL     1      37.520 -26.409 -14.946  0.00  0.00    +0.408 C 
ATOM      5  H   UNL     1      38.120 -24.552 -14.365  0.00  0.00    +0.153 HD
BRANCH   4   6
ATOM      6  O   UNL     1      38.757 -26.802 -14.535  0.00  0.00    -0.356 OA
BRANCH   6   7
ATOM      7  P   UNL     1      40.072 -25.860 -14.544  0.00  0.00    +0.531 P 
ATOM      8  O   UNL     1      39.946 -24.596 -13.744  0.00  0.00    -0.215 OA
BRANCH   7   9
ATOM      9  O   UNL     1      41.260 -26.855 -14.083  0.00  0.00    -0.293 OA
ATOM     10  H   UNL     1      41.936 -26.896 -14.777  0.00  0.00    +0.223 HD
ENDBRANCH   7   9
BRANCH   7  11
ATOM     11  O   UNL     1      40.356 -25.645 -16.121  0.00  0.00    -0.293 OA
ATOM     12  H   UNL     1      41.240 -25.977 -16.338  0.00  0.00    +0.223 HD
ENDBRANCH   7  11
ENDBRANCH   6   7
ENDBRANCH   4   6
ENDBRANCH   1   3
BRANCH   1  13
ATOM     13  C   UNL     1      35.138 -24.369 -13.925  0.00  0.00    -0.047 C 
ATOM     14  C   UNL     1      33.712 -24.073 -14.403  0.00  0.00    -0.022 C 
BRANCH  13  15
ATOM     15  N   UNL     1      35.497 -23.389 -12.896  0.00  0.00    +0.383 N 
ATOM     16  H   UNL     1      35.907 -23.870 -12.095  0.00  0.00    -0.089 HD
ATOM     17  H   UNL     1      34.661 -22.885 -12.599  0.00  0.00    -0.089 HD
ATOM     18  H   UNL     1      36.174 -22.727 -13.278  0.00  0.00    -0.089 HD
ENDBRANCH  13  15
ENDBRANCH   1  13
BRANCH   1  19
ATOM     19  C   UNL     1      36.505 -22.922 -15.609  0.00  0.00    +0.018 C 
BRANCH  19  20
ATOM     20  C   UNL     1      35.842 -22.456 -16.913  0.00  0.00    +0.002 C 
BRANCH  20  21
ATOM     21  C   UNL     1      36.746 -21.632 -17.829  0.00  0.00    +0.001 C 
BRANCH  21  22
ATOM     22  C   UNL     1      36.158 -21.533 -19.243  0.00  0.00    +0.012 C 
BRANCH  22  23
ATOM     23  C   UNL     1      34.691 -21.960 -19.296  0.00  0.00    +0.109 C 
BRANCH  23  25
ATOM     24  O   UNL     1      32.576 -20.788 -19.615  0.00  0.00    -0.250 OA
ATOM     25  C   UNL     1      33.777 -20.879 -19.819  0.00  0.00    +0.314 C 
BRANCH  25  26
ATOM     26  O   UNL     1      34.489 -19.978 -20.543  0.00  0.00    -0.480 OA
ATOM     27  H   UNL     1      34.044 -19.307 -21.022  0.00  0.00    +0.295 HD
ENDBRANCH  25  26
ENDBRANCH  23  25
ENDBRANCH  22  23
ENDBRANCH  21  22
ENDBRANCH  20  21
ENDBRANCH  19  20
ENDBRANCH   1  19
TORSDOF 14
ENDMDL
MODEL 3
REMARK VINA RESULT:      -7.3      3.047      3.602
REMARK  Name = 445026
REMARK  14 active torsions:
REMARK  status: ('A' for Active; 'I' for Inactive)
REMARK    1  A    between atoms: C_1  and  N_3
REMARK    2  A    between atoms: C_1  and  C_13
REMARK    3  A    between atoms: C_1  and  C_19
REMARK    4  A    between atoms: C_4  and  O_6
REMARK    5  A    between atoms: O_6  and  P_7
REMARK    6  A    between atoms: P_7  and  O_9
REMARK    7  A    between atoms: P_7  and  O_11
REMARK    8  A    between atoms: C_13  and  N_15
REMARK    9  A    between atoms: C_19  and  C_20
REMARK   10  A    between atoms: C_20  and  C_21
REMARK   11  A    between atoms: C_21  and  C_22
REMARK   12  A    between atoms: C_22  and  C_23
REMARK   13  A    between atoms: C_23  and  C_25
REMARK   14  A    between atoms: C_25  and  O_26
REMARK                            x       y       z     vdW  Elec       q    Type
REMARK                         _______ _______ _______ _____ _____    ______ ____
ROOT
ATOM      1  C   UNL     1      35.558 -24.232 -13.666  0.00  0.00    +0.055 C 
ENDROOT
BRANCH   1   3
ATOM      2  O   UNL     1      35.895 -26.482 -15.485  0.00  0.00    -0.226 OA
ATOM      3  N   UNL     1      36.796 -24.819 -14.134  0.00  0.00    -0.274 N 
ATOM      4  C   UNL     1      36.850 -25.887 -15.000  0.00  0.00    +0.408 C 
ATOM      5  H   UNL     1      37.644 -24.432 -13.817  0.00  0.00    +0.153 HD
BRANCH   4   6
ATOM      6  O   UNL     1      38.147 -26.215 -15.255  0.00  0.00    -0.356 OA
BRANCH   6   7
ATOM      7  P   UNL     1      39.413 -25.249 -14.973  0.00  0.00    +0.531 P 
ATOM      8  O   UNL     1      39.721 -25.022 -13.521  0.00  0.00    -0.215 OA
BRANCH   7   9
ATOM      9  O   UNL     1      40.605 -25.917 -15.838  0.00  0.00    -0.293 OA
ATOM     10  H   UNL     1      40.521 -26.883 -15.812  0.00  0.00    +0.223 HD
ENDBRANCH   7   9
BRANCH   7  11
ATOM     11  O   UNL     1      39.046 -23.915 -15.810  0.00  0.00    -0.293 OA
ATOM     12  H   UNL     1      39.698 -23.788 -16.516  0.00  0.00    +0.223 HD
ENDBRANCH   7  11
ENDBRANCH   6   7
ENDBRANCH   4   6
ENDBRANCH   1   3
BRANCH   1  13
ATOM     13  C   UNL     1      35.714 -23.645 -12.244  0.00  0.00    -0.047 C 
ATOM     14  C   UNL     1      37.105 -23.041 -12.023  0.00  0.00    -0.022 C 
BRANCH  13  15
ATOM     15  N   UNL     1      35.490 -24.682 -11.233  0.00  0.00    +0.383 N 
ATOM     16  H   UNL     1      35.302 -24.244 -10.331  0.00  0.00    -0.089 HD
ATOM     17  H   UNL     1      36.321 -25.270 -11.160  0.00  0.00    -0.089 HD
ATOM     18  H   UNL     1      34.691 -25.256 -11.506  0.00  0.00    -0.089 HD
ENDBRANCH  13  15
ENDBRANCH   1  13
BRANCH   1  19
ATOM     19  C   UNL     1      34.995 -23.255 -14.720  0.00  0.00    +0.018 C 
BRANCH  19  20
ATOM     20  C   UNL     1      33.804 -23.723 -15.569  0.00  0.00    +0.002 C 
BRANCH  20  21
ATOM     21  C   UNL     1      32.480 -23.033 -15.243  0.00  0.00    +0.001 C 
BRANCH  21  22
ATOM     22  C   UNL     1      31.405 -23.380 -16.281  0.00  0.00    +0.012 C 
BRANCH  22  23
ATOM     23  C   UNL     1      30.008 -23.476 -15.667  0.00  0.00    +0.109 C 
BRANCH  23  25
ATOM     24  O   UNL     1      28.234 -24.189 -17.180  0.00  0.00    -0.250 OA
ATOM     25  C   UNL     1      28.903 -23.298 -16.678  0.00  0.00    +0.314 C 
BRANCH  25  26
ATOM     26  O   UNL     1      28.722 -21.979 -16.944  0.00  0.00    -0.480 OA
ATOM     27  H   UNL     1      28.699 -21.679 -17.830  0.00  0.00    +0.295 HD
ENDBRANCH  25  26
ENDBRANCH  23  25
ENDBRANCH  22  23
ENDBRANCH  21  22
ENDBRANCH  20  21
ENDBRANCH  19  20
ENDBRANCH   1  19
TORSDOF 14
ENDMDL
MODEL 4
REMARK VINA RESULT:      -7.3      4.859      8.710
REMARK  Name = 445026
REMARK  14 active torsions:
REMARK  status: ('A' for Active; 'I' for Inactive)
REMARK    1  A    between atoms: C_1  and  N_3
REMARK    2  A    between atoms: C_1  and  C_13
REMARK    3  A    between atoms: C_1  and  C_19
REMARK    4  A    between atoms: C_4  and  O_6
REMARK    5  A    between atoms: O_6  and  P_7
REMARK    6  A    between atoms: P_7  and  O_9
REMARK    7  A    between atoms: P_7  and  O_11
REMARK    8  A    between atoms: C_13  and  N_15
REMARK    9  A    between atoms: C_19  and  C_20
REMARK   10  A    between atoms: C_20  and  C_21
REMARK   11  A    between atoms: C_21  and  C_22
REMARK   12  A    between atoms: C_22  and  C_23
REMARK   13  A    between atoms: C_23  and  C_25
REMARK   14  A    between atoms: C_25  and  O_26
REMARK                            x       y       z     vdW  Elec       q    Type
REMARK                         _______ _______ _______ _____ _____    ______ ____
ROOT
ATOM      1  C   UNL     1      32.678 -23.406 -16.730  0.00  0.00    +0.055 C 
ENDROOT
BRANCH   1   3
ATOM      2  O   UNL     1      29.986 -24.198 -15.952  0.00  0.00    -0.226 OA
ATOM      3  N   UNL     1      31.447 -22.669 -16.915  0.00  0.00    -0.274 N 
ATOM      4  C   UNL     1      30.216 -23.132 -16.509  0.00  0.00    +0.408 C 
ATOM      5  H   UNL     1      31.492 -21.789 -17.354  0.00  0.00    +0.153 HD
BRANCH   4   6
ATOM      6  O   UNL     1      29.250 -22.224 -16.820  0.00  0.00    -0.356 OA
BRANCH   6   7
ATOM      7  P   UNL     1      27.660 -22.510 -16.745  0.00  0.00    +0.531 P 
ATOM      8  O   UNL     1      27.116 -22.688 -15.357  0.00  0.00    -0.215 OA
BRANCH   7   9
ATOM      9  O   UNL     1      27.011 -21.295 -17.592  0.00  0.00    -0.293 OA
ATOM     10  H   UNL     1      27.172 -20.457 -17.130  0.00  0.00    +0.223 HD
ENDBRANCH   7   9
BRANCH   7  11
ATOM     11  O   UNL     1      27.474 -23.786 -17.720  0.00  0.00    -0.293 OA
ATOM     12  H   UNL     1      27.135 -24.537 -17.209  0.00  0.00    +0.223 HD
ENDBRANCH   7  11
ENDBRANCH   6   7
ENDBRANCH   4   6
ENDBRANCH   1   3
BRANCH   1  13
ATOM     13  C   UNL     1      33.658 -23.172 -17.903  0.00  0.00    -0.047 C 
ATOM     14  C   UNL     1      34.958 -22.504 -17.440  0.00  0.00    -0.022 C 
BRANCH  13  15
ATOM     15  N   UNL     1      33.039 -22.326 -18.927  0.00  0.00    +0.383 N 
ATOM     16  H   UNL     1      32.098 -22.667 -19.128  0.00  0.00    -0.089 HD
ATOM     17  H   UNL     1      33.601 -22.356 -19.778  0.00  0.00    -0.089 HD
ATOM     18  H   UNL     1      32.987 -21.365 -18.589  0.00  0.00    -0.089 HD
ENDBRANCH  13  15
ENDBRANCH   1  13
BRANCH   1  19
ATOM     19  C   UNL     1      33.260 -23.134 -15.326  0.00  0.00    +0.018 C 
BRANCH  19  20
ATOM     20  C   UNL     1      33.623 -24.344 -14.452  0.00  0.00    +0.002 C 
BRANCH  20  21
ATOM     21  C   UNL     1      34.693 -24.069 -13.397  0.00  0.00    +0.001 C 
BRANCH  21  22
ATOM     22  C   UNL     1      35.976 -24.858 -13.692  0.00  0.00    +0.012 C 
BRANCH  22  23
ATOM     23  C   UNL     1      36.024 -25.378 -15.129  0.00  0.00    +0.109 C 
BRANCH  23  25
ATOM     24  O   UNL     1      36.738 -27.430 -16.237  0.00  0.00    -0.250 OA
ATOM     25  C   UNL     1      36.739 -26.701 -15.256  0.00  0.00    +0.314 C 
BRANCH  25  26
ATOM     26  O   UNL     1      37.427 -26.971 -14.118  0.00  0.00    -0.480 OA
ATOM     27  H   UNL     1      37.965 -27.736 -14.066  0.00  0.00    +0.295 HD
ENDBRANCH  25  26
ENDBRANCH  23  25
ENDBRANCH  22  23
ENDBRANCH  21  22
ENDBRANCH  20  21
ENDBRANCH  19  20
ENDBRANCH   1  19
TORSDOF 14
ENDMDL
MODEL 5
REMARK VINA RESULT:      -7.2      3.887      5.157
REMARK  Name = 445026
REMARK  14 active torsions:
REMARK  status: ('A' for Active; 'I' for Inactive)
REMARK    1  A    between atoms: C_1  and  N_3
REMARK    2  A    between atoms: C_1  and  C_13
REMARK    3  A    between atoms: C_1  and  C_19
REMARK    4  A    between atoms: C_4  and  O_6
REMARK    5  A    between atoms: O_6  and  P_7
REMARK    6  A    between atoms: P_7  and  O_9
REMARK    7  A    between atoms: P_7  and  O_11
REMARK    8  A    between atoms: C_13  and  N_15
REMARK    9  A    between atoms: C_19  and  C_20
REMARK   10  A    between atoms: C_20  and  C_21
REMARK   11  A    between atoms: C_21  and  C_22
REMARK   12  A    between atoms: C_22  and  C_23
REMARK   13  A    between atoms: C_23  and  C_25
REMARK   14  A    between atoms: C_25  and  O_26
REMARK                            x       y       z     vdW  Elec       q    Type
REMARK                         _______ _______ _______ _____ _____    ______ ____
ROOT
ATOM      1  C   UNL     1      33.944 -23.116 -15.985  0.00  0.00    +0.055 C 
ENDROOT
BRANCH   1   3
ATOM      2  O   UNL     1      36.726 -22.394 -15.519  0.00  0.00    -0.226 OA
ATOM      3  N   UNL     1      35.054 -23.999 -15.699  0.00  0.00    -0.274 N 
ATOM      4  C   UNL     1      36.341 -23.557 -15.492  0.00  0.00    +0.408 C 
ATOM      5  H   UNL     1      34.880 -24.967 -15.649  0.00  0.00    +0.153 HD
BRANCH   4   6
ATOM      6  O   UNL     1      37.164 -24.614 -15.247  0.00  0.00    -0.356 OA
BRANCH   6   7
ATOM      7  P   UNL     1      36.808 -25.849 -14.264  0.00  0.00    +0.531 P 
ATOM      8  O   UNL     1      38.000 -26.553 -13.682  0.00  0.00    -0.215 OA
BRANCH   7   9
ATOM      9  O   UNL     1      35.794 -25.198 -13.185  0.00  0.00    -0.293 OA
ATOM     10  H   UNL     1      36.161 -24.361 -12.860  0.00  0.00    +0.223 HD
ENDBRANCH   7   9
BRANCH   7  11
ATOM     11  O   UNL     1      35.844 -26.773 -15.174  0.00  0.00    -0.293 OA
ATOM     12  H   UNL     1      35.093 -26.246 -15.487  0.00  0.00    +0.223 HD
ENDBRANCH   7  11
ENDBRANCH   6   7
ENDBRANCH   4   6
ENDBRANCH   1   3
BRANCH   1  13
ATOM     13  C   UNL     1      33.448 -23.287 -17.440  0.00  0.00    -0.047 C 
ATOM     14  C   UNL     1      34.343 -22.549 -18.442  0.00  0.00    -0.022 C 
BRANCH  13  15
ATOM     15  N   UNL     1      32.079 -22.782 -17.578  0.00  0.00    +0.383 N 
ATOM     16  H   UNL     1      31.614 -22.806 -16.671  0.00  0.00    -0.089 HD
ATOM     17  H   UNL     1      31.566 -23.366 -18.239  0.00  0.00    -0.089 HD
ATOM     18  H   UNL     1      32.104 -21.821 -17.923  0.00  0.00    -0.089 HD
ENDBRANCH  13  15
ENDBRANCH   1  13
BRANCH   1  19
ATOM     19  C   UNL     1      32.854 -23.257 -14.902  0.00  0.00    +0.018 C 
BRANCH  19  20
ATOM     20  C   UNL     1      32.552 -24.663 -14.364  0.00  0.00    +0.002 C 
BRANCH  20  21
ATOM     21  C   UNL     1      31.067 -24.967 -14.172  0.00  0.00    +0.001 C 
BRANCH  21  22
ATOM     22  C   UNL     1      30.194 -23.870 -14.795  0.00  0.00    +0.012 C 
BRANCH  22  23
ATOM     23  C   UNL     1      29.088 -24.438 -15.685  0.00  0.00    +0.109 C 
BRANCH  23  25
ATOM     24  O   UNL     1      29.121 -22.377 -16.988  0.00  0.00    -0.250 OA
ATOM     25  C   UNL     1      28.657 -23.487 -16.774  0.00  0.00    +0.314 C 
BRANCH  25  26
ATOM     26  O   UNL     1      27.677 -24.053 -17.525  0.00  0.00    -0.480 OA
ATOM     27  H   UNL     1      26.869 -24.307 -17.126  0.00  0.00    +0.295 HD
ENDBRANCH  25  26
ENDBRANCH  23  25
ENDBRANCH  22  23
ENDBRANCH  21  22
ENDBRANCH  20  21
ENDBRANCH  19  20
ENDBRANCH   1  19
TORSDOF 14
ENDMDL
MODEL 6
REMARK VINA RESULT:      -7.2      3.585      4.459
REMARK  Name = 445026
REMARK  14 active torsions:
REMARK  status: ('A' for Active; 'I' for Inactive)
REMARK    1  A    between atoms: C_1  and  N_3
REMARK    2  A    between atoms: C_1  and  C_13
REMARK    3  A    between atoms: C_1  and  C_19
REMARK    4  A    between atoms: C_4  and  O_6
REMARK    5  A    between atoms: O_6  and  P_7
REMARK    6  A    between atoms: P_7  and  O_9
REMARK    7  A    between atoms: P_7  and  O_11
REMARK    8  A    between atoms: C_13  and  N_15
REMARK    9  A    between atoms: C_19  and  C_20
REMARK   10  A    between atoms: C_20  and  C_21
REMARK   11  A    between atoms: C_21  and  C_22
REMARK   12  A    between atoms: C_22  and  C_23
REMARK   13  A    between atoms: C_23  and  C_25
REMARK   14  A    between atoms: C_25  and  O_26
REMARK                            x       y       z     vdW  Elec       q    Type
REMARK                         _______ _______ _______ _____ _____    ______ ____
ROOT
ATOM      1  C   UNL     1      35.458 -22.841 -15.817  0.00  0.00    +0.055 C 
ENDROOT
BRANCH   1   3
ATOM      2  O   UNL     1      36.361 -23.078 -13.058  0.00  0.00    -0.226 OA
ATOM      3  N   UNL     1      36.220 -23.918 -15.221  0.00  0.00    -0.274 N 
ATOM      4  C   UNL     1      36.600 -23.937 -13.898  0.00  0.00    +0.408 C 
ATOM      5  H   UNL     1      36.480 -24.677 -15.791  0.00  0.00    +0.153 HD
BRANCH   4   6
ATOM      6  O   UNL     1      37.305 -25.071 -13.631  0.00  0.00    -0.356 OA
BRANCH   6   7
ATOM      7  P   UNL     1      38.527 -25.628 -14.533  0.00  0.00    +0.531 P 
ATOM      8  O   UNL     1      39.546 -26.436 -13.783  0.00  0.00    -0.215 OA
BRANCH   7   9
ATOM      9  O   UNL     1      37.787 -26.402 -15.745  0.00  0.00    -0.293 OA
ATOM     10  H   UNL     1      37.012 -25.892 -16.028  0.00  0.00    +0.223 HD
ENDBRANCH   7   9
BRANCH   7  11
ATOM     11  O   UNL     1      39.099 -24.290 -15.237  0.00  0.00    -0.293 OA
ATOM     12  H   UNL     1      39.513 -24.522 -16.083  0.00  0.00    +0.223 HD
ENDBRANCH   7  11
ENDBRANCH   6   7
ENDBRANCH   4   6
ENDBRANCH   1   3
BRANCH   1  13
ATOM     13  C   UNL     1      36.335 -21.984 -16.759  0.00  0.00    -0.047 C 
ATOM     14  C   UNL     1      35.775 -21.942 -18.185  0.00  0.00    -0.022 C 
BRANCH  13  15
ATOM     15  N   UNL     1      37.701 -22.512 -16.810  0.00  0.00    +0.383 N 
ATOM     16  H   UNL     1      38.367 -21.742 -16.743  0.00  0.00    -0.089 HD
ATOM     17  H   UNL     1      37.842 -23.008 -17.690  0.00  0.00    -0.089 HD
ATOM     18  H   UNL     1      37.847 -23.155 -16.031  0.00  0.00    -0.089 HD
ENDBRANCH  13  15
ENDBRANCH   1  13
BRANCH   1  19
ATOM     19  C   UNL     1      34.161 -23.389 -16.448  0.00  0.00    +0.018 C 
BRANCH  19  20
ATOM     20  C   UNL     1      32.872 -23.318 -15.617  0.00  0.00    +0.002 C 
BRANCH  20  21
ATOM     21  C   UNL     1      31.590 -23.186 -16.438  0.00  0.00    +0.001 C 
BRANCH  21  22
ATOM     22  C   UNL     1      30.374 -22.954 -15.531  0.00  0.00    +0.012 C 
BRANCH  22  23
ATOM     23  C   UNL     1      29.204 -23.875 -15.876  0.00  0.00    +0.109 C 
BRANCH  23  25
ATOM     24  O   UNL     1      27.550 -23.965 -17.666  0.00  0.00    -0.250 OA
ATOM     25  C   UNL     1      28.314 -23.322 -16.962  0.00  0.00    +0.314 C 
BRANCH  25  26
ATOM     26  O   UNL     1      28.455 -21.973 -17.038  0.00  0.00    -0.480 OA
ATOM     27  H   UNL     1      28.514 -21.555 -17.874  0.00  0.00    +0.295 HD
ENDBRANCH  25  26
ENDBRANCH  23  25
ENDBRANCH  22  23
ENDBRANCH  21  22
ENDBRANCH  20  21
ENDBRANCH  19  20
ENDBRANCH   1  19
TORSDOF 14
ENDMDL
MODEL 7
REMARK VINA RESULT:      -7.2      3.197      3.979
REMARK  Name = 445026
REMARK  14 active torsions:
REMARK  status: ('A' for Active; 'I' for Inactive)
REMARK    1  A    between atoms: C_1  and  N_3
REMARK    2  A    between atoms: C_1  and  C_13
REMARK    3  A    between atoms: C_1  and  C_19
REMARK    4  A    between atoms: C_4  and  O_6
REMARK    5  A    between atoms: O_6  and  P_7
REMARK    6  A    between atoms: P_7  and  O_9
REMARK    7  A    between atoms: P_7  and  O_11
REMARK    8  A    between atoms: C_13  and  N_15
REMARK    9  A    between atoms: C_19  and  C_20
REMARK   10  A    between atoms: C_20  and  C_21
REMARK   11  A    between atoms: C_21  and  C_22
REMARK   12  A    between atoms: C_22  and  C_23
REMARK   13  A    between atoms: C_23  and  C_25
REMARK   14  A    between atoms: C_25  and  O_26
REMARK                            x       y       z     vdW  Elec       q    Type
REMARK                         _______ _______ _______ _____ _____    ______ ____
ROOT
ATOM      1  C   UNL     1      35.481 -24.706 -14.448  0.00  0.00    +0.055 C 
ENDROOT
BRANCH   1   3
ATOM      2  O   UNL     1      36.547 -27.049 -15.809  0.00  0.00    -0.226 OA
ATOM      3  N   UNL     1      36.833 -25.221 -14.403  0.00  0.00    -0.274 N 
ATOM      4  C   UNL     1      37.241 -26.343 -15.087  0.00  0.00    +0.408 C 
ATOM      5  H   UNL     1      37.496 -24.743 -13.854  0.00  0.00    +0.153 HD
BRANCH   4   6
ATOM      6  O   UNL     1      38.560 -26.581 -14.849  0.00  0.00    -0.356 OA
BRANCH   6   7
ATOM      7  P   UNL     1      39.678 -25.431 -14.633  0.00  0.00    +0.531 P 
ATOM      8  O   UNL     1      41.097 -25.893 -14.801  0.00  0.00    -0.215 OA
BRANCH   7   9
ATOM      9  O   UNL     1      39.211 -24.251 -15.635  0.00  0.00    -0.293 OA
ATOM     10  H   UNL     1      38.754 -24.636 -16.399  0.00  0.00    +0.223 HD
ENDBRANCH   7   9
BRANCH   7  11
ATOM     11  O   UNL     1      39.318 -24.844 -13.171  0.00  0.00    -0.293 OA
ATOM     12  H   UNL     1      39.378 -23.877 -13.187  0.00  0.00    +0.223 HD
ENDBRANCH   7  11
ENDBRANCH   6   7
ENDBRANCH   4   6
ENDBRANCH   1   3
BRANCH   1  13
ATOM     13  C   UNL     1      34.995 -24.275 -13.044  0.00  0.00    -0.047 C 
ATOM     14  C   UNL     1      35.988 -24.670 -11.946  0.00  0.00    -0.022 C 
BRANCH  13  15
ATOM     15  N   UNL     1      33.697 -24.885 -12.741  0.00  0.00    +0.383 N 
ATOM     16  H   UNL     1      33.798 -25.526 -11.953  0.00  0.00    -0.089 HD
ATOM     17  H   UNL     1      33.364 -25.399 -13.557  0.00  0.00    -0.089 HD
ATOM     18  H   UNL     1      33.025 -24.155 -12.502  0.00  0.00    -0.089 HD
ENDBRANCH  13  15
ENDBRANCH   1  13
BRANCH   1  19
ATOM     19  C   UNL     1      35.354 -23.628 -15.545  0.00  0.00    +0.018 C 
BRANCH  19  20
ATOM     20  C   UNL     1      34.035 -23.551 -16.328  0.00  0.00    +0.002 C 
BRANCH  20  21
ATOM     21  C   UNL     1      32.863 -22.962 -15.544  0.00  0.00    +0.001 C 
BRANCH  21  22
ATOM     22  C   UNL     1      31.533 -23.215 -16.268  0.00  0.00    +0.012 C 
BRANCH  22  23
ATOM     23  C   UNL     1      30.375 -23.449 -15.297  0.00  0.00    +0.109 C 
BRANCH  23  25
ATOM     24  O   UNL     1      30.879 -23.693 -12.924  0.00  0.00    -0.250 OA
ATOM     25  C   UNL     1      30.792 -24.176 -14.043  0.00  0.00    +0.314 C 
BRANCH  25  26
ATOM     26  O   UNL     1      31.035 -25.483 -14.320  0.00  0.00    -0.480 OA
ATOM     27  H   UNL     1      30.453 -26.145 -14.005  0.00  0.00    +0.295 HD
ENDBRANCH  25  26
ENDBRANCH  23  25
ENDBRANCH  22  23
ENDBRANCH  21  22
ENDBRANCH  20  21
ENDBRANCH  19  20
ENDBRANCH   1  19
TORSDOF 14
ENDMDL
MODEL 8
REMARK VINA RESULT:      -7.2      2.684      3.965
REMARK  Name = 445026
REMARK  14 active torsions:
REMARK  status: ('A' for Active; 'I' for Inactive)
REMARK    1  A    between atoms: C_1  and  N_3
REMARK    2  A    between atoms: C_1  and  C_13
REMARK    3  A    between atoms: C_1  and  C_19
REMARK    4  A    between atoms: C_4  and  O_6
REMARK    5  A    between atoms: O_6  and  P_7
REMARK    6  A    between atoms: P_7  and  O_9
REMARK    7  A    between atoms: P_7  and  O_11
REMARK    8  A    between atoms: C_13  and  N_15
REMARK    9  A    between atoms: C_19  and  C_20
REMARK   10  A    between atoms: C_20  and  C_21
REMARK   11  A    between atoms: C_21  and  C_22
REMARK   12  A    between atoms: C_22  and  C_23
REMARK   13  A    between atoms: C_23  and  C_25
REMARK   14  A    between atoms: C_25  and  O_26
REMARK                            x       y       z     vdW  Elec       q    Type
REMARK                         _______ _______ _______ _____ _____    ______ ____
ROOT
ATOM      1  C   UNL     1      36.542 -23.854 -14.308  0.00  0.00    +0.055 C 
ENDROOT
BRANCH   1   3
ATOM      2  O   UNL     1      37.697 -25.092 -11.939  0.00  0.00    -0.226 OA
ATOM      3  N   UNL     1      37.585 -24.856 -14.248  0.00  0.00    -0.274 N 
ATOM      4  C   UNL     1      38.065 -25.382 -13.070  0.00  0.00    +0.408 C 
ATOM      5  H   UNL     1      37.972 -25.178 -15.094  0.00  0.00    +0.153 HD
BRANCH   4   6
ATOM      6  O   UNL     1      39.040 -26.296 -13.331  0.00  0.00    -0.356 OA
BRANCH   6   7
ATOM      7  P   UNL     1      40.319 -26.031 -14.285  0.00  0.00    +0.531 P 
ATOM      8  O   UNL     1      41.437 -27.021 -14.130  0.00  0.00    -0.215 OA
BRANCH   7   9
ATOM      9  O   UNL     1      39.678 -25.937 -15.767  0.00  0.00    -0.293 OA
ATOM     10  H   UNL     1      39.204 -25.096 -15.862  0.00  0.00    +0.223 HD
ENDBRANCH   7   9
BRANCH   7  11
ATOM     11  O   UNL     1      40.711 -24.499 -13.950  0.00  0.00    -0.293 OA
ATOM     12  H   UNL     1      41.587 -24.473 -13.536  0.00  0.00    +0.223 HD
ENDBRANCH   7  11
ENDBRANCH   6   7
ENDBRANCH   4   6
ENDBRANCH   1   3
BRANCH   1  13
ATOM     13  C   UNL     1      36.842 -22.792 -15.392  0.00  0.00    -0.047 C 
ATOM     14  C   UNL     1      35.706 -22.679 -16.415  0.00  0.00    -0.022 C 
BRANCH  13  15
ATOM     15  N   UNL     1      38.080 -23.121 -16.104  0.00  0.00    +0.383 N 
ATOM     16  H   UNL     1      38.869 -23.067 -15.460  0.00  0.00    -0.089 HD
ATOM     17  H   UNL     1      38.219 -22.460 -16.869  0.00  0.00    -0.089 HD
ATOM     18  H   UNL     1      38.014 -24.068 -16.482  0.00  0.00    -0.089 HD
ENDBRANCH  13  15
ENDBRANCH   1  13
BRANCH   1  19
ATOM     19  C   UNL     1      35.158 -24.528 -14.417  0.00  0.00    +0.018 C 
BRANCH  19  20
ATOM     20  C   UNL     1      34.088 -24.141 -13.386  0.00  0.00    +0.002 C 
BRANCH  20  21
ATOM     21  C   UNL     1      32.649 -24.384 -13.840  0.00  0.00    +0.001 C 
BRANCH  21  22
ATOM     22  C   UNL     1      32.029 -23.106 -14.420  0.00  0.00    +0.012 C 
BRANCH  22  23
ATOM     23  C   UNL     1      31.713 -23.235 -15.910  0.00  0.00    +0.109 C 
BRANCH  23  25
ATOM     24  O   UNL     1      29.782 -22.361 -17.115  0.00  0.00    -0.250 OA
ATOM     25  C   UNL     1      30.249 -23.054 -16.224  0.00  0.00    +0.314 C 
BRANCH  25  26
ATOM     26  O   UNL     1      29.495 -23.806 -15.381  0.00  0.00    -0.480 OA
ATOM     27  H   UNL     1      28.596 -23.974 -15.580  0.00  0.00    +0.295 HD
ENDBRANCH  25  26
ENDBRANCH  23  25
ENDBRANCH  22  23
ENDBRANCH  21  22
ENDBRANCH  20  21
ENDBRANCH  19  20
ENDBRANCH   1  19
TORSDOF 14
ENDMDL
MODEL 9
REMARK VINA RESULT:      -7.0      4.150      5.337
REMARK  Name = 445026
REMARK  14 active torsions:
REMARK  status: ('A' for Active; 'I' for Inactive)
REMARK    1  A    between atoms: C_1  and  N_3
REMARK    2  A    between atoms: C_1  and  C_13
REMARK    3  A    between atoms: C_1  and  C_19
REMARK    4  A    between atoms: C_4  and  O_6
REMARK    5  A    between atoms: O_6  and  P_7
REMARK    6  A    between atoms: P_7  and  O_9
REMARK    7  A    between atoms: P_7  and  O_11
REMARK    8  A    between atoms: C_13  and  N_15
REMARK    9  A    between atoms: C_19  and  C_20
REMARK   10  A    between atoms: C_20  and  C_21
REMARK   11  A    between atoms: C_21  and  C_22
REMARK   12  A    between atoms: C_22  and  C_23
REMARK   13  A    between atoms: C_23  and  C_25
REMARK   14  A    between atoms: C_25  and  O_26
REMARK                            x       y       z     vdW  Elec       q    Type
REMARK                         _______ _______ _______ _____ _____    ______ ____
ROOT
ATOM      1  C   UNL     1      38.093 -24.094 -14.309  0.00  0.00    +0.055 C 
ENDROOT
BRANCH   1   3
ATOM      2  O   UNL     1      39.131 -23.200 -11.739  0.00  0.00    -0.226 OA
ATOM      3  N   UNL     1      37.399 -24.043 -13.040  0.00  0.00    -0.274 N 
ATOM      4  C   UNL     1      37.981 -23.600 -11.873  0.00  0.00    +0.408 C 
ATOM      5  H   UNL     1      36.460 -24.339 -13.009  0.00  0.00    +0.153 HD
BRANCH   4   6
ATOM      6  O   UNL     1      37.085 -23.669 -10.850  0.00  0.00    -0.356 OA
BRANCH   6   7
ATOM      7  P   UNL     1      35.640 -24.390 -10.939  0.00  0.00    +0.531 P 
ATOM      8  O   UNL     1      34.614 -23.646 -11.744  0.00  0.00    -0.215 OA
BRANCH   7   9
ATOM      9  O   UNL     1      35.987 -25.879 -11.466  0.00  0.00    -0.293 OA
ATOM     10  H   UNL     1      35.486 -26.060 -12.277  0.00  0.00    +0.223 HD
ENDBRANCH   7   9
BRANCH   7  11
ATOM     11  O   UNL     1      35.253 -24.624  -9.387  0.00  0.00    -0.293 OA
ATOM     12  H   UNL     1      36.060 -24.623  -8.850  0.00  0.00    +0.223 HD
ENDBRANCH   7  11
ENDBRANCH   6   7
ENDBRANCH   4   6
ENDBRANCH   1   3
BRANCH   1  13
ATOM     13  C   UNL     1      38.870 -25.422 -14.473  0.00  0.00    -0.047 C 
ATOM     14  C   UNL     1      40.276 -25.197 -15.040  0.00  0.00    -0.022 C 
BRANCH  13  15
ATOM     15  N   UNL     1      38.147 -26.332 -15.366  0.00  0.00    +0.383 N 
ATOM     16  H   UNL     1      38.397 -26.128 -16.335  0.00  0.00    -0.089 HD
ATOM     17  H   UNL     1      37.143 -26.206 -15.240  0.00  0.00    -0.089 HD
ATOM     18  H   UNL     1      38.399 -27.296 -15.146  0.00  0.00    -0.089 HD
ENDBRANCH  13  15
ENDBRANCH   1  13
BRANCH   1  19
ATOM     19  C   UNL     1      37.127 -23.754 -15.463  0.00  0.00    +0.018 C 
BRANCH  19  20
ATOM     20  C   UNL     1      35.646 -24.125 -15.293  0.00  0.00    +0.002 C 
BRANCH  20  21
ATOM     21  C   UNL     1      34.688 -22.935 -15.287  0.00  0.00    +0.001 C 
BRANCH  21  22
ATOM     22  C   UNL     1      33.281 -23.356 -15.731  0.00  0.00    +0.012 C 
BRANCH  22  23
ATOM     23  C   UNL     1      32.267 -23.305 -14.588  0.00  0.00    +0.109 C 
BRANCH  23  25
ATOM     24  O   UNL     1      30.873 -25.300 -14.442  0.00  0.00    -0.250 OA
ATOM     25  C   UNL     1      31.861 -24.672 -14.095  0.00  0.00    +0.314 C 
BRANCH  25  26
ATOM     26  O   UNL     1      32.780 -25.141 -13.211  0.00  0.00    -0.480 OA
ATOM     27  H   UNL     1      32.513 -25.396 -12.350  0.00  0.00    +0.295 HD
ENDBRANCH  25  26
ENDBRANCH  23  25
ENDBRANCH  22  23
ENDBRANCH  21  22
ENDBRANCH  20  21
ENDBRANCH  19  20
ENDBRANCH   1  19
TORSDOF 14
ENDMDL
