MODEL 1
REMARK VINA RESULT:      -8.0      0.000      0.000
REMARK  Name = 3487
REMARK  2 active torsions:
REMARK  status: ('A' for Active; 'I' for Inactive)
REMARK    1  A    between atoms: C_4  and  C_10
REMARK    2  A    between atoms: C_4  and  C_16
REMARK                            x       y       z     vdW  Elec       q    Type
REMARK                         _______ _______ _______ _____ _____    ______ ____
ROOT
ATOM      1  O   UNL     1      31.323  -8.352 -24.535  0.00  0.00    -0.274 OA
ATOM      2  O   UNL     1      29.940  -4.954 -21.767  0.00  0.00    -0.275 OA
ATOM      3  N   UNL     1      30.683  -6.660 -23.125  0.00  0.00    -0.255 N 
ATOM      4  C   UNL     1      32.567  -8.140 -22.456  0.00  0.00    +0.088 C 
ATOM      5  C   UNL     1      33.032  -6.853 -21.737  0.00  0.00    +0.022 C 
ATOM      6  C   UNL     1      31.873  -6.159 -21.038  0.00  0.00    +0.086 C 
ATOM      7  C   UNL     1      31.496  -7.736 -23.482  0.00  0.00    +0.231 C 
ATOM      8  C   UNL     1      30.755  -5.847 -21.999  0.00  0.00    +0.228 C 
ATOM      9  H   UNL     1      29.960  -6.447 -23.756  0.00  0.00    +0.158 HD
ENDROOT
BRANCH   4  10
ATOM     10  C   UNL     1      32.074  -9.212 -21.469  0.00  0.00    -0.015 C 
ATOM     11  C   UNL     1      32.321  -9.061 -20.108  0.00  0.00    -0.004 C 
ATOM     12  C   UNL     1      31.386 -10.323 -21.944  0.00  0.00    -0.004 C 
ATOM     13  C   UNL     1      31.875 -10.033 -19.213  0.00  0.00    -0.000 C 
ATOM     14  C   UNL     1      30.940 -11.294 -21.048  0.00  0.00    -0.000 C 
ATOM     15  C   UNL     1      31.184 -11.150 -19.683  0.00  0.00    -0.000 C 
ENDBRANCH   4  10
BRANCH   4  16
ATOM     16  C   UNL     1      33.765  -8.715 -23.249  0.00  0.00    +0.013 C 
ATOM     17  C   UNL     1      34.793  -7.644 -23.541  0.00  0.00    +0.001 C 
ENDBRANCH   4  16
TORSDOF 2
ENDMDL
MODEL 2
REMARK VINA RESULT:      -7.5      8.947     10.963
REMARK  Name = 3487
REMARK  2 active torsions:
REMARK  status: ('A' for Active; 'I' for Inactive)
REMARK    1  A    between atoms: C_4  and  C_10
REMARK    2  A    between atoms: C_4  and  C_16
REMARK                            x       y       z     vdW  Elec       q    Type
REMARK                         _______ _______ _______ _____ _____    ______ ____
ROOT
ATOM      1  O   UNL     1      37.343 -18.411 -22.108  0.00  0.00    -0.274 OA
ATOM      2  O   UNL     1      34.684 -20.853 -19.264  0.00  0.00    -0.275 OA
ATOM      3  N   UNL     1      35.972 -19.625 -20.727  0.00  0.00    -0.255 N 
ATOM      4  C   UNL     1      34.952 -18.241 -22.525  0.00  0.00    +0.088 C 
ATOM      5  C   UNL     1      33.882 -19.354 -22.470  0.00  0.00    +0.022 C 
ATOM      6  C   UNL     1      33.539 -19.724 -21.035  0.00  0.00    +0.086 C 
ATOM      7  C   UNL     1      36.203 -18.765 -21.800  0.00  0.00    +0.231 C 
ATOM      8  C   UNL     1      34.766 -20.139 -20.264  0.00  0.00    +0.228 C 
ATOM      9  H   UNL     1      36.771 -19.906 -20.228  0.00  0.00    +0.158 HD
ENDROOT
BRANCH   4  10
ATOM     10  C   UNL     1      34.439 -16.912 -21.944  0.00  0.00    -0.015 C 
ATOM     11  C   UNL     1      33.525 -16.151 -22.666  0.00  0.00    -0.004 C 
ATOM     12  C   UNL     1      34.893 -16.480 -20.703  0.00  0.00    -0.004 C 
ATOM     13  C   UNL     1      33.060 -14.946 -22.140  0.00  0.00    -0.000 C 
ATOM     14  C   UNL     1      34.427 -15.275 -20.177  0.00  0.00    -0.000 C 
ATOM     15  C   UNL     1      33.511 -14.508 -20.896  0.00  0.00    -0.000 C 
ENDBRANCH   4  10
BRANCH   4  16
ATOM     16  C   UNL     1      35.344 -18.012 -24.004  0.00  0.00    +0.013 C 
ATOM     17  C   UNL     1      34.532 -18.895 -24.927  0.00  0.00    +0.001 C 
ENDBRANCH   4  16
TORSDOF 2
ENDMDL
MODEL 3
REMARK VINA RESULT:      -7.5     16.654     18.955
REMARK  Name = 3487
REMARK  2 active torsions:
REMARK  status: ('A' for Active; 'I' for Inactive)
REMARK    1  A    between atoms: C_4  and  C_10
REMARK    2  A    between atoms: C_4  and  C_16
REMARK                            x       y       z     vdW  Elec       q    Type
REMARK                         _______ _______ _______ _____ _____    ______ ____
ROOT
ATOM      1  O   UNL     1      39.731 -24.688 -13.357  0.00  0.00    -0.274 OA
ATOM      2  O   UNL     1      36.928 -22.785 -10.251  0.00  0.00    -0.275 OA
ATOM      3  N   UNL     1      38.289 -23.772 -11.827  0.00  0.00    -0.255 N 
ATOM      4  C   UNL     1      37.356 -25.013 -13.770  0.00  0.00    +0.088 C 
ATOM      5  C   UNL     1      36.233 -25.321 -12.753  0.00  0.00    +0.022 C 
ATOM      6  C   UNL     1      35.858 -24.083 -11.951  0.00  0.00    +0.086 C 
ATOM      7  C   UNL     1      38.572 -24.506 -12.978  0.00  0.00    +0.231 C 
ATOM      8  C   UNL     1      37.055 -23.497 -11.248  0.00  0.00    +0.228 C 
ATOM      9  H   UNL     1      39.069 -23.397 -11.360  0.00  0.00    +0.158 HD
ENDROOT
BRANCH   4  10
ATOM     10  C   UNL     1      36.900 -24.027 -14.859  0.00  0.00    -0.015 C 
ATOM     11  C   UNL     1      35.547 -23.917 -15.166  0.00  0.00    -0.004 C 
ATOM     12  C   UNL     1      37.842 -23.254 -15.528  0.00  0.00    -0.004 C 
ATOM     13  C   UNL     1      35.134 -23.024 -16.154  0.00  0.00    -0.000 C 
ATOM     14  C   UNL     1      37.428 -22.361 -16.516  0.00  0.00    -0.000 C 
ATOM     15  C   UNL     1      36.074 -22.245 -16.829  0.00  0.00    -0.000 C 
ENDBRANCH   4  10
BRANCH   4  16
ATOM     16  C   UNL     1      37.774 -26.339 -14.451  0.00  0.00    +0.013 C 
ATOM     17  C   UNL     1      36.672 -26.865 -15.345  0.00  0.00    +0.001 C 
ENDBRANCH   4  16
TORSDOF 2
ENDMDL
MODEL 4
REMARK VINA RESULT:      -7.4      2.471      5.266
REMARK  Name = 3487
REMARK  2 active torsions:
REMARK  status: ('A' for Active; 'I' for Inactive)
REMARK    1  A    between atoms: C_4  and  C_10
REMARK    2  A    between atoms: C_4  and  C_16
REMARK                            x       y       z     vdW  Elec       q    Type
REMARK                         _______ _______ _______ _____ _____    ______ ____
ROOT
ATOM      1  O   UNL     1      30.940  -9.104 -22.997  0.00  0.00    -0.274 OA
ATOM      2  O   UNL     1      35.020 -10.186 -24.816  0.00  0.00    -0.275 OA
ATOM      3  N   UNL     1      33.001  -9.600 -23.875  0.00  0.00    -0.255 N 
ATOM      4  C   UNL     1      32.645  -7.379 -22.814  0.00  0.00    +0.088 C 
ATOM      5  C   UNL     1      34.148  -7.538 -22.492  0.00  0.00    +0.022 C 
ATOM      6  C   UNL     1      34.917  -8.079 -23.689  0.00  0.00    +0.086 C 
ATOM      7  C   UNL     1      32.106  -8.764 -23.208  0.00  0.00    +0.231 C 
ATOM      8  C   UNL     1      34.343  -9.387 -24.169  0.00  0.00    +0.228 C 
ATOM      9  H   UNL     1      32.631 -10.460 -24.179  0.00  0.00    +0.158 HD
ENDROOT
BRANCH   4  10
ATOM     10  C   UNL     1      32.391  -6.312 -23.893  0.00  0.00    -0.015 C 
ATOM     11  C   UNL     1      31.234  -5.541 -23.842  0.00  0.00    -0.004 C 
ATOM     12  C   UNL     1      33.319  -6.125 -24.911  0.00  0.00    -0.004 C 
ATOM     13  C   UNL     1      31.003  -4.575 -24.820  0.00  0.00    -0.000 C 
ATOM     14  C   UNL     1      33.088  -5.158 -25.889  0.00  0.00    -0.000 C 
ATOM     15  C   UNL     1      31.930  -4.382 -25.844  0.00  0.00    -0.000 C 
ENDBRANCH   4  10
BRANCH   4  16
ATOM     16  C   UNL     1      31.911  -6.953 -21.520  0.00  0.00    +0.013 C 
ATOM     17  C   UNL     1      32.588  -7.528 -20.294  0.00  0.00    +0.001 C 
ENDBRANCH   4  16
TORSDOF 2
ENDMDL
MODEL 5
REMARK VINA RESULT:      -7.4      2.471      5.282
REMARK  Name = 3487
REMARK  2 active torsions:
REMARK  status: ('A' for Active; 'I' for Inactive)
REMARK    1  A    between atoms: C_4  and  C_10
REMARK    2  A    between atoms: C_4  and  C_16
REMARK                            x       y       z     vdW  Elec       q    Type
REMARK                         _______ _______ _______ _____ _____    ______ ____
ROOT
ATOM      1  O   UNL     1      30.940  -9.111 -22.997  0.00  0.00    -0.274 OA
ATOM      2  O   UNL     1      35.024 -10.181 -24.812  0.00  0.00    -0.275 OA
ATOM      3  N   UNL     1      33.002  -9.601 -23.872  0.00  0.00    -0.255 N 
ATOM      4  C   UNL     1      32.639  -7.379 -22.815  0.00  0.00    +0.088 C 
ATOM      5  C   UNL     1      34.143  -7.534 -22.492  0.00  0.00    +0.022 C 
ATOM      6  C   UNL     1      34.913  -8.073 -23.687  0.00  0.00    +0.086 C 
ATOM      7  C   UNL     1      32.105  -8.767 -23.207  0.00  0.00    +0.231 C 
ATOM      8  C   UNL     1      34.344  -9.383 -24.166  0.00  0.00    +0.228 C 
ATOM      9  H   UNL     1      32.636 -10.462 -24.177  0.00  0.00    +0.158 HD
ENDROOT
BRANCH   4  10
ATOM     10  C   UNL     1      32.382  -6.314 -23.894  0.00  0.00    -0.015 C 
ATOM     11  C   UNL     1      33.314  -6.123 -24.909  0.00  0.00    -0.004 C 
ATOM     12  C   UNL     1      31.221  -5.550 -23.848  0.00  0.00    -0.004 C 
ATOM     13  C   UNL     1      33.082  -5.157 -25.888  0.00  0.00    -0.000 C 
ATOM     14  C   UNL     1      30.990  -4.584 -24.827  0.00  0.00    -0.000 C 
ATOM     15  C   UNL     1      31.920  -4.387 -25.847  0.00  0.00    -0.000 C 
ENDBRANCH   4  10
BRANCH   4  16
ATOM     16  C   UNL     1      31.903  -6.956 -21.521  0.00  0.00    +0.013 C 
ATOM     17  C   UNL     1      32.586  -7.520 -20.294  0.00  0.00    +0.001 C 
ENDBRANCH   4  16
TORSDOF 2
ENDMDL
MODEL 6
REMARK VINA RESULT:      -7.4     17.480     19.210
REMARK  Name = 3487
REMARK  2 active torsions:
REMARK  status: ('A' for Active; 'I' for Inactive)
REMARK    1  A    between atoms: C_4  and  C_10
REMARK    2  A    between atoms: C_4  and  C_16
REMARK                            x       y       z     vdW  Elec       q    Type
REMARK                         _______ _______ _______ _____ _____    ______ ____
ROOT
ATOM      1  O   UNL     1      36.019 -25.594 -11.260  0.00  0.00    -0.274 OA
ATOM      2  O   UNL     1      38.034 -27.566 -14.890  0.00  0.00    -0.275 OA
ATOM      3  N   UNL     1      37.039 -26.525 -13.092  0.00  0.00    -0.255 N 
ATOM      4  C   UNL     1      36.423 -24.116 -13.149  0.00  0.00    +0.088 C 
ATOM      5  C   UNL     1      37.659 -24.050 -14.075  0.00  0.00    +0.022 C 
ATOM      6  C   UNL     1      37.675 -25.207 -15.062  0.00  0.00    +0.086 C 
ATOM      7  C   UNL     1      36.482 -25.454 -12.394  0.00  0.00    +0.231 C 
ATOM      8  C   UNL     1      37.622 -26.537 -14.354  0.00  0.00    +0.228 C 
ATOM      9  H   UNL     1      37.015 -27.392 -12.628  0.00  0.00    +0.158 HD
ENDROOT
BRANCH   4  10
ATOM     10  C   UNL     1      35.107 -23.924 -13.921  0.00  0.00    -0.015 C 
ATOM     11  C   UNL     1      35.124 -23.315 -15.173  0.00  0.00    -0.004 C 
ATOM     12  C   UNL     1      33.910 -24.358 -13.363  0.00  0.00    -0.004 C 
ATOM     13  C   UNL     1      33.931 -23.140 -15.872  0.00  0.00    -0.000 C 
ATOM     14  C   UNL     1      32.716 -24.183 -14.064  0.00  0.00    -0.000 C 
ATOM     15  C   UNL     1      32.727 -23.573 -15.319  0.00  0.00    -0.000 C 
ENDBRANCH   4  10
BRANCH   4  16
ATOM     16  C   UNL     1      36.543 -22.990 -12.094  0.00  0.00    +0.013 C 
ATOM     17  C   UNL     1      37.990 -22.726 -11.739  0.00  0.00    +0.001 C 
ENDBRANCH   4  16
TORSDOF 2
ENDMDL
MODEL 7
REMARK VINA RESULT:      -7.3     16.681     18.443
REMARK  Name = 3487
REMARK  2 active torsions:
REMARK  status: ('A' for Active; 'I' for Inactive)
REMARK    1  A    between atoms: C_4  and  C_10
REMARK    2  A    between atoms: C_4  and  C_16
REMARK                            x       y       z     vdW  Elec       q    Type
REMARK                         _______ _______ _______ _____ _____    ______ ____
ROOT
ATOM      1  O   UNL     1      37.877 -23.465 -15.309  0.00  0.00    -0.274 OA
ATOM      2  O   UNL     1      37.189 -22.392 -10.893  0.00  0.00    -0.275 OA
ATOM      3  N   UNL     1      37.506 -22.980 -13.098  0.00  0.00    -0.255 N 
ATOM      4  C   UNL     1      36.161 -24.770 -14.182  0.00  0.00    +0.088 C 
ATOM      5  C   UNL     1      36.171 -25.341 -12.746  0.00  0.00    +0.022 C 
ATOM      6  C   UNL     1      35.928 -24.250 -11.714  0.00  0.00    +0.086 C 
ATOM      7  C   UNL     1      37.268 -23.706 -14.265  0.00  0.00    +0.231 C 
ATOM      8  C   UNL     1      36.933 -23.136 -11.840  0.00  0.00    +0.228 C 
ATOM      9  H   UNL     1      38.170 -22.259 -13.175  0.00  0.00    +0.158 HD
ENDROOT
BRANCH   4  10
ATOM     10  C   UNL     1      34.779 -24.225 -14.582  0.00  0.00    -0.015 C 
ATOM     11  C   UNL     1      33.731 -24.269 -13.668  0.00  0.00    -0.004 C 
ATOM     12  C   UNL     1      34.588 -23.694 -15.852  0.00  0.00    -0.004 C 
ATOM     13  C   UNL     1      32.477 -23.776 -14.031  0.00  0.00    -0.000 C 
ATOM     14  C   UNL     1      33.335 -23.200 -16.214  0.00  0.00    -0.000 C 
ATOM     15  C   UNL     1      32.278 -23.242 -15.303  0.00  0.00    -0.000 C 
ENDBRANCH   4  10
BRANCH   4  16
ATOM     16  C   UNL     1      36.544 -25.905 -15.162  0.00  0.00    +0.013 C 
ATOM     17  C   UNL     1      37.487 -26.893 -14.511  0.00  0.00    +0.001 C 
ENDBRANCH   4  16
TORSDOF 2
ENDMDL
MODEL 8
REMARK VINA RESULT:      -7.3      1.889      3.974
REMARK  Name = 3487
REMARK  2 active torsions:
REMARK  status: ('A' for Active; 'I' for Inactive)
REMARK    1  A    between atoms: C_4  and  C_10
REMARK    2  A    between atoms: C_4  and  C_16
REMARK                            x       y       z     vdW  Elec       q    Type
REMARK                         _______ _______ _______ _____ _____    ______ ____
ROOT
ATOM      1  O   UNL     1      33.064  -7.778 -20.404  0.00  0.00    -0.274 OA
ATOM      2  O   UNL     1      30.855  -5.272 -23.560  0.00  0.00    -0.275 OA
ATOM      3  N   UNL     1      31.935  -6.576 -21.998  0.00  0.00    -0.255 N 
ATOM      4  C   UNL     1      32.078  -9.048 -22.229  0.00  0.00    +0.088 C 
ATOM      5  C   UNL     1      30.712  -8.841 -22.921  0.00  0.00    +0.022 C 
ATOM      6  C   UNL     1      30.740  -7.642 -23.857  0.00  0.00    +0.086 C 
ATOM      7  C   UNL     1      32.397  -7.767 -21.440  0.00  0.00    +0.231 C 
ATOM      8  C   UNL     1      31.157  -6.387 -23.135  0.00  0.00    +0.228 C 
ATOM      9  H   UNL     1      32.197  -5.755 -21.522  0.00  0.00    +0.158 HD
ENDROOT
BRANCH   4  10
ATOM     10  C   UNL     1      33.185  -9.423 -23.230  0.00  0.00    -0.015 C 
ATOM     11  C   UNL     1      33.197 -10.692 -23.800  0.00  0.00    -0.004 C 
ATOM     12  C   UNL     1      34.166  -8.493 -23.555  0.00  0.00    -0.004 C 
ATOM     13  C   UNL     1      34.201 -11.033 -24.706  0.00  0.00    -0.000 C 
ATOM     14  C   UNL     1      35.169  -8.834 -24.462  0.00  0.00    -0.000 C 
ATOM     15  C   UNL     1      35.188 -10.104 -25.037  0.00  0.00    -0.000 C 
ENDBRANCH   4  10
BRANCH   4  16
ATOM     16  C   UNL     1      31.936 -10.195 -21.201  0.00  0.00    +0.013 C 
ATOM     17  C   UNL     1      30.707 -11.032 -21.482  0.00  0.00    +0.001 C 
ENDBRANCH   4  16
TORSDOF 2
ENDMDL
MODEL 9
REMARK VINA RESULT:      -7.2      9.450     11.499
REMARK  Name = 3487
REMARK  2 active torsions:
REMARK  status: ('A' for Active; 'I' for Inactive)
REMARK    1  A    between atoms: C_4  and  C_10
REMARK    2  A    between atoms: C_4  and  C_16
REMARK                            x       y       z     vdW  Elec       q    Type
REMARK                         _______ _______ _______ _____ _____    ______ ____
ROOT
ATOM      1  O   UNL     1      32.424 -19.210 -20.696  0.00  0.00    -0.274 OA
ATOM      2  O   UNL     1      36.443 -21.396 -20.261  0.00  0.00    -0.275 OA
ATOM      3  N   UNL     1      34.457 -20.249 -20.482  0.00  0.00    -0.255 N 
ATOM      4  C   UNL     1      34.379 -17.919 -21.349  0.00  0.00    +0.088 C 
ATOM      5  C   UNL     1      35.764 -17.854 -20.665  0.00  0.00    +0.022 C 
ATOM      6  C   UNL     1      36.579 -19.108 -20.944  0.00  0.00    +0.086 C 
ATOM      7  C   UNL     1      33.651 -19.157 -20.801  0.00  0.00    +0.231 C 
ATOM      8  C   UNL     1      35.843 -20.352 -20.517  0.00  0.00    +0.228 C 
ATOM      9  H   UNL     1      33.980 -21.059 -20.193  0.00  0.00    +0.158 HD
ENDROOT
BRANCH   4  10
ATOM     10  C   UNL     1      34.488 -17.921 -22.883  0.00  0.00    -0.015 C 
ATOM     11  C   UNL     1      34.655 -16.718 -23.563  0.00  0.00    -0.004 C 
ATOM     12  C   UNL     1      34.417 -19.122 -23.579  0.00  0.00    -0.004 C 
ATOM     13  C   UNL     1      34.753 -16.720 -24.954  0.00  0.00    -0.000 C 
ATOM     14  C   UNL     1      34.515 -19.123 -24.970  0.00  0.00    -0.000 C 
ATOM     15  C   UNL     1      34.683 -17.921 -25.658  0.00  0.00    -0.000 C 
ENDBRANCH   4  10
BRANCH   4  16
ATOM     16  C   UNL     1      33.562 -16.679 -20.915  0.00  0.00    +0.013 C 
ATOM     17  C   UNL     1      34.465 -15.594 -20.368  0.00  0.00    +0.001 C 
ENDBRANCH   4  16
TORSDOF 2
ENDMDL
