MODEL 1
REMARK VINA RESULT:      -6.3      0.000      0.000
REMARK  Name = 5289570
REMARK  5 active torsions:
REMARK  status: ('A' for Active; 'I' for Inactive)
REMARK    1  A    between atoms: C_2  and  O_9
REMARK    2  A    between atoms: C_3  and  O_11
REMARK    3  A    between atoms: C_4  and  O_13
REMARK    4  A    between atoms: C_5  and  C_8
REMARK    5  A    between atoms: C_6  and  O_15
REMARK                            x       y       z     vdW  Elec       q    Type
REMARK                         _______ _______ _______ _____ _____    ______ ____
ROOT
ATOM      1  O   UNL     1      37.000 -24.823 -14.226  0.00  0.00    -0.328 OA
ATOM      2  C   UNL     1      35.954 -24.437 -11.580  0.00  0.00    +0.171 C 
ATOM      3  C   UNL     1      37.231 -25.235 -11.848  0.00  0.00    +0.168 C 
ATOM      4  C   UNL     1      35.045 -24.432 -12.812  0.00  0.00    +0.196 C 
ATOM      5  C   UNL     1      37.889 -24.710 -13.121  0.00  0.00    +0.159 C 
ATOM      6  C   UNL     1      35.827 -24.026 -14.067  0.00  0.00    +0.266 C 
ENDROOT
BRANCH   5   8
ATOM      7  S   UNL     1      39.893 -25.318 -14.939  0.00  0.00    -0.079 S 
ATOM      8  C   UNL     1      39.100 -25.511 -13.479  0.00  0.00    +0.101 C 
ENDBRANCH   5   8
BRANCH   2   9
ATOM      9  O   UNL     1      35.277 -25.011 -10.465  0.00  0.00    -0.379 OA
ATOM     10  H   UNL     1      35.781 -24.837  -9.655  0.00  0.00    +0.211 HD
ENDBRANCH   2   9
BRANCH   3  11
ATOM     11  O   UNL     1      36.896 -26.614 -12.035  0.00  0.00    -0.379 OA
ATOM     12  H   UNL     1      36.349 -26.917 -11.293  0.00  0.00    +0.211 HD
ENDBRANCH   3  11
BRANCH   4  13
ATOM     13  O   UNL     1      33.991 -23.489 -12.620  0.00  0.00    -0.378 OA
ATOM     14  H   UNL     1      33.897 -22.942 -13.416  0.00  0.00    +0.211 HD
ENDBRANCH   4  13
BRANCH   6  15
ATOM     15  O   UNL     1      34.967 -24.202 -15.194  0.00  0.00    -0.326 OA
ATOM     16  C   UNL     1      35.000 -23.071 -16.050  0.00  0.00    +0.177 C 
ENDBRANCH   6  15
TORSDOF 5
ENDMDL
MODEL 2
REMARK VINA RESULT:      -6.1      2.273      3.749
REMARK  Name = 5289570
REMARK  5 active torsions:
REMARK  status: ('A' for Active; 'I' for Inactive)
REMARK    1  A    between atoms: C_2  and  O_9
REMARK    2  A    between atoms: C_3  and  O_11
REMARK    3  A    between atoms: C_4  and  O_13
REMARK    4  A    between atoms: C_5  and  C_8
REMARK    5  A    between atoms: C_6  and  O_15
REMARK                            x       y       z     vdW  Elec       q    Type
REMARK                         _______ _______ _______ _____ _____    ______ ____
ROOT
ATOM      1  O   UNL     1      38.217 -24.525 -15.144  0.00  0.00    -0.328 OA
ATOM      2  C   UNL     1      35.980 -25.121 -13.444  0.00  0.00    +0.171 C 
ATOM      3  C   UNL     1      36.286 -23.703 -13.930  0.00  0.00    +0.168 C 
ATOM      4  C   UNL     1      37.248 -25.979 -13.435  0.00  0.00    +0.196 C 
ATOM      5  C   UNL     1      37.010 -23.780 -15.270  0.00  0.00    +0.159 C 
ATOM      6  C   UNL     1      37.983 -25.884 -14.778  0.00  0.00    +0.266 C 
ENDROOT
BRANCH   5   8
ATOM      7  S   UNL     1      36.862 -21.798 -17.203  0.00  0.00    -0.079 S 
ATOM      8  C   UNL     1      37.410 -22.422 -15.752  0.00  0.00    +0.101 C 
ENDBRANCH   5   8
BRANCH   2   9
ATOM      9  O   UNL     1      35.418 -25.050 -12.136  0.00  0.00    -0.379 OA
ATOM     10  H   UNL     1      35.294 -24.121 -11.887  0.00  0.00    +0.211 HD
ENDBRANCH   2   9
BRANCH   3  11
ATOM     11  O   UNL     1      37.136 -23.051 -12.980  0.00  0.00    -0.379 OA
ATOM     12  H   UNL     1      37.082 -23.513 -12.128  0.00  0.00    +0.211 HD
ENDBRANCH   3  11
BRANCH   4  13
ATOM     13  O   UNL     1      36.895 -27.345 -13.218  0.00  0.00    -0.378 OA
ATOM     14  H   UNL     1      37.201 -27.882 -13.966  0.00  0.00    +0.211 HD
ENDBRANCH   4  13
BRANCH   6  15
ATOM     15  O   UNL     1      39.230 -26.569 -14.642  0.00  0.00    -0.326 OA
ATOM     16  C   UNL     1      40.261 -25.684 -14.232  0.00  0.00    +0.177 C 
ENDBRANCH   6  15
TORSDOF 5
ENDMDL
MODEL 3
REMARK VINA RESULT:      -6.0      2.316      4.024
REMARK  Name = 5289570
REMARK  5 active torsions:
REMARK  status: ('A' for Active; 'I' for Inactive)
REMARK    1  A    between atoms: C_2  and  O_9
REMARK    2  A    between atoms: C_3  and  O_11
REMARK    3  A    between atoms: C_4  and  O_13
REMARK    4  A    between atoms: C_5  and  C_8
REMARK    5  A    between atoms: C_6  and  O_15
REMARK                            x       y       z     vdW  Elec       q    Type
REMARK                         _______ _______ _______ _____ _____    ______ ____
ROOT
ATOM      1  O   UNL     1      37.642 -23.041 -14.516  0.00  0.00    -0.328 OA
ATOM      2  C   UNL     1      35.392 -24.820 -14.673  0.00  0.00    +0.171 C 
ATOM      3  C   UNL     1      35.468 -23.522 -15.477  0.00  0.00    +0.168 C 
ATOM      4  C   UNL     1      36.264 -24.735 -13.417  0.00  0.00    +0.196 C 
ATOM      5  C   UNL     1      36.932 -23.183 -15.742  0.00  0.00    +0.159 C 
ATOM      6  C   UNL     1      37.678 -24.253 -13.762  0.00  0.00    +0.266 C 
ENDROOT
BRANCH   5   8
ATOM      7  S   UNL     1      36.573 -21.670 -18.037  0.00  0.00    -0.079 S 
ATOM      8  C   UNL     1      37.070 -21.876 -16.454  0.00  0.00    +0.101 C 
ENDBRANCH   5   8
BRANCH   2   9
ATOM      9  O   UNL     1      34.034 -25.066 -14.319  0.00  0.00    -0.379 OA
ATOM     10  H   UNL     1      33.479 -24.340 -14.644  0.00  0.00    +0.211 HD
ENDBRANCH   2   9
BRANCH   3  11
ATOM     11  O   UNL     1      34.877 -22.461 -14.720  0.00  0.00    -0.379 OA
ATOM     12  H   UNL     1      34.603 -22.798 -13.852  0.00  0.00    +0.211 HD
ENDBRANCH   3  11
BRANCH   4  13
ATOM     13  O   UNL     1      36.368 -26.029 -12.822  0.00  0.00    -0.378 OA
ATOM     14  H   UNL     1      36.305 -25.947 -11.857  0.00  0.00    +0.211 HD
ENDBRANCH   4  13
BRANCH   6  15
ATOM     15  O   UNL     1      38.379 -24.039 -12.537  0.00  0.00    -0.326 OA
ATOM     16  C   UNL     1      37.778 -23.004 -11.774  0.00  0.00    +0.177 C 
ENDBRANCH   6  15
TORSDOF 5
ENDMDL
MODEL 4
REMARK VINA RESULT:      -5.8      2.067      3.235
REMARK  Name = 5289570
REMARK  5 active torsions:
REMARK  status: ('A' for Active; 'I' for Inactive)
REMARK    1  A    between atoms: C_2  and  O_9
REMARK    2  A    between atoms: C_3  and  O_11
REMARK    3  A    between atoms: C_4  and  O_13
REMARK    4  A    between atoms: C_5  and  C_8
REMARK    5  A    between atoms: C_6  and  O_15
REMARK                            x       y       z     vdW  Elec       q    Type
REMARK                         _______ _______ _______ _____ _____    ______ ____
ROOT
ATOM      1  O   UNL     1      35.728 -23.374 -14.251  0.00  0.00    -0.328 OA
ATOM      2  C   UNL     1      37.819 -25.002 -13.142  0.00  0.00    +0.171 C 
ATOM      3  C   UNL     1      37.902 -24.405 -14.548  0.00  0.00    +0.168 C 
ATOM      4  C   UNL     1      36.360 -25.156 -12.701  0.00  0.00    +0.196 C 
ATOM      5  C   UNL     1      37.085 -23.117 -14.593  0.00  0.00    +0.159 C 
ATOM      6  C   UNL     1      35.583 -23.851 -12.913  0.00  0.00    +0.266 C 
ENDROOT
BRANCH   5   8
ATOM      7  S   UNL     1      35.658 -22.451 -16.876  0.00  0.00    -0.079 S 
ATOM      8  C   UNL     1      37.062 -22.534 -15.970  0.00  0.00    +0.101 C 
ENDBRANCH   5   8
BRANCH   2   9
ATOM      9  O   UNL     1      38.476 -26.266 -13.137  0.00  0.00    -0.379 OA
ATOM     10  H   UNL     1      39.000 -26.355 -12.326  0.00  0.00    +0.211 HD
ENDBRANCH   2   9
BRANCH   3  11
ATOM     11  O   UNL     1      37.354 -25.334 -15.489  0.00  0.00    -0.379 OA
ATOM     12  H   UNL     1      37.383 -24.947 -16.379  0.00  0.00    +0.211 HD
ENDBRANCH   3  11
BRANCH   4  13
ATOM     13  O   UNL     1      36.317 -25.479 -11.312  0.00  0.00    -0.378 OA
ATOM     14  H   UNL     1      35.562 -26.065 -11.139  0.00  0.00    +0.211 HD
ENDBRANCH   4  13
BRANCH   6  15
ATOM     15  O   UNL     1      34.206 -24.114 -12.640  0.00  0.00    -0.326 OA
ATOM     16  C   UNL     1      33.450 -24.192 -13.839  0.00  0.00    +0.177 C 
ENDBRANCH   6  15
TORSDOF 5
ENDMDL
MODEL 5
REMARK VINA RESULT:      -5.7     13.660     15.453
REMARK  Name = 5289570
REMARK  5 active torsions:
REMARK  status: ('A' for Active; 'I' for Inactive)
REMARK    1  A    between atoms: C_2  and  O_9
REMARK    2  A    between atoms: C_3  and  O_11
REMARK    3  A    between atoms: C_4  and  O_13
REMARK    4  A    between atoms: C_5  and  C_8
REMARK    5  A    between atoms: C_6  and  O_15
REMARK                            x       y       z     vdW  Elec       q    Type
REMARK                         _______ _______ _______ _____ _____    ______ ____
ROOT
ATOM      1  O   UNL     1      32.964 -14.062 -24.910  0.00  0.00    -0.328 OA
ATOM      2  C   UNL     1      34.349 -16.251 -23.671  0.00  0.00    +0.171 C 
ATOM      3  C   UNL     1      33.939 -14.997 -22.897  0.00  0.00    +0.168 C 
ATOM      4  C   UNL     1      34.501 -15.945 -25.163  0.00  0.00    +0.196 C 
ATOM      5  C   UNL     1      32.701 -14.390 -23.551  0.00  0.00    +0.159 C 
ATOM      6  C   UNL     1      33.267 -15.211 -25.701  0.00  0.00    +0.266 C 
ENDROOT
BRANCH   5   8
ATOM      7  S   UNL     1      32.076 -13.004 -21.232  0.00  0.00    -0.079 S 
ATOM      8  C   UNL     1      32.305 -13.111 -22.885  0.00  0.00    +0.101 C 
ENDBRANCH   5   8
BRANCH   2   9
ATOM      9  O   UNL     1      35.576 -16.742 -23.137  0.00  0.00    -0.379 OA
ATOM     10  H   UNL     1      35.553 -16.686 -22.169  0.00  0.00    +0.211 HD
ENDBRANCH   2   9
BRANCH   3  11
ATOM     11  O   UNL     1      35.004 -14.041 -22.946  0.00  0.00    -0.379 OA
ATOM     12  H   UNL     1      34.984 -13.494 -22.145  0.00  0.00    +0.211 HD
ENDBRANCH   3  11
BRANCH   4  13
ATOM     13  O   UNL     1      34.641 -17.168 -25.886  0.00  0.00    -0.378 OA
ATOM     14  H   UNL     1      34.806 -16.973 -26.823  0.00  0.00    +0.211 HD
ENDBRANCH   4  13
BRANCH   6  15
ATOM     15  O   UNL     1      33.545 -14.813 -27.044  0.00  0.00    -0.326 OA
ATOM     16  C   UNL     1      33.370 -13.415 -27.214  0.00  0.00    +0.177 C 
ENDBRANCH   6  15
TORSDOF 5
ENDMDL
MODEL 6
REMARK VINA RESULT:      -5.7      2.372      3.153
REMARK  Name = 5289570
REMARK  5 active torsions:
REMARK  status: ('A' for Active; 'I' for Inactive)
REMARK    1  A    between atoms: C_2  and  O_9
REMARK    2  A    between atoms: C_3  and  O_11
REMARK    3  A    between atoms: C_4  and  O_13
REMARK    4  A    between atoms: C_5  and  C_8
REMARK    5  A    between atoms: C_6  and  O_15
REMARK                            x       y       z     vdW  Elec       q    Type
REMARK                         _______ _______ _______ _____ _____    ______ ____
ROOT
ATOM      1  O   UNL     1      35.030 -23.018 -15.916  0.00  0.00    -0.328 OA
ATOM      2  C   UNL     1      35.713 -24.484 -13.543  0.00  0.00    +0.171 C 
ATOM      3  C   UNL     1      36.759 -24.066 -14.578  0.00  0.00    +0.168 C 
ATOM      4  C   UNL     1      34.326 -24.590 -14.182  0.00  0.00    +0.196 C 
ATOM      5  C   UNL     1      36.285 -22.798 -15.282  0.00  0.00    +0.159 C 
ATOM      6  C   UNL     1      33.994 -23.326 -14.984  0.00  0.00    +0.266 C 
ENDROOT
BRANCH   5   8
ATOM      7  S   UNL     1      36.700 -21.716 -17.801  0.00  0.00    -0.079 S 
ATOM      8  C   UNL     1      37.231 -22.390 -16.365  0.00  0.00    +0.101 C 
ENDBRANCH   5   8
BRANCH   2   9
ATOM      9  O   UNL     1      36.097 -25.734 -12.978  0.00  0.00    -0.379 OA
ATOM     10  H   UNL     1      35.311 -26.196 -12.648  0.00  0.00    +0.211 HD
ENDBRANCH   2   9
BRANCH   3  11
ATOM     11  O   UNL     1      36.906 -25.107 -15.549  0.00  0.00    -0.379 OA
ATOM     12  H   UNL     1      37.146 -24.718 -16.405  0.00  0.00    +0.211 HD
ENDBRANCH   3  11
BRANCH   4  13
ATOM     13  O   UNL     1      33.342 -24.739 -13.159  0.00  0.00    -0.378 OA
ATOM     14  H   UNL     1      33.761 -25.085 -12.354  0.00  0.00    +0.211 HD
ENDBRANCH   4  13
BRANCH   6  15
ATOM     15  O   UNL     1      32.770 -23.560 -15.682  0.00  0.00    -0.326 OA
ATOM     16  C   UNL     1      32.902 -23.267 -17.064  0.00  0.00    +0.177 C 
ENDBRANCH   6  15
TORSDOF 5
ENDMDL
MODEL 7
REMARK VINA RESULT:      -5.6     11.639     12.516
REMARK  Name = 5289570
REMARK  5 active torsions:
REMARK  status: ('A' for Active; 'I' for Inactive)
REMARK    1  A    between atoms: C_2  and  O_9
REMARK    2  A    between atoms: C_3  and  O_11
REMARK    3  A    between atoms: C_4  and  O_13
REMARK    4  A    between atoms: C_5  and  C_8
REMARK    5  A    between atoms: C_6  and  O_15
REMARK                            x       y       z     vdW  Elec       q    Type
REMARK                         _______ _______ _______ _____ _____    ______ ____
ROOT
ATOM      1  O   UNL     1      42.678 -14.572 -17.731  0.00  0.00    -0.328 OA
ATOM      2  C   UNL     1      40.827 -14.365 -15.544  0.00  0.00    +0.171 C 
ATOM      3  C   UNL     1      41.762 -13.221 -15.938  0.00  0.00    +0.168 C 
ATOM      4  C   UNL     1      41.400 -15.714 -15.988  0.00  0.00    +0.196 C 
ATOM      5  C   UNL     1      42.072 -13.320 -17.428  0.00  0.00    +0.159 C 
ATOM      6  C   UNL     1      41.812 -15.675 -17.465  0.00  0.00    +0.266 C 
ENDROOT
BRANCH   5   8
ATOM      7  S   UNL     1      42.749 -10.640 -17.653  0.00  0.00    -0.079 S 
ATOM      8  C   UNL     1      43.051 -12.272 -17.853  0.00  0.00    +0.101 C 
ENDBRANCH   5   8
BRANCH   2   9
ATOM      9  O   UNL     1      40.642 -14.345 -14.131  0.00  0.00    -0.379 OA
ATOM     10  H   UNL     1      41.086 -15.111 -13.736  0.00  0.00    +0.211 HD
ENDBRANCH   2   9
BRANCH   3  11
ATOM     11  O   UNL     1      42.985 -13.334 -15.202  0.00  0.00    -0.379 OA
ATOM     12  H   UNL     1      43.728 -13.073 -15.769  0.00  0.00    +0.211 HD
ENDBRANCH   3  11
BRANCH   4  13
ATOM     13  O   UNL     1      40.407 -16.727 -15.830  0.00  0.00    -0.378 OA
ATOM     14  H   UNL     1      40.775 -17.464 -15.316  0.00  0.00    +0.211 HD
ENDBRANCH   4  13
BRANCH   6  15
ATOM     15  O   UNL     1      42.485 -16.899 -17.763  0.00  0.00    -0.326 OA
ATOM     16  C   UNL     1      43.565 -16.688 -18.659  0.00  0.00    +0.177 C 
ENDBRANCH   6  15
TORSDOF 5
ENDMDL
MODEL 8
REMARK VINA RESULT:      -5.6      2.598      4.418
REMARK  Name = 5289570
REMARK  5 active torsions:
REMARK  status: ('A' for Active; 'I' for Inactive)
REMARK    1  A    between atoms: C_2  and  O_9
REMARK    2  A    between atoms: C_3  and  O_11
REMARK    3  A    between atoms: C_4  and  O_13
REMARK    4  A    between atoms: C_5  and  C_8
REMARK    5  A    between atoms: C_6  and  O_15
REMARK                            x       y       z     vdW  Elec       q    Type
REMARK                         _______ _______ _______ _____ _____    ______ ____
ROOT
ATOM      1  O   UNL     1      35.655 -24.025 -13.214  0.00  0.00    -0.328 OA
ATOM      2  C   UNL     1      37.782 -25.024 -14.866  0.00  0.00    +0.171 C 
ATOM      3  C   UNL     1      36.311 -25.124 -15.274  0.00  0.00    +0.168 C 
ATOM      4  C   UNL     1      37.920 -24.933 -13.344  0.00  0.00    +0.196 C 
ATOM      5  C   UNL     1      35.536 -23.977 -14.632  0.00  0.00    +0.159 C 
ATOM      6  C   UNL     1      37.000 -23.847 -12.773  0.00  0.00    +0.266 C 
ENDROOT
BRANCH   5   8
ATOM      7  S   UNL     1      32.933 -24.267 -13.721  0.00  0.00    -0.079 S 
ATOM      8  C   UNL     1      34.074 -24.075 -14.929  0.00  0.00    +0.101 C 
ENDBRANCH   5   8
BRANCH   2   9
ATOM      9  O   UNL     1      38.478 -26.164 -15.361  0.00  0.00    -0.379 OA
ATOM     10  H   UNL     1      37.848 -26.884 -15.519  0.00  0.00    +0.211 HD
ENDBRANCH   2   9
BRANCH   3  11
ATOM     11  O   UNL     1      35.774 -26.365 -14.805  0.00  0.00    -0.379 OA
ATOM     12  H   UNL     1      34.991 -26.597 -15.329  0.00  0.00    +0.211 HD
ENDBRANCH   3  11
BRANCH   4  13
ATOM     13  O   UNL     1      39.266 -24.597 -13.009  0.00  0.00    -0.378 OA
ATOM     14  H   UNL     1      39.509 -25.027 -12.173  0.00  0.00    +0.211 HD
ENDBRANCH   4  13
BRANCH   6  15
ATOM     15  O   UNL     1      37.056 -23.931 -11.348  0.00  0.00    -0.326 OA
ATOM     16  C   UNL     1      35.787 -24.254 -10.802  0.00  0.00    +0.177 C 
ENDBRANCH   6  15
TORSDOF 5
ENDMDL
MODEL 9
REMARK VINA RESULT:      -5.6     13.407     15.277
REMARK  Name = 5289570
REMARK  5 active torsions:
REMARK  status: ('A' for Active; 'I' for Inactive)
REMARK    1  A    between atoms: C_2  and  O_9
REMARK    2  A    between atoms: C_3  and  O_11
REMARK    3  A    between atoms: C_4  and  O_13
REMARK    4  A    between atoms: C_5  and  C_8
REMARK    5  A    between atoms: C_6  and  O_15
REMARK                            x       y       z     vdW  Elec       q    Type
REMARK                         _______ _______ _______ _____ _____    ______ ____
ROOT
ATOM      1  O   UNL     1      33.697 -14.056 -23.566  0.00  0.00    -0.328 OA
ATOM      2  C   UNL     1      33.913 -16.414 -25.191  0.00  0.00    +0.171 C 
ATOM      3  C   UNL     1      34.337 -16.389 -23.722  0.00  0.00    +0.168 C 
ATOM      4  C   UNL     1      33.973 -15.011 -25.800  0.00  0.00    +0.196 C 
ATOM      5  C   UNL     1      33.512 -15.341 -22.982  0.00  0.00    +0.159 C 
ATOM      6  C   UNL     1      33.234 -13.998 -24.916  0.00  0.00    +0.266 C 
ENDROOT
BRANCH   5   8
ATOM      7  S   UNL     1      32.856 -14.912 -20.322  0.00  0.00    -0.079 S 
ATOM      8  C   UNL     1      33.944 -15.213 -21.556  0.00  0.00    +0.101 C 
ENDBRANCH   5   8
BRANCH   2   9
ATOM      9  O   UNL     1      34.770 -17.302 -25.904  0.00  0.00    -0.379 OA
ATOM     10  H   UNL     1      34.983 -18.065 -25.344  0.00  0.00    +0.211 HD
ENDBRANCH   2   9
BRANCH   3  11
ATOM     11  O   UNL     1      35.721 -16.035 -23.635  0.00  0.00    -0.379 OA
ATOM     12  H   UNL     1      36.004 -16.064 -22.707  0.00  0.00    +0.211 HD
ENDBRANCH   3  11
BRANCH   4  13
ATOM     13  O   UNL     1      33.346 -15.022 -27.082  0.00  0.00    -0.378 OA
ATOM     14  H   UNL     1      32.728 -15.769 -27.134  0.00  0.00    +0.211 HD
ENDBRANCH   4  13
BRANCH   6  15
ATOM     15  O   UNL     1      33.471 -12.696 -25.451  0.00  0.00    -0.326 OA
ATOM     16  C   UNL     1      33.826 -11.776 -24.431  0.00  0.00    +0.177 C 
ENDBRANCH   6  15
TORSDOF 5
ENDMDL
