MODEL 1
REMARK VINA RESULT:      -8.8      0.000      0.000
REMARK  Name = 44224257
REMARK  7 active torsions:
REMARK  status: ('A' for Active; 'I' for Inactive)
REMARK    1  A    between atoms: N_5  and  O_24
REMARK    2  A    between atoms: C_6  and  C_18
REMARK    3  A    between atoms: C_6  and  C_26
REMARK    4  A    between atoms: C_7  and  C_12
REMARK    5  A    between atoms: C_26  and  C_27
REMARK    6  A    between atoms: C_27  and  C_28
REMARK    7  A    between atoms: C_28  and  N_29
REMARK                            x       y       z     vdW  Elec       q    Type
REMARK                         _______ _______ _______ _____ _____    ______ ____
ROOT
ATOM      1  S   UNL     1      36.354 -23.859 -16.051  0.00  0.00    -0.070 S 
ATOM      2  O   UNL     1      32.934 -25.021 -13.201  0.00  0.00    -0.248 OA
ATOM      3  N   UNL     1      33.940 -24.005 -14.994  0.00  0.00    -0.152 N 
ATOM      4  N   UNL     1      33.842 -23.196 -16.096  0.00  0.00    -0.167 NA
ATOM      5  N   UNL     1      31.594 -23.771 -14.537  0.00  0.00    -0.149 N 
ATOM      6  C   UNL     1      35.300 -24.534 -14.696  0.00  0.00    +0.146 C 
ATOM      7  C   UNL     1      34.966 -23.039 -16.721  0.00  0.00    +0.128 C 
ATOM      8  C   UNL     1      32.823 -24.295 -14.200  0.00  0.00    +0.350 C 
ATOM      9  C   UNL     1      30.550 -23.448 -13.577  0.00  0.00    +0.150 C 
ENDROOT
BRANCH   7  12
ATOM     10  F   UNL     1      37.416 -21.915 -17.556  0.00  0.00    -0.204 F 
ATOM     11  F   UNL     1      32.996 -20.902 -20.614  0.00  0.00    -0.204 F 
ATOM     12  C   UNL     1      35.090 -22.200 -17.937  0.00  0.00    +0.055 C 
ATOM     13  C   UNL     1      36.329 -21.671 -18.300  0.00  0.00    +0.142 C 
ATOM     14  C   UNL     1      33.965 -21.940 -18.718  0.00  0.00    +0.034 C 
ATOM     15  C   UNL     1      34.078 -21.151 -19.864  0.00  0.00    +0.140 C 
ATOM     16  C   UNL     1      36.442 -20.883 -19.445  0.00  0.00    +0.032 C 
ATOM     17  C   UNL     1      35.316 -20.622 -20.226  0.00  0.00    +0.032 C 
ENDBRANCH   7  12
BRANCH   6  18
ATOM     18  C   UNL     1      35.840 -24.034 -13.354  0.00  0.00    +0.006 C 
ATOM     19  C   UNL     1      36.854 -23.076 -13.323  0.00  0.00    -0.002 C 
ATOM     20  C   UNL     1      35.319 -24.536 -12.162  0.00  0.00    -0.002 C 
ATOM     21  C   UNL     1      37.348 -22.621 -12.100  0.00  0.00    -0.000 C 
ATOM     22  C   UNL     1      35.812 -24.081 -10.939  0.00  0.00    -0.000 C 
ATOM     23  C   UNL     1      36.826 -23.124 -10.908  0.00  0.00    -0.000 C 
ENDBRANCH   6  18
BRANCH   5  24
ATOM     24  O   UNL     1      31.321 -23.207 -15.793  0.00  0.00    -0.259 OA
ATOM     25  C   UNL     1      29.922 -23.308 -16.054  0.00  0.00    +0.206 C 
ENDBRANCH   5  24
BRANCH   6  26
ATOM     26  C   UNL     1      35.301 -26.063 -14.886  0.00  0.00    +0.033 C 
BRANCH  26  27
ATOM     27  C   UNL     1      36.685 -26.569 -15.286  0.00  0.00    -0.021 C 
BRANCH  27  28
ATOM     28  C   UNL     1      37.502 -26.953 -14.054  0.00  0.00    -0.086 C 
BRANCH  28  29
ATOM     29  N   UNL     1      38.767 -26.228 -14.039  0.00  0.00    +0.380 N 
ATOM     30  H   UNL     1      38.637 -25.327 -13.577  0.00  0.00    -0.089 HD
ATOM     31  H   UNL     1      39.083 -26.075 -14.997  0.00  0.00    -0.089 HD
ATOM     32  H   UNL     1      39.465 -26.772 -13.533  0.00  0.00    -0.089 HD
ENDBRANCH  28  29
ENDBRANCH  27  28
ENDBRANCH  26  27
ENDBRANCH   6  26
TORSDOF 7
ENDMDL
MODEL 2
REMARK VINA RESULT:      -8.4      2.713      5.273
REMARK  Name = 44224257
REMARK  7 active torsions:
REMARK  status: ('A' for Active; 'I' for Inactive)
REMARK    1  A    between atoms: N_5  and  O_24
REMARK    2  A    between atoms: C_6  and  C_18
REMARK    3  A    between atoms: C_6  and  C_26
REMARK    4  A    between atoms: C_7  and  C_12
REMARK    5  A    between atoms: C_26  and  C_27
REMARK    6  A    between atoms: C_27  and  C_28
REMARK    7  A    between atoms: C_28  and  N_29
REMARK                            x       y       z     vdW  Elec       q    Type
REMARK                         _______ _______ _______ _____ _____    ______ ____
ROOT
ATOM      1  S   UNL     1      34.048 -24.283 -13.887  0.00  0.00    -0.070 S 
ATOM      2  O   UNL     1      37.326 -22.502 -16.579  0.00  0.00    -0.248 OA
ATOM      3  N   UNL     1      35.205 -23.088 -15.936  0.00  0.00    -0.152 N 
ATOM      4  N   UNL     1      33.860 -23.119 -16.201  0.00  0.00    -0.167 NA
ATOM      5  N   UNL     1      35.649 -21.947 -18.001  0.00  0.00    -0.149 N 
ATOM      6  C   UNL     1      35.627 -23.716 -14.653  0.00  0.00    +0.146 C 
ATOM      7  C   UNL     1      33.162 -23.680 -15.265  0.00  0.00    +0.128 C 
ATOM      8  C   UNL     1      36.113 -22.510 -16.832  0.00  0.00    +0.350 C 
ATOM      9  C   UNL     1      36.409 -21.887 -19.240  0.00  0.00    +0.150 C 
ENDROOT
BRANCH   7  12
ATOM     10  F   UNL     1      31.741 -25.657 -13.837  0.00  0.00    -0.204 F 
ATOM     11  F   UNL     1      28.857 -22.264 -17.014  0.00  0.00    -0.204 F 
ATOM     12  C   UNL     1      31.690 -23.825 -15.348  0.00  0.00    +0.055 C 
ATOM     13  C   UNL     1      31.042 -24.822 -14.618  0.00  0.00    +0.142 C 
ATOM     14  C   UNL     1      30.953 -22.962 -16.157  0.00  0.00    +0.034 C 
ATOM     15  C   UNL     1      29.565 -23.094 -16.237  0.00  0.00    +0.140 C 
ATOM     16  C   UNL     1      29.656 -24.954 -14.698  0.00  0.00    +0.032 C 
ATOM     17  C   UNL     1      28.918 -24.091 -15.508  0.00  0.00    +0.032 C 
ENDBRANCH   7  12
BRANCH   6  18
ATOM     18  C   UNL     1      36.535 -24.930 -14.868  0.00  0.00    +0.006 C 
ATOM     19  C   UNL     1      35.996 -26.133 -15.323  0.00  0.00    -0.002 C 
ATOM     20  C   UNL     1      37.902 -24.832 -14.608  0.00  0.00    -0.002 C 
ATOM     21  C   UNL     1      36.824 -27.240 -15.518  0.00  0.00    -0.000 C 
ATOM     22  C   UNL     1      38.730 -25.938 -14.804  0.00  0.00    -0.000 C 
ATOM     23  C   UNL     1      38.191 -27.141 -15.258  0.00  0.00    -0.000 C 
ENDBRANCH   6  18
BRANCH   5  24
ATOM     24  O   UNL     1      34.297 -21.642 -18.220  0.00  0.00    -0.259 OA
ATOM     25  C   UNL     1      34.045 -21.626 -19.624  0.00  0.00    +0.206 C 
ENDBRANCH   5  24
BRANCH   6  26
ATOM     26  C   UNL     1      36.182 -22.627 -13.715  0.00  0.00    +0.033 C 
BRANCH  26  27
ATOM     27  C   UNL     1      36.182 -23.098 -12.263  0.00  0.00    -0.021 C 
BRANCH  27  28
ATOM     28  C   UNL     1      37.490 -22.722 -11.568  0.00  0.00    -0.086 C 
BRANCH  28  29
ATOM     29  N   UNL     1      38.384 -23.873 -11.517  0.00  0.00    +0.380 N 
ATOM     30  H   UNL     1      37.948 -24.664 -11.992  0.00  0.00    -0.089 HD
ATOM     31  H   UNL     1      38.566 -24.120 -10.543  0.00  0.00    -0.089 HD
ATOM     32  H   UNL     1      39.263 -23.642 -11.979  0.00  0.00    -0.089 HD
ENDBRANCH  28  29
ENDBRANCH  27  28
ENDBRANCH  26  27
ENDBRANCH   6  26
TORSDOF 7
ENDMDL
