MODEL 1
REMARK VINA RESULT:     -11.7      0.000      0.000
REMARK  Name = 10050566
REMARK  9 active torsions:
REMARK  status: ('A' for Active; 'I' for Inactive)
REMARK    1  A    between atoms: C_2  and  N_11
REMARK    2  A    between atoms: C_3  and  O_22
REMARK    3  A    between atoms: C_12  and  C_14
REMARK    4  A    between atoms: C_19  and  O_20
REMARK    5  A    between atoms: O_22  and  C_24
REMARK    6  A    between atoms: C_24  and  C_25
REMARK    7  A    between atoms: C_30  and  C_32
REMARK    8  A    between atoms: C_32  and  C_33
REMARK    9  A    between atoms: C_34  and  O_39
REMARK                            x       y       z     vdW  Elec       q    Type
REMARK                         _______ _______ _______ _____ _____    ______ ____
ROOT
ATOM      1  N   UNL     1      32.244 -22.161 -14.395  0.00  0.00    +0.385 N 
ATOM      2  C   UNL     1      34.358 -23.056 -15.390  0.00  0.00    +0.091 C 
ATOM      3  C   UNL     1      33.654 -23.741 -16.575  0.00  0.00    +0.185 C 
ATOM      4  C   UNL     1      32.442 -24.615 -16.236  0.00  0.00    +0.043 C 
ATOM      5  C   UNL     1      33.516 -22.833 -14.129  0.00  0.00    -0.058 C 
ATOM      6  C   UNL     1      31.156 -23.855 -15.903  0.00  0.00    -0.020 C 
ATOM      7  C   UNL     1      31.156 -23.124 -14.565  0.00  0.00    -0.082 C 
ATOM      8  H   UNL     1      32.333 -21.608 -15.247  0.00  0.00    -0.084 HD
ATOM      9  H   UNL     1      32.024 -21.566 -13.597  0.00  0.00    -0.084 HD
ENDROOT
BRANCH   2  11
ATOM     10  O   UNL     1      37.077 -22.175 -15.648  0.00  0.00    -0.270 OA
ATOM     11  N   UNL     1      35.548 -23.805 -15.030  0.00  0.00    -0.301 N 
ATOM     12  C   UNL     1      36.818 -23.287 -15.194  0.00  0.00    +0.246 C 
ATOM     13  H   UNL     1      35.447 -24.710 -14.657  0.00  0.00    +0.150 HD
BRANCH  12  14
ATOM     14  C   UNL     1      37.933 -24.189 -14.803  0.00  0.00    +0.054 C 
ATOM     15  C   UNL     1      39.056 -24.243 -15.603  0.00  0.00    +0.008 C 
ATOM     16  C   UNL     1      37.810 -24.942 -13.655  0.00  0.00    +0.008 C 
ATOM     17  C   UNL     1      40.103 -25.089 -15.236  0.00  0.00    +0.037 C 
ATOM     18  C   UNL     1      38.857 -25.788 -13.288  0.00  0.00    +0.037 C 
ATOM     19  C   UNL     1      40.003 -25.861 -14.079  0.00  0.00    +0.134 C 
BRANCH  19  20
ATOM     20  O   UNL     1      41.025 -26.685 -13.720  0.00  0.00    -0.506 OA
ATOM     21  H   UNL     1      41.000 -27.130 -12.896  0.00  0.00    +0.292 HD
ENDBRANCH  19  20
ENDBRANCH  12  14
ENDBRANCH   2  11
BRANCH   3  22
ATOM     22  O   UNL     1      33.288 -22.753 -17.543  0.00  0.00    -0.448 OA
BRANCH  22  24
ATOM     23  O   UNL     1      33.812 -24.075 -19.353  0.00  0.00    -0.245 OA
ATOM     24  C   UNL     1      33.717 -22.986 -18.809  0.00  0.00    +0.341 C 
BRANCH  24  25
ATOM     25  C   UNL     1      34.073 -21.708 -19.476  0.00  0.00    +0.076 C 
ATOM     26  C   UNL     1      35.407 -21.387 -19.633  0.00  0.00    +0.007 C 
ATOM     27  C   UNL     1      33.061 -20.881 -19.917  0.00  0.00    +0.007 C 
ATOM     28  C   UNL     1      35.741 -20.186 -20.259  0.00  0.00    +0.003 C 
ATOM     29  C   UNL     1      33.396 -19.681 -20.544  0.00  0.00    +0.003 C 
ATOM     30  C   UNL     1      34.737 -19.333 -20.715  0.00  0.00    +0.039 C 
BRANCH  30  32
ATOM     31  O   UNL     1      35.647 -17.179 -20.729  0.00  0.00    -0.286 OA
ATOM     32  C   UNL     1      35.085 -18.082 -21.367  0.00  0.00    +0.198 C 
BRANCH  32  33
ATOM     33  C   UNL     1      34.791 -17.821 -22.809  0.00  0.00    +0.073 C 
ATOM     34  C   UNL     1      34.551 -16.533 -23.231  0.00  0.00    +0.137 C 
ATOM     35  C   UNL     1      34.773 -18.900 -23.664  0.00  0.00    +0.006 C 
ATOM     36  C   UNL     1      34.279 -16.312 -24.580  0.00  0.00    +0.037 C 
ATOM     37  C   UNL     1      34.501 -18.678 -25.014  0.00  0.00    +0.000 C 
ATOM     38  C   UNL     1      34.253 -17.384 -25.472  0.00  0.00    +0.003 C 
BRANCH  34  39
ATOM     39  O   UNL     1      34.572 -15.473 -22.375  0.00  0.00    -0.505 OA
ATOM     40  H   UNL     1      33.826 -15.290 -21.837  0.00  0.00    +0.292 HD
ENDBRANCH  34  39
ENDBRANCH  32  33
ENDBRANCH  30  32
ENDBRANCH  24  25
ENDBRANCH  22  24
ENDBRANCH   3  22
TORSDOF 9
ENDMDL
MODEL 2
REMARK VINA RESULT:     -11.6      7.138     14.270
REMARK  Name = 10050566
REMARK  9 active torsions:
REMARK  status: ('A' for Active; 'I' for Inactive)
REMARK    1  A    between atoms: C_2  and  N_11
REMARK    2  A    between atoms: C_3  and  O_22
REMARK    3  A    between atoms: C_12  and  C_14
REMARK    4  A    between atoms: C_19  and  O_20
REMARK    5  A    between atoms: O_22  and  C_24
REMARK    6  A    between atoms: C_24  and  C_25
REMARK    7  A    between atoms: C_30  and  C_32
REMARK    8  A    between atoms: C_32  and  C_33
REMARK    9  A    between atoms: C_34  and  O_39
REMARK                            x       y       z     vdW  Elec       q    Type
REMARK                         _______ _______ _______ _____ _____    ______ ____
ROOT
ATOM      1  N   UNL     1      35.982 -10.751 -25.925  0.00  0.00    +0.385 N 
ATOM      2  C   UNL     1      34.262 -10.185 -24.199  0.00  0.00    +0.091 C 
ATOM      3  C   UNL     1      33.429 -11.458 -24.435  0.00  0.00    +0.185 C 
ATOM      4  C   UNL     1      33.089 -11.789 -25.892  0.00  0.00    +0.043 C 
ATOM      5  C   UNL     1      35.125  -9.703 -25.370  0.00  0.00    -0.058 C 
ATOM      6  C   UNL     1      34.235 -12.378 -26.717  0.00  0.00    -0.020 C 
ATOM      7  C   UNL     1      35.353 -11.404 -27.073  0.00  0.00    -0.082 C 
ATOM      8  H   UNL     1      36.162 -11.449 -25.203  0.00  0.00    -0.084 HD
ATOM      9  H   UNL     1      36.852 -10.320 -26.238  0.00  0.00    -0.084 HD
ENDROOT
BRANCH   2  11
ATOM     10  O   UNL     1      35.074  -7.656 -23.112  0.00  0.00    -0.270 OA
ATOM     11  N   UNL     1      33.391  -9.101 -23.785  0.00  0.00    -0.301 N 
ATOM     12  C   UNL     1      33.885  -7.917 -23.272  0.00  0.00    +0.246 C 
ATOM     13  H   UNL     1      32.416  -9.212 -23.872  0.00  0.00    +0.150 HD
BRANCH  12  14
ATOM     14  C   UNL     1      32.862  -6.917 -22.869  0.00  0.00    +0.054 C 
ATOM     15  C   UNL     1      32.400  -6.924 -21.569  0.00  0.00    +0.008 C 
ATOM     16  C   UNL     1      32.406  -6.014 -23.807  0.00  0.00    +0.008 C 
ATOM     17  C   UNL     1      31.440  -5.986 -21.190  0.00  0.00    +0.037 C 
ATOM     18  C   UNL     1      31.447  -5.075 -23.428  0.00  0.00    +0.037 C 
ATOM     19  C   UNL     1      30.964  -5.061 -22.120  0.00  0.00    +0.134 C 
BRANCH  19  20
ATOM     20  O   UNL     1      30.029  -4.144 -21.750  0.00  0.00    -0.506 OA
ATOM     21  H   UNL     1      30.166  -3.235 -21.935  0.00  0.00    +0.292 HD
ENDBRANCH  19  20
ENDBRANCH  12  14
ENDBRANCH   2  11
BRANCH   3  22
ATOM     22  O   UNL     1      34.083 -12.572 -23.820  0.00  0.00    -0.448 OA
BRANCH  22  24
ATOM     23  O   UNL     1      32.374 -12.788 -22.294  0.00  0.00    -0.245 OA
ATOM     24  C   UNL     1      33.372 -13.210 -22.857  0.00  0.00    +0.341 C 
BRANCH  24  25
ATOM     25  C   UNL     1      33.978 -14.531 -22.558  0.00  0.00    +0.076 C 
ATOM     26  C   UNL     1      34.360 -15.343 -23.608  0.00  0.00    +0.007 C 
ATOM     27  C   UNL     1      34.141 -14.908 -21.241  0.00  0.00    +0.007 C 
ATOM     28  C   UNL     1      34.929 -16.585 -23.327  0.00  0.00    +0.003 C 
ATOM     29  C   UNL     1      34.710 -16.150 -20.960  0.00  0.00    +0.003 C 
ATOM     30  C   UNL     1      35.105 -16.989 -22.003  0.00  0.00    +0.039 C 
BRANCH  30  32
ATOM     31  O   UNL     1      36.864 -18.528 -22.050  0.00  0.00    -0.286 OA
ATOM     32  C   UNL     1      35.697 -18.284 -21.710  0.00  0.00    +0.198 C 
BRANCH  32  33
ATOM     33  C   UNL     1      34.947 -19.365 -21.002  0.00  0.00    +0.073 C 
ATOM     34  C   UNL     1      35.621 -20.217 -20.157  0.00  0.00    +0.137 C 
ATOM     35  C   UNL     1      33.593 -19.462 -21.231  0.00  0.00    +0.006 C 
ATOM     36  C   UNL     1      34.903 -21.218 -19.506  0.00  0.00    +0.037 C 
ATOM     37  C   UNL     1      32.875 -20.464 -20.579  0.00  0.00    +0.000 C 
ATOM     38  C   UNL     1      33.530 -21.342 -19.717  0.00  0.00    +0.003 C 
BRANCH  34  39
ATOM     39  O   UNL     1      36.962 -20.112 -19.937  0.00  0.00    -0.505 OA
ATOM     40  H   UNL     1      37.567 -20.508 -20.534  0.00  0.00    +0.292 HD
ENDBRANCH  34  39
ENDBRANCH  32  33
ENDBRANCH  30  32
ENDBRANCH  24  25
ENDBRANCH  22  24
ENDBRANCH   3  22
TORSDOF 9
ENDMDL
MODEL 3
REMARK VINA RESULT:     -11.0      2.058      5.681
REMARK  Name = 10050566
REMARK  9 active torsions:
REMARK  status: ('A' for Active; 'I' for Inactive)
REMARK    1  A    between atoms: C_2  and  N_11
REMARK    2  A    between atoms: C_3  and  O_22
REMARK    3  A    between atoms: C_12  and  C_14
REMARK    4  A    between atoms: C_19  and  O_20
REMARK    5  A    between atoms: O_22  and  C_24
REMARK    6  A    between atoms: C_24  and  C_25
REMARK    7  A    between atoms: C_30  and  C_32
REMARK    8  A    between atoms: C_32  and  C_33
REMARK    9  A    between atoms: C_34  and  O_39
REMARK                            x       y       z     vdW  Elec       q    Type
REMARK                         _______ _______ _______ _____ _____    ______ ____
ROOT
ATOM      1  N   UNL     1      35.873 -25.009 -15.251  0.00  0.00    +0.385 N 
ATOM      2  C   UNL     1      33.808 -24.006 -16.244  0.00  0.00    +0.091 C 
ATOM      3  C   UNL     1      34.512 -22.722 -16.717  0.00  0.00    +0.185 C 
ATOM      4  C   UNL     1      35.388 -22.005 -15.685  0.00  0.00    +0.043 C 
ATOM      5  C   UNL     1      34.447 -24.743 -15.063  0.00  0.00    -0.058 C 
ATOM      6  C   UNL     1      36.746 -22.656 -15.411  0.00  0.00    -0.020 C 
ATOM      7  C   UNL     1      36.698 -23.968 -14.637  0.00  0.00    -0.082 C 
ATOM      8  H   UNL     1      36.075 -25.045 -16.251  0.00  0.00    -0.084 HD
ATOM      9  H   UNL     1      36.095 -25.899 -14.804  0.00  0.00    -0.084 HD
ENDROOT
BRANCH   2  11
ATOM     10  O   UNL     1      31.881 -22.729 -17.945  0.00  0.00    -0.270 OA
ATOM     11  N   UNL     1      32.425 -23.714 -15.918  0.00  0.00    -0.301 N 
ATOM     12  C   UNL     1      31.574 -23.092 -16.813  0.00  0.00    +0.246 C 
ATOM     13  H   UNL     1      32.081 -23.966 -15.031  0.00  0.00    +0.150 HD
BRANCH  12  14
ATOM     14  C   UNL     1      30.197 -22.839 -16.317  0.00  0.00    +0.054 C 
ATOM     15  C   UNL     1      29.135 -23.022 -17.180  0.00  0.00    +0.008 C 
ATOM     16  C   UNL     1      30.022 -22.428 -15.012  0.00  0.00    +0.008 C 
ATOM     17  C   UNL     1      27.842 -22.784 -16.716  0.00  0.00    +0.037 C 
ATOM     18  C   UNL     1      28.728 -22.191 -14.548  0.00  0.00    +0.037 C 
ATOM     19  C   UNL     1      27.638 -22.369 -15.400  0.00  0.00    +0.134 C 
BRANCH  19  20
ATOM     20  O   UNL     1      26.376 -22.140 -14.946  0.00  0.00    -0.506 OA
ATOM     21  H   UNL     1      25.683 -22.730 -15.171  0.00  0.00    +0.292 HD
ENDBRANCH  19  20
ENDBRANCH  12  14
ENDBRANCH   2  11
BRANCH   3  22
ATOM     22  O   UNL     1      35.275 -23.006 -17.894  0.00  0.00    -0.448 OA
BRANCH  22  24
ATOM     23  O   UNL     1      33.961 -23.847 -19.586  0.00  0.00    -0.245 OA
ATOM     24  C   UNL     1      34.593 -22.941 -19.064  0.00  0.00    +0.341 C 
BRANCH  24  25
ATOM     25  C   UNL     1      34.714 -21.586 -19.657  0.00  0.00    +0.076 C 
ATOM     26  C   UNL     1      33.565 -20.909 -20.015  0.00  0.00    +0.007 C 
ATOM     27  C   UNL     1      35.971 -21.045 -19.835  0.00  0.00    +0.007 C 
ATOM     28  C   UNL     1      33.680 -19.636 -20.573  0.00  0.00    +0.003 C 
ATOM     29  C   UNL     1      36.085 -19.772 -20.393  0.00  0.00    +0.003 C 
ATOM     30  C   UNL     1      34.939 -19.067 -20.762  0.00  0.00    +0.039 C 
BRANCH  30  32
ATOM     31  O   UNL     1      35.385 -16.775 -20.639  0.00  0.00    -0.286 OA
ATOM     32  C   UNL     1      35.058 -17.740 -21.345  0.00  0.00    +0.198 C 
BRANCH  32  33
ATOM     33  C   UNL     1      34.796 -17.475 -22.792  0.00  0.00    +0.073 C 
ATOM     34  C   UNL     1      34.503 -16.196 -23.206  0.00  0.00    +0.137 C 
ATOM     35  C   UNL     1      34.863 -18.541 -23.661  0.00  0.00    +0.006 C 
ATOM     36  C   UNL     1      34.263 -15.970 -24.560  0.00  0.00    +0.037 C 
ATOM     37  C   UNL     1      34.624 -18.315 -25.016  0.00  0.00    +0.000 C 
ATOM     38  C   UNL     1      34.323 -17.029 -25.465  0.00  0.00    +0.003 C 
BRANCH  34  39
ATOM     39  O   UNL     1      34.439 -15.148 -22.336  0.00  0.00    -0.505 OA
ATOM     40  H   UNL     1      34.931 -14.368 -22.505  0.00  0.00    +0.292 HD
ENDBRANCH  34  39
ENDBRANCH  32  33
ENDBRANCH  30  32
ENDBRANCH  24  25
ENDBRANCH  22  24
ENDBRANCH   3  22
TORSDOF 9
ENDMDL
MODEL 4
REMARK VINA RESULT:     -11.0      5.197      8.612
REMARK  Name = 10050566
REMARK  9 active torsions:
REMARK  status: ('A' for Active; 'I' for Inactive)
REMARK    1  A    between atoms: C_2  and  N_11
REMARK    2  A    between atoms: C_3  and  O_22
REMARK    3  A    between atoms: C_12  and  C_14
REMARK    4  A    between atoms: C_19  and  O_20
REMARK    5  A    between atoms: O_22  and  C_24
REMARK    6  A    between atoms: C_24  and  C_25
REMARK    7  A    between atoms: C_30  and  C_32
REMARK    8  A    between atoms: C_32  and  C_33
REMARK    9  A    between atoms: C_34  and  O_39
REMARK                            x       y       z     vdW  Elec       q    Type
REMARK                         _______ _______ _______ _____ _____    ______ ____
ROOT
ATOM      1  N   UNL     1      33.969 -18.232 -24.688  0.00  0.00    +0.385 N 
ATOM      2  C   UNL     1      33.937 -18.561 -22.208  0.00  0.00    +0.091 C 
ATOM      3  C   UNL     1      34.249 -17.089 -21.886  0.00  0.00    +0.185 C 
ATOM      4  C   UNL     1      35.425 -16.459 -22.642  0.00  0.00    +0.043 C 
ATOM      5  C   UNL     1      34.401 -19.077 -23.575  0.00  0.00    -0.058 C 
ATOM      6  C   UNL     1      35.146 -16.088 -24.100  0.00  0.00    -0.020 C 
ATOM      7  C   UNL     1      35.003 -17.265 -25.059  0.00  0.00    -0.082 C 
ATOM      8  H   UNL     1      33.125 -17.727 -24.414  0.00  0.00    -0.084 HD
ATOM      9  H   UNL     1      33.787 -18.831 -25.493  0.00  0.00    -0.084 HD
ENDROOT
BRANCH   2  11
ATOM     10  O   UNL     1      32.561 -20.637 -20.783  0.00  0.00    -0.270 OA
ATOM     11  N   UNL     1      34.492 -19.415 -21.175  0.00  0.00    -0.301 N 
ATOM     12  C   UNL     1      33.741 -20.391 -20.547  0.00  0.00    +0.246 C 
ATOM     13  H   UNL     1      35.433 -19.296 -20.913  0.00  0.00    +0.150 HD
BRANCH  12  14
ATOM     14  C   UNL     1      34.447 -21.163 -19.492  0.00  0.00    +0.054 C 
ATOM     15  C   UNL     1      35.812 -21.012 -19.358  0.00  0.00    +0.008 C 
ATOM     16  C   UNL     1      33.717 -22.006 -18.681  0.00  0.00    +0.008 C 
ATOM     17  C   UNL     1      36.475 -21.736 -18.368  0.00  0.00    +0.037 C 
ATOM     18  C   UNL     1      34.380 -22.730 -17.690  0.00  0.00    +0.037 C 
ATOM     19  C   UNL     1      35.760 -22.595 -17.534  0.00  0.00    +0.134 C 
BRANCH  19  20
ATOM     20  O   UNL     1      36.406 -23.300 -16.566  0.00  0.00    -0.506 OA
ATOM     21  H   UNL     1      36.626 -22.887 -15.754  0.00  0.00    +0.292 HD
ENDBRANCH  19  20
ENDBRANCH  12  14
ENDBRANCH   2  11
BRANCH   3  22
ATOM     22  O   UNL     1      33.069 -16.302 -22.077  0.00  0.00    -0.448 OA
BRANCH  22  24
ATOM     23  O   UNL     1      32.568 -15.929 -19.862  0.00  0.00    -0.245 OA
ATOM     24  C   UNL     1      32.691 -15.548 -21.015  0.00  0.00    +0.341 C 
BRANCH  24  25
ATOM     25  C   UNL     1      32.432 -14.150 -21.442  0.00  0.00    +0.076 C 
ATOM     26  C   UNL     1      32.600 -13.817 -22.771  0.00  0.00    +0.007 C 
ATOM     27  C   UNL     1      32.033 -13.226 -20.498  0.00  0.00    +0.007 C 
ATOM     28  C   UNL     1      32.358 -12.502 -23.172  0.00  0.00    +0.003 C 
ATOM     29  C   UNL     1      31.791 -11.913 -20.899  0.00  0.00    +0.003 C 
ATOM     30  C   UNL     1      31.953 -11.550 -22.237  0.00  0.00    +0.039 C 
BRANCH  30  32
ATOM     31  O   UNL     1      30.541  -9.749 -22.715  0.00  0.00    -0.286 OA
ATOM     32  C   UNL     1      31.701 -10.181 -22.655  0.00  0.00    +0.198 C 
BRANCH  32  33
ATOM     33  C   UNL     1      32.803  -9.243 -23.028  0.00  0.00    +0.073 C 
ATOM     34  C   UNL     1      32.776  -7.947 -22.566  0.00  0.00    +0.137 C 
ATOM     35  C   UNL     1      33.813  -9.726 -23.829  0.00  0.00    +0.006 C 
ATOM     36  C   UNL     1      33.814  -7.088 -22.925  0.00  0.00    +0.037 C 
ATOM     37  C   UNL     1      34.851  -8.867 -24.188  0.00  0.00    +0.000 C 
ATOM     38  C   UNL     1      34.851  -7.547 -23.736  0.00  0.00    +0.003 C 
BRANCH  34  39
ATOM     39  O   UNL     1      31.771  -7.479 -21.773  0.00  0.00    -0.505 OA
ATOM     40  H   UNL     1      30.932  -7.897 -21.783  0.00  0.00    +0.292 HD
ENDBRANCH  34  39
ENDBRANCH  32  33
ENDBRANCH  30  32
ENDBRANCH  24  25
ENDBRANCH  22  24
ENDBRANCH   3  22
TORSDOF 9
ENDMDL
MODEL 5
REMARK VINA RESULT:     -10.9      6.593     13.622
REMARK  Name = 10050566
REMARK  9 active torsions:
REMARK  status: ('A' for Active; 'I' for Inactive)
REMARK    1  A    between atoms: C_2  and  N_11
REMARK    2  A    between atoms: C_3  and  O_22
REMARK    3  A    between atoms: C_12  and  C_14
REMARK    4  A    between atoms: C_19  and  O_20
REMARK    5  A    between atoms: O_22  and  C_24
REMARK    6  A    between atoms: C_24  and  C_25
REMARK    7  A    between atoms: C_30  and  C_32
REMARK    8  A    between atoms: C_32  and  C_33
REMARK    9  A    between atoms: C_34  and  O_39
REMARK                            x       y       z     vdW  Elec       q    Type
REMARK                         _______ _______ _______ _____ _____    ______ ____
ROOT
ATOM      1  N   UNL     1      34.451 -12.481 -26.015  0.00  0.00    +0.385 N 
ATOM      2  C   UNL     1      33.671 -11.220 -24.000  0.00  0.00    +0.091 C 
ATOM      3  C   UNL     1      32.979 -12.435 -23.357  0.00  0.00    +0.185 C 
ATOM      4  C   UNL     1      32.045 -13.247 -24.261  0.00  0.00    +0.043 C 
ATOM      5  C   UNL     1      33.832 -11.251 -25.524  0.00  0.00    -0.058 C 
ATOM      6  C   UNL     1      32.741 -14.167 -25.267  0.00  0.00    -0.020 C 
ATOM      7  C   UNL     1      33.444 -13.462 -26.421  0.00  0.00    -0.082 C 
ATOM      8  H   UNL     1      35.025 -12.883 -25.273  0.00  0.00    -0.084 HD
ATOM      9  H   UNL     1      35.021 -12.251 -26.829  0.00  0.00    -0.084 HD
ENDROOT
BRANCH   2  11
ATOM     10  O   UNL     1      34.836  -8.632 -23.579  0.00  0.00    -0.270 OA
ATOM     11  N   UNL     1      32.969 -10.005 -23.630  0.00  0.00    -0.301 N 
ATOM     12  C   UNL     1      33.627  -8.803 -23.451  0.00  0.00    +0.246 C 
ATOM     13  H   UNL     1      31.994 -10.038 -23.502  0.00  0.00    +0.150 HD
BRANCH  12  14
ATOM     14  C   UNL     1      32.770  -7.658 -23.046  0.00  0.00    +0.054 C 
ATOM     15  C   UNL     1      32.108  -6.945 -24.024  0.00  0.00    +0.008 C 
ATOM     16  C   UNL     1      32.664  -7.344 -21.707  0.00  0.00    +0.008 C 
ATOM     17  C   UNL     1      31.303  -5.870 -23.645  0.00  0.00    +0.037 C 
ATOM     18  C   UNL     1      31.860  -6.270 -21.328  0.00  0.00    +0.037 C 
ATOM     19  C   UNL     1      31.179  -5.533 -22.298  0.00  0.00    +0.134 C 
BRANCH  19  20
ATOM     20  O   UNL     1      30.393  -4.486 -21.928  0.00  0.00    -0.506 OA
ATOM     21  H   UNL     1      29.639  -4.634 -21.390  0.00  0.00    +0.292 HD
ENDBRANCH  19  20
ENDBRANCH  12  14
ENDBRANCH   2  11
BRANCH   3  22
ATOM     22  O   UNL     1      33.968 -13.293 -22.780  0.00  0.00    -0.448 OA
BRANCH  22  24
ATOM     23  O   UNL     1      33.078 -13.417 -20.662  0.00  0.00    -0.245 OA
ATOM     24  C   UNL     1      33.600 -13.928 -21.640  0.00  0.00    +0.341 C 
BRANCH  24  25
ATOM     25  C   UNL     1      33.923 -15.374 -21.728  0.00  0.00    +0.076 C 
ATOM     26  C   UNL     1      33.268 -16.256 -20.892  0.00  0.00    +0.007 C 
ATOM     27  C   UNL     1      34.868 -15.793 -22.642  0.00  0.00    +0.007 C 
ATOM     28  C   UNL     1      33.572 -17.615 -20.974  0.00  0.00    +0.003 C 
ATOM     29  C   UNL     1      35.172 -17.151 -22.724  0.00  0.00    +0.003 C 
ATOM     30  C   UNL     1      34.523 -18.063 -21.890  0.00  0.00    +0.039 C 
BRANCH  30  32
ATOM     31  O   UNL     1      34.964 -20.027 -23.081  0.00  0.00    -0.286 OA
ATOM     32  C   UNL     1      34.840 -19.480 -21.975  0.00  0.00    +0.198 C 
BRANCH  32  33
ATOM     33  C   UNL     1      35.028 -20.332 -20.762  0.00  0.00    +0.073 C 
ATOM     34  C   UNL     1      33.940 -20.953 -20.193  0.00  0.00    +0.137 C 
ATOM     35  C   UNL     1      36.304 -20.461 -20.261  0.00  0.00    +0.006 C 
ATOM     36  C   UNL     1      34.137 -21.744 -19.063  0.00  0.00    +0.037 C 
ATOM     37  C   UNL     1      36.501 -21.253 -19.130  0.00  0.00    +0.000 C 
ATOM     38  C   UNL     1      35.418 -21.894 -18.531  0.00  0.00    +0.003 C 
BRANCH  34  39
ATOM     39  O   UNL     1      32.681 -20.818 -20.698  0.00  0.00    -0.505 OA
ATOM     40  H   UNL     1      32.297 -19.967 -20.781  0.00  0.00    +0.292 HD
ENDBRANCH  34  39
ENDBRANCH  32  33
ENDBRANCH  30  32
ENDBRANCH  24  25
ENDBRANCH  22  24
ENDBRANCH   3  22
TORSDOF 9
ENDMDL
MODEL 6
REMARK VINA RESULT:     -10.4      7.544     11.956
REMARK  Name = 10050566
REMARK  9 active torsions:
REMARK  status: ('A' for Active; 'I' for Inactive)
REMARK    1  A    between atoms: C_2  and  N_11
REMARK    2  A    between atoms: C_3  and  O_22
REMARK    3  A    between atoms: C_12  and  C_14
REMARK    4  A    between atoms: C_19  and  O_20
REMARK    5  A    between atoms: O_22  and  C_24
REMARK    6  A    between atoms: C_24  and  C_25
REMARK    7  A    between atoms: C_30  and  C_32
REMARK    8  A    between atoms: C_32  and  C_33
REMARK    9  A    between atoms: C_34  and  O_39
REMARK                            x       y       z     vdW  Elec       q    Type
REMARK                         _______ _______ _______ _____ _____    ______ ____
ROOT
ATOM      1  N   UNL     1      32.788 -13.562 -26.063  0.00  0.00    +0.385 N 
ATOM      2  C   UNL     1      33.031 -14.799 -23.902  0.00  0.00    +0.091 C 
ATOM      3  C   UNL     1      33.301 -13.535 -23.067  0.00  0.00    +0.185 C 
ATOM      4  C   UNL     1      34.359 -12.570 -23.614  0.00  0.00    +0.043 C 
ATOM      5  C   UNL     1      33.375 -14.723 -25.393  0.00  0.00    -0.058 C 
ATOM      6  C   UNL     1      33.912 -11.704 -24.793  0.00  0.00    -0.020 C 
ATOM      7  C   UNL     1      33.729 -12.442 -26.115  0.00  0.00    -0.082 C 
ATOM      8  H   UNL     1      31.954 -13.271 -25.552  0.00  0.00    -0.084 HD
ATOM      9  H   UNL     1      32.554 -13.828 -27.019  0.00  0.00    -0.084 HD
ENDROOT
BRANCH   2  11
ATOM     10  O   UNL     1      32.509 -16.005 -21.351  0.00  0.00    -0.270 OA
ATOM     11  N   UNL     1      33.731 -15.928 -23.319  0.00  0.00    -0.301 N 
ATOM     12  C   UNL     1      33.401 -16.436 -22.077  0.00  0.00    +0.246 C 
ATOM     13  H   UNL     1      34.466 -16.346 -23.824  0.00  0.00    +0.150 HD
BRANCH  12  14
ATOM     14  C   UNL     1      34.231 -17.577 -21.610  0.00  0.00    +0.054 C 
ATOM     15  C   UNL     1      35.600 -17.512 -21.766  0.00  0.00    +0.008 C 
ATOM     16  C   UNL     1      33.607 -18.664 -21.034  0.00  0.00    +0.008 C 
ATOM     17  C   UNL     1      36.379 -18.582 -21.328  0.00  0.00    +0.037 C 
ATOM     18  C   UNL     1      34.386 -19.734 -20.595  0.00  0.00    +0.037 C 
ATOM     19  C   UNL     1      35.773 -19.692 -20.742  0.00  0.00    +0.134 C 
BRANCH  19  20
ATOM     20  O   UNL     1      36.533 -20.736 -20.312  0.00  0.00    -0.506 OA
ATOM     21  H   UNL     1      36.752 -20.812 -19.404  0.00  0.00    +0.292 HD
ENDBRANCH  19  20
ENDBRANCH  12  14
ENDBRANCH   2  11
BRANCH   3  22
ATOM     22  O   UNL     1      32.070 -12.838 -22.851  0.00  0.00    -0.448 OA
BRANCH  22  24
ATOM     23  O   UNL     1      31.740 -12.999 -20.579  0.00  0.00    -0.245 OA
ATOM     24  C   UNL     1      31.887 -12.346 -21.601  0.00  0.00    +0.341 C 
BRANCH  24  25
ATOM     25  C   UNL     1      31.885 -10.862 -21.626  0.00  0.00    +0.076 C 
ATOM     26  C   UNL     1      31.540 -10.215 -22.796  0.00  0.00    +0.007 C 
ATOM     27  C   UNL     1      32.229 -10.174 -20.480  0.00  0.00    +0.007 C 
ATOM     28  C   UNL     1      31.539  -8.820 -22.820  0.00  0.00    +0.003 C 
ATOM     29  C   UNL     1      32.229  -8.780 -20.504  0.00  0.00    +0.003 C 
ATOM     30  C   UNL     1      31.883  -8.102 -21.674  0.00  0.00    +0.039 C 
BRANCH  30  32
ATOM     31  O   UNL     1      31.845  -6.005 -20.640  0.00  0.00    -0.286 OA
ATOM     32  C   UNL     1      31.883  -6.649 -21.699  0.00  0.00    +0.198 C 
BRANCH  32  33
ATOM     33  C   UNL     1      31.925  -5.870 -22.974  0.00  0.00    +0.073 C 
ATOM     34  C   UNL     1      31.127  -4.758 -23.117  0.00  0.00    +0.137 C 
ATOM     35  C   UNL     1      32.775  -6.307 -23.965  0.00  0.00    +0.006 C 
ATOM     36  C   UNL     1      31.181  -4.046 -24.314  0.00  0.00    +0.037 C 
ATOM     37  C   UNL     1      32.830  -5.595 -25.162  0.00  0.00    +0.000 C 
ATOM     38  C   UNL     1      32.033  -4.464 -25.337  0.00  0.00    +0.003 C 
BRANCH  34  39
ATOM     39  O   UNL     1      30.288  -4.334 -22.130  0.00  0.00    -0.505 OA
ATOM     40  H   UNL     1      29.752  -3.577 -22.263  0.00  0.00    +0.292 HD
ENDBRANCH  34  39
ENDBRANCH  32  33
ENDBRANCH  30  32
ENDBRANCH  24  25
ENDBRANCH  22  24
ENDBRANCH   3  22
TORSDOF 9
ENDMDL
MODEL 7
REMARK VINA RESULT:     -10.1      4.609      7.992
REMARK  Name = 10050566
REMARK  9 active torsions:
REMARK  status: ('A' for Active; 'I' for Inactive)
REMARK    1  A    between atoms: C_2  and  N_11
REMARK    2  A    between atoms: C_3  and  O_22
REMARK    3  A    between atoms: C_12  and  C_14
REMARK    4  A    between atoms: C_19  and  O_20
REMARK    5  A    between atoms: O_22  and  C_24
REMARK    6  A    between atoms: C_24  and  C_25
REMARK    7  A    between atoms: C_30  and  C_32
REMARK    8  A    between atoms: C_32  and  C_33
REMARK    9  A    between atoms: C_34  and  O_39
REMARK                            x       y       z     vdW  Elec       q    Type
REMARK                         _______ _______ _______ _____ _____    ______ ____
ROOT
ATOM      1  N   UNL     1      34.573 -19.020 -23.709  0.00  0.00    +0.385 N 
ATOM      2  C   UNL     1      33.552 -19.276 -21.440  0.00  0.00    +0.091 C 
ATOM      3  C   UNL     1      33.872 -17.836 -21.000  0.00  0.00    +0.185 C 
ATOM      4  C   UNL     1      35.309 -17.356 -21.232  0.00  0.00    +0.043 C 
ATOM      5  C   UNL     1      34.448 -19.875 -22.529  0.00  0.00    -0.058 C 
ATOM      6  C   UNL     1      35.656 -16.997 -22.679  0.00  0.00    -0.020 C 
ATOM      7  C   UNL     1      35.768 -18.178 -23.636  0.00  0.00    -0.082 C 
ATOM      8  H   UNL     1      33.749 -18.422 -23.775  0.00  0.00    -0.084 HD
ATOM      9  H   UNL     1      34.653 -19.619 -24.531  0.00  0.00    -0.084 HD
ENDROOT
BRANCH   2  11
ATOM     10  O   UNL     1      35.765 -20.857 -20.525  0.00  0.00    -0.270 OA
ATOM     11  N   UNL     1      33.569 -20.155 -20.286  0.00  0.00    -0.301 N 
ATOM     12  C   UNL     1      34.692 -20.876 -19.928  0.00  0.00    +0.246 C 
ATOM     13  H   UNL     1      32.754 -20.241 -19.740  0.00  0.00    +0.150 HD
BRANCH  12  14
ATOM     14  C   UNL     1      34.540 -21.751 -18.737  0.00  0.00    +0.054 C 
ATOM     15  C   UNL     1      33.319 -22.349 -18.503  0.00  0.00    +0.008 C 
ATOM     16  C   UNL     1      35.622 -21.938 -17.903  0.00  0.00    +0.008 C 
ATOM     17  C   UNL     1      33.174 -23.170 -17.385  0.00  0.00    +0.037 C 
ATOM     18  C   UNL     1      35.479 -22.760 -16.786  0.00  0.00    +0.037 C 
ATOM     19  C   UNL     1      34.254 -23.376 -16.527  0.00  0.00    +0.134 C 
BRANCH  19  20
ATOM     20  O   UNL     1      34.115 -24.180 -15.437  0.00  0.00    -0.506 OA
ATOM     21  H   UNL     1      34.055 -25.109 -15.546  0.00  0.00    +0.292 HD
ENDBRANCH  19  20
ENDBRANCH  12  14
ENDBRANCH   2  11
BRANCH   3  22
ATOM     22  O   UNL     1      32.950 -16.935 -21.619  0.00  0.00    -0.448 OA
BRANCH  22  24
ATOM     23  O   UNL     1      32.445 -15.639 -19.786  0.00  0.00    -0.245 OA
ATOM     24  C   UNL     1      32.742 -15.766 -20.963  0.00  0.00    +0.341 C 
BRANCH  24  25
ATOM     25  C   UNL     1      32.924 -14.618 -21.886  0.00  0.00    +0.076 C 
ATOM     26  C   UNL     1      32.370 -13.399 -21.550  0.00  0.00    +0.007 C 
ATOM     27  C   UNL     1      33.639 -14.804 -23.051  0.00  0.00    +0.007 C 
ATOM     28  C   UNL     1      32.540 -12.319 -22.417  0.00  0.00    +0.003 C 
ATOM     29  C   UNL     1      33.810 -13.725 -23.918  0.00  0.00    +0.003 C 
ATOM     30  C   UNL     1      33.260 -12.482 -23.601  0.00  0.00    +0.039 C 
BRANCH  30  32
ATOM     31  O   UNL     1      33.543 -11.547 -25.726  0.00  0.00    -0.286 OA
ATOM     32  C   UNL     1      33.437 -11.357 -24.505  0.00  0.00    +0.198 C 
BRANCH  32  33
ATOM     33  C   UNL     1      33.501  -9.945 -24.022  0.00  0.00    +0.073 C 
ATOM     34  C   UNL     1      34.711  -9.291 -23.995  0.00  0.00    +0.137 C 
ATOM     35  C   UNL     1      32.326  -9.351 -23.621  0.00  0.00    +0.006 C 
ATOM     36  C   UNL     1      34.749  -7.973 -23.542  0.00  0.00    +0.037 C 
ATOM     37  C   UNL     1      32.363  -8.032 -23.167  0.00  0.00    +0.000 C 
ATOM     38  C   UNL     1      33.575  -7.344 -23.127  0.00  0.00    +0.003 C 
BRANCH  34  39
ATOM     39  O   UNL     1      35.869  -9.888 -24.395  0.00  0.00    -0.505 OA
ATOM     40  H   UNL     1      36.696  -9.533 -24.132  0.00  0.00    +0.292 HD
ENDBRANCH  34  39
ENDBRANCH  32  33
ENDBRANCH  30  32
ENDBRANCH  24  25
ENDBRANCH  22  24
ENDBRANCH   3  22
TORSDOF 9
ENDMDL
MODEL 8
REMARK VINA RESULT:      -9.5      2.638      8.480
REMARK  Name = 10050566
REMARK  9 active torsions:
REMARK  status: ('A' for Active; 'I' for Inactive)
REMARK    1  A    between atoms: C_2  and  N_11
REMARK    2  A    between atoms: C_3  and  O_22
REMARK    3  A    between atoms: C_12  and  C_14
REMARK    4  A    between atoms: C_19  and  O_20
REMARK    5  A    between atoms: O_22  and  C_24
REMARK    6  A    between atoms: C_24  and  C_25
REMARK    7  A    between atoms: C_30  and  C_32
REMARK    8  A    between atoms: C_32  and  C_33
REMARK    9  A    between atoms: C_34  and  O_39
REMARK                            x       y       z     vdW  Elec       q    Type
REMARK                         _______ _______ _______ _____ _____    ______ ____
ROOT
ATOM      1  N   UNL     1      28.816 -23.432 -16.539  0.00  0.00    +0.385 N 
ATOM      2  C   UNL     1      31.267 -23.216 -16.990  0.00  0.00    +0.091 C 
ATOM      3  C   UNL     1      31.670 -23.287 -15.506  0.00  0.00    +0.185 C 
ATOM      4  C   UNL     1      30.903 -22.371 -14.546  0.00  0.00    +0.043 C 
ATOM      5  C   UNL     1      29.849 -22.721 -17.292  0.00  0.00    -0.058 C 
ATOM      6  C   UNL     1      29.487 -22.832 -14.190  0.00  0.00    -0.020 C 
ATOM      7  C   UNL     1      28.461 -22.718 -15.312  0.00  0.00    -0.082 C 
ATOM      8  H   UNL     1      29.163 -24.360 -16.294  0.00  0.00    -0.084 HD
ATOM      9  H   UNL     1      27.982 -23.499 -17.123  0.00  0.00    -0.084 HD
ENDROOT
BRANCH   2  11
ATOM     10  O   UNL     1      33.614 -24.116 -18.374  0.00  0.00    -0.270 OA
ATOM     11  N   UNL     1      32.214 -22.390 -17.715  0.00  0.00    -0.301 N 
ATOM     12  C   UNL     1      33.318 -22.924 -18.351  0.00  0.00    +0.246 C 
ATOM     13  H   UNL     1      32.065 -21.418 -17.755  0.00  0.00    +0.150 HD
BRANCH  12  14
ATOM     14  C   UNL     1      34.205 -21.942 -19.027  0.00  0.00    +0.054 C 
ATOM     15  C   UNL     1      35.559 -21.976 -18.761  0.00  0.00    +0.008 C 
ATOM     16  C   UNL     1      33.649 -21.028 -19.897  0.00  0.00    +0.008 C 
ATOM     17  C   UNL     1      36.393 -21.055 -19.395  0.00  0.00    +0.037 C 
ATOM     18  C   UNL     1      34.482 -20.108 -20.531  0.00  0.00    +0.037 C 
ATOM     19  C   UNL     1      35.855 -20.121 -20.280  0.00  0.00    +0.134 C 
BRANCH  19  20
ATOM     20  O   UNL     1      36.668 -19.224 -20.901  0.00  0.00    -0.506 OA
ATOM     21  H   UNL     1      37.547 -19.102 -20.599  0.00  0.00    +0.292 HD
ENDBRANCH  19  20
ENDBRANCH  12  14
ENDBRANCH   2  11
BRANCH   3  22
ATOM     22  O   UNL     1      31.589 -24.643 -15.058  0.00  0.00    -0.448 OA
BRANCH  22  24
ATOM     23  O   UNL     1      31.347 -25.276 -12.858  0.00  0.00    -0.245 OA
ATOM     24  C   UNL     1      32.021 -24.868 -13.792  0.00  0.00    +0.341 C 
BRANCH  24  25
ATOM     25  C   UNL     1      33.464 -24.544 -13.674  0.00  0.00    +0.076 C 
ATOM     26  C   UNL     1      34.261 -24.630 -14.798  0.00  0.00    +0.007 C 
ATOM     27  C   UNL     1      33.966 -24.167 -12.445  0.00  0.00    +0.007 C 
ATOM     28  C   UNL     1      35.618 -24.327 -14.687  0.00  0.00    +0.003 C 
ATOM     29  C   UNL     1      35.322 -23.863 -12.334  0.00  0.00    +0.003 C 
ATOM     30  C   UNL     1      36.149 -23.943 -13.455  0.00  0.00    +0.039 C 
BRANCH  30  32
ATOM     31  O   UNL     1      37.928 -22.596 -12.755  0.00  0.00    -0.286 OA
ATOM     32  C   UNL     1      37.563 -23.627 -13.339  0.00  0.00    +0.198 C 
BRANCH  32  33
ATOM     33  C   UNL     1      38.629 -24.507 -13.908  0.00  0.00    +0.073 C 
ATOM     34  C   UNL     1      39.104 -24.266 -15.177  0.00  0.00    +0.137 C 
ATOM     35  C   UNL     1      39.098 -25.535 -13.121  0.00  0.00    +0.006 C 
ATOM     36  C   UNL     1      40.098 -25.098 -15.688  0.00  0.00    +0.037 C 
ATOM     37  C   UNL     1      40.094 -26.367 -13.632  0.00  0.00    +0.000 C 
ATOM     38  C   UNL     1      40.593 -26.149 -14.916  0.00  0.00    +0.003 C 
BRANCH  34  39
ATOM     39  O   UNL     1      38.632 -23.245 -15.946  0.00  0.00    -0.505 OA
ATOM     40  H   UNL     1      38.592 -23.339 -16.878  0.00  0.00    +0.292 HD
ENDBRANCH  34  39
ENDBRANCH  32  33
ENDBRANCH  30  32
ENDBRANCH  24  25
ENDBRANCH  22  24
ENDBRANCH   3  22
TORSDOF 9
ENDMDL
MODEL 9
REMARK VINA RESULT:      -9.4      7.844     12.641
REMARK  Name = 10050566
REMARK  9 active torsions:
REMARK  status: ('A' for Active; 'I' for Inactive)
REMARK    1  A    between atoms: C_2  and  N_11
REMARK    2  A    between atoms: C_3  and  O_22
REMARK    3  A    between atoms: C_12  and  C_14
REMARK    4  A    between atoms: C_19  and  O_20
REMARK    5  A    between atoms: O_22  and  C_24
REMARK    6  A    between atoms: C_24  and  C_25
REMARK    7  A    between atoms: C_30  and  C_32
REMARK    8  A    between atoms: C_32  and  C_33
REMARK    9  A    between atoms: C_34  and  O_39
REMARK                            x       y       z     vdW  Elec       q    Type
REMARK                         _______ _______ _______ _____ _____    ______ ____
ROOT
ATOM      1  N   UNL     1      32.828 -13.116 -26.176  0.00  0.00    +0.385 N 
ATOM      2  C   UNL     1      32.862 -14.111 -23.881  0.00  0.00    +0.091 C 
ATOM      3  C   UNL     1      33.094 -12.766 -23.169  0.00  0.00    +0.185 C 
ATOM      4  C   UNL     1      34.217 -11.884 -23.725  0.00  0.00    +0.043 C 
ATOM      5  C   UNL     1      33.329 -14.204 -25.337  0.00  0.00    -0.058 C 
ATOM      6  C   UNL     1      33.890 -11.146 -25.026  0.00  0.00    -0.020 C 
ATOM      7  C   UNL     1      33.797 -12.023 -26.270  0.00  0.00    -0.082 C 
ATOM      8  H   UNL     1      31.962 -12.757 -25.772  0.00  0.00    -0.084 HD
ATOM      9  H   UNL     1      32.667 -13.482 -27.114  0.00  0.00    -0.084 HD
ENDROOT
BRANCH   2  11
ATOM     10  O   UNL     1      34.015 -16.515 -24.941  0.00  0.00    -0.270 OA
ATOM     11  N   UNL     1      33.484 -15.179 -23.122  0.00  0.00    -0.301 N 
ATOM     12  C   UNL     1      34.013 -16.302 -23.731  0.00  0.00    +0.246 C 
ATOM     13  H   UNL     1      33.531 -15.103 -22.142  0.00  0.00    +0.150 HD
BRANCH  12  14
ATOM     14  C   UNL     1      34.590 -17.317 -22.813  0.00  0.00    +0.054 C 
ATOM     15  C   UNL     1      35.037 -16.914 -21.572  0.00  0.00    +0.008 C 
ATOM     16  C   UNL     1      34.663 -18.630 -23.231  0.00  0.00    +0.008 C 
ATOM     17  C   UNL     1      35.579 -17.866 -20.709  0.00  0.00    +0.037 C 
ATOM     18  C   UNL     1      35.204 -19.582 -22.368  0.00  0.00    +0.037 C 
ATOM     19  C   UNL     1      35.663 -19.200 -21.107  0.00  0.00    +0.134 C 
BRANCH  19  20
ATOM     20  O   UNL     1      36.189 -20.131 -20.265  0.00  0.00    -0.506 OA
ATOM     21  H   UNL     1      37.119 -20.214 -20.183  0.00  0.00    +0.292 HD
ENDBRANCH  19  20
ENDBRANCH  12  14
ENDBRANCH   2  11
BRANCH   3  22
ATOM     22  O   UNL     1      31.867 -12.031 -23.134  0.00  0.00    -0.448 OA
BRANCH  22  24
ATOM     23  O   UNL     1      31.422 -11.751 -20.894  0.00  0.00    -0.245 OA
ATOM     24  C   UNL     1      31.649 -11.307 -22.008  0.00  0.00    +0.341 C 
BRANCH  24  25
ATOM     25  C   UNL     1      31.722  -9.855 -22.307  0.00  0.00    +0.076 C 
ATOM     26  C   UNL     1      32.434  -9.033 -21.456  0.00  0.00    +0.007 C 
ATOM     27  C   UNL     1      31.075  -9.370 -23.425  0.00  0.00    +0.007 C 
ATOM     28  C   UNL     1      32.501  -7.668 -21.737  0.00  0.00    +0.003 C 
ATOM     29  C   UNL     1      31.142  -8.006 -23.706  0.00  0.00    +0.003 C 
ATOM     30  C   UNL     1      31.856  -7.154 -22.861  0.00  0.00    +0.039 C 
BRANCH  30  32
ATOM     31  O   UNL     1      31.705  -4.899 -22.261  0.00  0.00    -0.286 OA
ATOM     32  C   UNL     1      31.925  -5.732 -23.153  0.00  0.00    +0.198 C 
BRANCH  32  33
ATOM     33  C   UNL     1      32.258  -5.209 -24.513  0.00  0.00    +0.073 C 
ATOM     34  C   UNL     1      33.362  -5.694 -25.175  0.00  0.00    +0.137 C 
ATOM     35  C   UNL     1      31.429  -4.251 -25.052  0.00  0.00    +0.006 C 
ATOM     36  C   UNL     1      33.655  -5.194 -26.443  0.00  0.00    +0.037 C 
ATOM     37  C   UNL     1      31.721  -3.751 -26.320  0.00  0.00    +0.000 C 
ATOM     38  C   UNL     1      32.834  -4.221 -27.015  0.00  0.00    +0.003 C 
BRANCH  34  39
ATOM     39  O   UNL     1      34.176  -6.643 -24.632  0.00  0.00    -0.505 OA
ATOM     40  H   UNL     1      33.807  -7.420 -24.259  0.00  0.00    +0.292 HD
ENDBRANCH  34  39
ENDBRANCH  32  33
ENDBRANCH  30  32
ENDBRANCH  24  25
ENDBRANCH  22  24
ENDBRANCH   3  22
TORSDOF 9
ENDMDL
