MODEL 1
REMARK VINA RESULT:     -10.4      0.000      0.000
REMARK  Name = 17754396
REMARK  3 active torsions:
REMARK  status: ('A' for Active; 'I' for Inactive)
REMARK    1  A    between atoms: C_14  and  N_23
REMARK    2  A    between atoms: C_17  and  O_26
REMARK    3  A    between atoms: C_18  and  O_28
REMARK                            x       y       z     vdW  Elec       q    Type
REMARK                         _______ _______ _______ _____ _____    ______ ____
ROOT
ATOM      1  N   UNL     1      31.589 -23.060 -17.362  0.00  0.00    -0.388 NA
ATOM      2  N   UNL     1      36.361 -22.413 -17.162  0.00  0.00    -0.248 NA
ATOM      3  C   UNL     1      34.035 -23.574 -15.982  0.00  0.00    +0.009 C 
ATOM      4  C   UNL     1      32.734 -23.958 -15.427  0.00  0.00    +0.030 C 
ATOM      5  C   UNL     1      35.384 -23.871 -15.493  0.00  0.00    +0.017 C 
ATOM      6  C   UNL     1      33.980 -22.804 -17.159  0.00  0.00    +0.063 C 
ATOM      7  C   UNL     1      31.566 -23.705 -16.195  0.00  0.00    +0.130 C 
ATOM      8  C   UNL     1      36.488 -23.220 -16.108  0.00  0.00    +0.067 C 
ATOM      9  C   UNL     1      30.316 -24.105 -15.735  0.00  0.00    +0.021 C 
ATOM     10  C   UNL     1      32.769 -22.592 -17.798  0.00  0.00    +0.178 C 
ATOM     11  C   UNL     1      32.513 -24.520 -14.142  0.00  0.00    +0.004 C 
ATOM     12  C   UNL     1      35.711 -24.810 -14.480  0.00  0.00    +0.041 C 
ATOM     13  C   UNL     1      35.137 -22.253 -17.687  0.00  0.00    +0.102 C 
ATOM     14  C   UNL     1      30.148 -24.714 -14.496  0.00  0.00    +0.040 C 
ATOM     15  C   UNL     1      31.250 -24.905 -13.687  0.00  0.00    +0.014 C 
ATOM     16  C   UNL     1      37.782 -23.427 -15.638  0.00  0.00    +0.113 C 
ATOM     17  C   UNL     1      37.017 -25.017 -14.029  0.00  0.00    +0.169 C 
ATOM     18  C   UNL     1      38.056 -24.306 -14.597  0.00  0.00    +0.156 C 
ATOM     19  C   UNL     1      29.104 -23.893 -16.600  0.00  0.00    +0.035 C 
ATOM     20  N   UNL     1      32.720 -21.821 -18.988  0.00  0.00    -0.333 N 
ATOM     21  H   UNL     1      31.859 -21.670 -19.442  0.00  0.00    +0.145 HD
ATOM     22  H   UNL     1      33.546 -21.437 -19.360  0.00  0.00    +0.145 HD
ENDROOT
BRANCH  14  23
ATOM     23  N   UNL     1      28.883 -25.167 -14.066  0.00  0.00    -0.357 N 
ATOM     24  H   UNL     1      28.667 -26.127 -14.099  0.00  0.00    +0.142 HD
ATOM     25  H   UNL     1      28.217 -24.523 -13.732  0.00  0.00    +0.142 HD
ENDBRANCH  14  23
BRANCH  17  26
ATOM     26  O   UNL     1      37.249 -25.904 -13.023  0.00  0.00    -0.469 OA
ATOM     27  C   UNL     1      36.977 -25.463 -11.693  0.00  0.00    +0.253 C 
ENDBRANCH  17  26
BRANCH  18  28
ATOM     28  O   UNL     1      39.328 -24.430 -14.133  0.00  0.00    -0.472 OA
ATOM     29  C   UNL     1      40.179 -25.356 -14.806  0.00  0.00    +0.252 C 
ENDBRANCH  18  28
TORSDOF 3
ENDMDL
MODEL 2
REMARK VINA RESULT:      -9.4      1.839      4.700
REMARK  Name = 17754396
REMARK  3 active torsions:
REMARK  status: ('A' for Active; 'I' for Inactive)
REMARK    1  A    between atoms: C_14  and  N_23
REMARK    2  A    between atoms: C_17  and  O_26
REMARK    3  A    between atoms: C_18  and  O_28
REMARK                            x       y       z     vdW  Elec       q    Type
REMARK                         _______ _______ _______ _____ _____    ______ ____
ROOT
ATOM      1  N   UNL     1      32.224 -21.725 -18.456  0.00  0.00    -0.388 NA
ATOM      2  N   UNL     1      33.300 -24.599 -14.739  0.00  0.00    -0.248 NA
ATOM      3  C   UNL     1      34.254 -22.981 -16.889  0.00  0.00    +0.009 C 
ATOM      4  C   UNL     1      34.565 -22.250 -18.121  0.00  0.00    +0.030 C 
ATOM      5  C   UNL     1      35.159 -23.564 -15.896  0.00  0.00    +0.017 C 
ATOM      6  C   UNL     1      32.882 -23.147 -16.621  0.00  0.00    +0.063 C 
ATOM      7  C   UNL     1      33.502 -21.617 -18.822  0.00  0.00    +0.130 C 
ATOM      8  C   UNL     1      34.610 -24.393 -14.879  0.00  0.00    +0.067 C 
ATOM      9  C   UNL     1      33.758 -20.864 -19.964  0.00  0.00    +0.021 C 
ATOM     10  C   UNL     1      31.935 -22.507 -17.405  0.00  0.00    +0.178 C 
ATOM     11  C   UNL     1      35.843 -22.156 -18.731  0.00  0.00    +0.004 C 
ATOM     12  C   UNL     1      36.557 -23.333 -15.810  0.00  0.00    +0.041 C 
ATOM     13  C   UNL     1      32.470 -23.952 -15.572  0.00  0.00    +0.102 C 
ATOM     14  C   UNL     1      35.037 -20.741 -20.494  0.00  0.00    +0.040 C 
ATOM     15  C   UNL     1      36.082 -21.408 -19.886  0.00  0.00    +0.014 C 
ATOM     16  C   UNL     1      35.439 -25.015 -13.950  0.00  0.00    +0.113 C 
ATOM     17  C   UNL     1      37.374 -23.954 -14.863  0.00  0.00    +0.169 C 
ATOM     18  C   UNL     1      36.814 -24.816 -13.940  0.00  0.00    +0.156 C 
ATOM     19  C   UNL     1      32.627 -20.143 -20.644  0.00  0.00    +0.035 C 
ATOM     20  N   UNL     1      30.555 -22.673 -17.126  0.00  0.00    -0.333 N 
ATOM     21  H   UNL     1      29.881 -22.219 -17.684  0.00  0.00    +0.145 HD
ATOM     22  H   UNL     1      30.268 -23.242 -16.376  0.00  0.00    +0.145 HD
ENDROOT
BRANCH  14  23
ATOM     23  N   UNL     1      35.291 -19.929 -21.618  0.00  0.00    -0.357 N 
ATOM     24  H   UNL     1      34.798 -20.081 -22.457  0.00  0.00    +0.142 HD
ATOM     25  H   UNL     1      35.960 -19.208 -21.563  0.00  0.00    +0.142 HD
ENDBRANCH  14  23
BRANCH  17  26
ATOM     26  O   UNL     1      38.714 -23.717 -14.869  0.00  0.00    -0.469 OA
ATOM     27  C   UNL     1      39.556 -24.765 -15.348  0.00  0.00    +0.253 C 
ENDBRANCH  17  26
BRANCH  18  28
ATOM     28  O   UNL     1      37.589 -25.493 -13.051  0.00  0.00    -0.472 OA
ATOM     29  C   UNL     1      37.844 -24.861 -11.797  0.00  0.00    +0.252 C 
ENDBRANCH  18  28
TORSDOF 3
ENDMDL
MODEL 3
REMARK VINA RESULT:      -8.9      3.302      5.308
REMARK  Name = 17754396
REMARK  3 active torsions:
REMARK  status: ('A' for Active; 'I' for Inactive)
REMARK    1  A    between atoms: C_14  and  N_23
REMARK    2  A    between atoms: C_17  and  O_26
REMARK    3  A    between atoms: C_18  and  O_28
REMARK                            x       y       z     vdW  Elec       q    Type
REMARK                         _______ _______ _______ _____ _____    ______ ____
ROOT
ATOM      1  N   UNL     1      33.254 -24.215 -13.716  0.00  0.00    -0.388 NA
ATOM      2  N   UNL     1      36.491 -22.534 -16.866  0.00  0.00    -0.248 NA
ATOM      3  C   UNL     1      33.759 -23.153 -16.317  0.00  0.00    +0.009 C 
ATOM      4  C   UNL     1      32.444 -23.672 -15.932  0.00  0.00    +0.030 C 
ATOM      5  C   UNL     1      34.167 -22.456 -17.539  0.00  0.00    +0.017 C 
ATOM      6  C   UNL     1      34.783 -23.356 -15.374  0.00  0.00    +0.063 C 
ATOM      7  C   UNL     1      32.262 -24.145 -14.604  0.00  0.00    +0.130 C 
ATOM      8  C   UNL     1      35.552 -22.221 -17.759  0.00  0.00    +0.067 C 
ATOM      9  C   UNL     1      31.016 -24.592 -14.177  0.00  0.00    +0.021 C 
ATOM     10  C   UNL     1      34.485 -23.865 -14.119  0.00  0.00    +0.178 C 
ATOM     11  C   UNL     1      31.320 -23.805 -16.789  0.00  0.00    +0.004 C 
ATOM     12  C   UNL     1      33.292 -21.926 -18.524  0.00  0.00    +0.041 C 
ATOM     13  C   UNL     1      36.096 -23.050 -15.692  0.00  0.00    +0.102 C 
ATOM     14  C   UNL     1      29.920 -24.645 -15.031  0.00  0.00    +0.040 C 
ATOM     15  C   UNL     1      30.078 -24.269 -16.349  0.00  0.00    +0.014 C 
ATOM     16  C   UNL     1      35.989 -21.614 -18.933  0.00  0.00    +0.113 C 
ATOM     17  C   UNL     1      33.746 -21.307 -19.691  0.00  0.00    +0.169 C 
ATOM     18  C   UNL     1      35.103 -21.169 -19.906  0.00  0.00    +0.156 C 
ATOM     19  C   UNL     1      30.832 -25.017 -12.746  0.00  0.00    +0.035 C 
ATOM     20  N   UNL     1      35.520 -24.062 -13.170  0.00  0.00    -0.333 N 
ATOM     21  H   UNL     1      35.308 -24.424 -12.278  0.00  0.00    +0.145 HD
ATOM     22  H   UNL     1      36.450 -23.837 -13.400  0.00  0.00    +0.145 HD
ENDROOT
BRANCH  14  23
ATOM     23  N   UNL     1      28.649 -25.045 -14.570  0.00  0.00    -0.357 N 
ATOM     24  H   UNL     1      27.970 -25.361 -15.210  0.00  0.00    +0.142 HD
ATOM     25  H   UNL     1      28.440 -25.011 -13.608  0.00  0.00    +0.142 HD
ENDBRANCH  14  23
BRANCH  17  26
ATOM     26  O   UNL     1      32.846 -20.862 -20.611  0.00  0.00    -0.469 OA
ATOM     27  C   UNL     1      32.533 -19.470 -20.591  0.00  0.00    +0.253 C 
ENDBRANCH  17  26
BRANCH  18  28
ATOM     28  O   UNL     1      35.580 -20.637 -21.063  0.00  0.00    -0.472 OA
ATOM     29  C   UNL     1      36.170 -19.340 -20.988  0.00  0.00    +0.252 C 
ENDBRANCH  18  28
TORSDOF 3
ENDMDL
MODEL 4
REMARK VINA RESULT:      -8.9      3.401      6.657
REMARK  Name = 17754396
REMARK  3 active torsions:
REMARK  status: ('A' for Active; 'I' for Inactive)
REMARK    1  A    between atoms: C_14  and  N_23
REMARK    2  A    between atoms: C_17  and  O_26
REMARK    3  A    between atoms: C_18  and  O_28
REMARK                            x       y       z     vdW  Elec       q    Type
REMARK                         _______ _______ _______ _____ _____    ______ ____
ROOT
ATOM      1  N   UNL     1      34.368 -24.819 -14.238  0.00  0.00    -0.388 NA
ATOM      2  N   UNL     1      31.895 -22.374 -17.575  0.00  0.00    -0.248 NA
ATOM      3  C   UNL     1      34.445 -23.132 -16.540  0.00  0.00    +0.009 C 
ATOM      4  C   UNL     1      35.656 -23.480 -15.792  0.00  0.00    +0.030 C 
ATOM      5  C   UNL     1      34.306 -22.405 -17.804  0.00  0.00    +0.017 C 
ATOM      6  C   UNL     1      33.237 -23.559 -15.958  0.00  0.00    +0.063 C 
ATOM      7  C   UNL     1      35.539 -24.360 -14.681  0.00  0.00    +0.130 C 
ATOM      8  C   UNL     1      33.004 -22.027 -18.231  0.00  0.00    +0.067 C 
ATOM      9  C   UNL     1      36.669 -24.765 -13.977  0.00  0.00    +0.021 C 
ATOM     10  C   UNL     1      33.253 -24.387 -14.846  0.00  0.00    +0.178 C 
ATOM     11  C   UNL     1      36.959 -22.971 -16.035  0.00  0.00    +0.004 C 
ATOM     12  C   UNL     1      35.362 -22.081 -18.697  0.00  0.00    +0.041 C 
ATOM     13  C   UNL     1      32.025 -23.155 -16.492  0.00  0.00    +0.102 C 
ATOM     14  C   UNL     1      37.939 -24.293 -14.289  0.00  0.00    +0.040 C 
ATOM     15  C   UNL     1      38.082 -23.375 -15.310  0.00  0.00    +0.014 C 
ATOM     16  C   UNL     1      32.829 -21.284 -19.395  0.00  0.00    +0.113 C 
ATOM     17  C   UNL     1      35.168 -21.347 -19.869  0.00  0.00    +0.169 C 
ATOM     18  C   UNL     1      33.897 -20.928 -20.210  0.00  0.00    +0.156 C 
ATOM     19  C   UNL     1      36.526 -25.754 -12.854  0.00  0.00    +0.035 C 
ATOM     20  N   UNL     1      32.032 -24.820 -14.268  0.00  0.00    -0.333 N 
ATOM     21  H   UNL     1      32.043 -25.407 -13.477  0.00  0.00    +0.145 HD
ATOM     22  H   UNL     1      31.174 -24.533 -14.655  0.00  0.00    +0.145 HD
ENDROOT
BRANCH  14  23
ATOM     23  N   UNL     1      39.082 -24.755 -13.605  0.00  0.00    -0.357 N 
ATOM     24  H   UNL     1      39.545 -25.568 -13.912  0.00  0.00    +0.142 HD
ATOM     25  H   UNL     1      39.418 -24.264 -12.820  0.00  0.00    +0.142 HD
ENDBRANCH  14  23
BRANCH  17  26
ATOM     26  O   UNL     1      36.236 -21.037 -20.654  0.00  0.00    -0.469 OA
ATOM     27  C   UNL     1      37.006 -19.895 -20.282  0.00  0.00    +0.253 C 
ENDBRANCH  17  26
BRANCH  18  28
ATOM     28  O   UNL     1      33.684 -20.151 -21.304  0.00  0.00    -0.472 OA
ATOM     29  C   UNL     1      33.704 -18.737 -21.112  0.00  0.00    +0.252 C 
ENDBRANCH  18  28
TORSDOF 3
ENDMDL
MODEL 5
REMARK VINA RESULT:      -8.9     13.406     15.977
REMARK  Name = 17754396
REMARK  3 active torsions:
REMARK  status: ('A' for Active; 'I' for Inactive)
REMARK    1  A    between atoms: C_14  and  N_23
REMARK    2  A    between atoms: C_17  and  O_26
REMARK    3  A    between atoms: C_18  and  O_28
REMARK                            x       y       z     vdW  Elec       q    Type
REMARK                         _______ _______ _______ _____ _____    ______ ____
ROOT
ATOM      1  N   UNL     1      31.803  -8.754 -20.166  0.00  0.00    -0.388 NA
ATOM      2  N   UNL     1      32.180 -13.487 -20.992  0.00  0.00    -0.248 NA
ATOM      3  C   UNL     1      32.269 -10.841 -22.058  0.00  0.00    +0.009 C 
ATOM      4  C   UNL     1      32.121  -9.441 -22.467  0.00  0.00    +0.030 C 
ATOM      5  C   UNL     1      32.642 -12.011 -22.856  0.00  0.00    +0.017 C 
ATOM      6  C   UNL     1      32.014 -11.098 -20.698  0.00  0.00    +0.063 C 
ATOM      7  C   UNL     1      31.933  -8.456 -21.459  0.00  0.00    +0.130 C 
ATOM      8  C   UNL     1      32.531 -13.300 -22.265  0.00  0.00    +0.067 C 
ATOM      9  C   UNL     1      31.846  -7.108 -21.795  0.00  0.00    +0.021 C 
ATOM     10  C   UNL     1      31.804 -10.049 -19.817  0.00  0.00    +0.178 C 
ATOM     11  C   UNL     1      32.089  -8.964 -23.803  0.00  0.00    +0.004 C 
ATOM     12  C   UNL     1      33.171 -11.984 -24.173  0.00  0.00    +0.041 C 
ATOM     13  C   UNL     1      31.970 -12.402 -20.232  0.00  0.00    +0.102 C 
ATOM     14  C   UNL     1      31.885  -6.675 -23.116  0.00  0.00    +0.040 C 
ATOM     15  C   UNL     1      31.987  -7.610 -24.126  0.00  0.00    +0.014 C 
ATOM     16  C   UNL     1      32.818 -14.444 -23.004  0.00  0.00    +0.113 C 
ATOM     17  C   UNL     1      33.468 -13.141 -24.897  0.00  0.00    +0.169 C 
ATOM     18  C   UNL     1      33.271 -14.379 -24.316  0.00  0.00    +0.156 C 
ATOM     19  C   UNL     1      31.723  -6.080 -20.705  0.00  0.00    +0.035 C 
ATOM     20  N   UNL     1      31.555 -10.315 -18.446  0.00  0.00    -0.333 N 
ATOM     21  H   UNL     1      31.405  -9.569 -17.819  0.00  0.00    +0.145 HD
ATOM     22  H   UNL     1      31.530 -11.243 -18.120  0.00  0.00    +0.145 HD
ENDROOT
BRANCH  14  23
ATOM     23  N   UNL     1      31.854  -5.302 -23.439  0.00  0.00    -0.357 N 
ATOM     24  H   UNL     1      32.686  -4.775 -23.428  0.00  0.00    +0.142 HD
ATOM     25  H   UNL     1      31.001  -4.872 -23.676  0.00  0.00    +0.142 HD
ENDBRANCH  14  23
BRANCH  17  26
ATOM     26  O   UNL     1      33.932 -13.037 -26.173  0.00  0.00    -0.469 OA
ATOM     27  C   UNL     1      32.980 -13.191 -27.224  0.00  0.00    +0.253 C 
ENDBRANCH  17  26
BRANCH  18  28
ATOM     28  O   UNL     1      33.481 -15.525 -25.018  0.00  0.00    -0.472 OA
ATOM     29  C   UNL     1      34.525 -16.384 -24.562  0.00  0.00    +0.252 C 
ENDBRANCH  18  28
TORSDOF 3
ENDMDL
MODEL 6
REMARK VINA RESULT:      -8.5      3.639      5.781
REMARK  Name = 17754396
REMARK  3 active torsions:
REMARK  status: ('A' for Active; 'I' for Inactive)
REMARK    1  A    between atoms: C_14  and  N_23
REMARK    2  A    between atoms: C_17  and  O_26
REMARK    3  A    between atoms: C_18  and  O_28
REMARK                            x       y       z     vdW  Elec       q    Type
REMARK                         _______ _______ _______ _____ _____    ______ ____
ROOT
ATOM      1  N   UNL     1      34.575 -23.739 -14.438  0.00  0.00    -0.388 NA
ATOM      2  N   UNL     1      37.191 -21.840 -18.012  0.00  0.00    -0.248 NA
ATOM      3  C   UNL     1      34.610 -22.590 -17.051  0.00  0.00    +0.009 C 
ATOM      4  C   UNL     1      33.395 -23.174 -16.476  0.00  0.00    +0.030 C 
ATOM      5  C   UNL     1      34.787 -21.844 -18.300  0.00  0.00    +0.017 C 
ATOM      6  C   UNL     1      35.781 -22.773 -16.292  0.00  0.00    +0.063 C 
ATOM      7  C   UNL     1      33.450 -23.688 -15.152  0.00  0.00    +0.130 C 
ATOM      8  C   UNL     1      36.108 -21.545 -18.732  0.00  0.00    +0.067 C 
ATOM      9  C   UNL     1      32.307 -24.199 -14.544  0.00  0.00    +0.021 C 
ATOM     10  C   UNL     1      35.710 -23.326 -15.023  0.00  0.00    +0.178 C 
ATOM     11  C   UNL     1      32.153 -23.333 -17.145  0.00  0.00    +0.004 C 
ATOM     12  C   UNL     1      33.744 -21.328 -19.113  0.00  0.00    +0.041 C 
ATOM     13  C   UNL     1      37.012 -22.402 -16.807  0.00  0.00    +0.102 C 
ATOM     14  C   UNL     1      31.090 -24.277 -15.212  0.00  0.00    +0.040 C 
ATOM     15  C   UNL     1      31.018 -23.861 -16.526  0.00  0.00    +0.014 C 
ATOM     16  C   UNL     1      36.325 -20.890 -19.941  0.00  0.00    +0.113 C 
ATOM     17  C   UNL     1      33.979 -20.660 -20.318  0.00  0.00    +0.169 C 
ATOM     18  C   UNL     1      35.277 -20.458 -20.744  0.00  0.00    +0.156 C 
ATOM     19  C   UNL     1      32.374 -24.668 -13.117  0.00  0.00    +0.035 C 
ATOM     20  N   UNL     1      36.892 -23.502 -14.259  0.00  0.00    -0.333 N 
ATOM     21  H   UNL     1      36.842 -23.896 -13.357  0.00  0.00    +0.145 HD
ATOM     22  H   UNL     1      37.763 -23.232 -14.629  0.00  0.00    +0.145 HD
ENDROOT
BRANCH  14  23
ATOM     23  N   UNL     1      29.927 -24.743 -14.565  0.00  0.00    -0.357 N 
ATOM     24  H   UNL     1      29.975 -25.526 -13.969  0.00  0.00    +0.142 HD
ATOM     25  H   UNL     1      29.067 -24.286 -14.708  0.00  0.00    +0.142 HD
ENDBRANCH  14  23
BRANCH  17  26
ATOM     26  O   UNL     1      32.926 -20.231 -21.066  0.00  0.00    -0.469 OA
ATOM     27  C   UNL     1      32.379 -18.953 -20.743  0.00  0.00    +0.253 C 
ENDBRANCH  17  26
BRANCH  18  28
ATOM     28  O   UNL     1      35.539 -19.877 -21.944  0.00  0.00    -0.472 OA
ATOM     29  C   UNL     1      35.957 -18.513 -21.929  0.00  0.00    +0.252 C 
ENDBRANCH  18  28
TORSDOF 3
ENDMDL
MODEL 7
REMARK VINA RESULT:      -8.3     15.323     17.885
REMARK  Name = 17754396
REMARK  3 active torsions:
REMARK  status: ('A' for Active; 'I' for Inactive)
REMARK    1  A    between atoms: C_14  and  N_23
REMARK    2  A    between atoms: C_17  and  O_26
REMARK    3  A    between atoms: C_18  and  O_28
REMARK                            x       y       z     vdW  Elec       q    Type
REMARK                         _______ _______ _______ _____ _____    ______ ____
ROOT
ATOM      1  N   UNL     1      31.999 -11.868 -20.950  0.00  0.00    -0.388 NA
ATOM      2  N   UNL     1      31.677  -7.109 -20.258  0.00  0.00    -0.248 NA
ATOM      3  C   UNL     1      32.209  -9.250 -22.069  0.00  0.00    +0.009 C 
ATOM      4  C   UNL     1      32.605 -10.448 -22.816  0.00  0.00    +0.030 C 
ATOM      5  C   UNL     1      32.118  -7.858 -22.518  0.00  0.00    +0.017 C 
ATOM      6  C   UNL     1      31.868  -9.469 -20.722  0.00  0.00    +0.063 C 
ATOM      7  C   UNL     1      32.430 -11.718 -22.203  0.00  0.00    +0.130 C 
ATOM      8  C   UNL     1      31.891  -6.845 -21.547  0.00  0.00    +0.067 C 
ATOM      9  C   UNL     1      32.737 -12.886 -22.895  0.00  0.00    +0.021 C 
ATOM     10  C   UNL     1      31.769 -10.760 -20.228  0.00  0.00    +0.178 C 
ATOM     11  C   UNL     1      33.213 -10.464 -24.098  0.00  0.00    +0.004 C 
ATOM     12  C   UNL     1      32.177  -7.415 -23.865  0.00  0.00    +0.041 C 
ATOM     13  C   UNL     1      31.629  -8.396 -19.879  0.00  0.00    +0.102 C 
ATOM     14  C   UNL     1      33.271 -12.862 -24.179  0.00  0.00    +0.040 C 
ATOM     15  C   UNL     1      33.529 -11.644 -24.776  0.00  0.00    +0.014 C 
ATOM     16  C   UNL     1      31.855  -5.504 -21.920  0.00  0.00    +0.113 C 
ATOM     17  C   UNL     1      32.125  -6.066 -24.225  0.00  0.00    +0.169 C 
ATOM     18  C   UNL     1      31.984  -5.104 -23.244  0.00  0.00    +0.156 C 
ATOM     19  C   UNL     1      32.473 -14.219 -22.253  0.00  0.00    +0.035 C 
ATOM     20  N   UNL     1      31.417 -10.975 -18.871  0.00  0.00    -0.333 N 
ATOM     21  H   UNL     1      31.347 -11.893 -18.520  0.00  0.00    +0.145 HD
ATOM     22  H   UNL     1      31.244 -10.208 -18.279  0.00  0.00    +0.145 HD
ENDROOT
BRANCH  14  23
ATOM     23  N   UNL     1      33.523 -14.052 -24.891  0.00  0.00    -0.357 N 
ATOM     24  H   UNL     1      34.434 -14.252 -25.209  0.00  0.00    +0.142 HD
ATOM     25  H   UNL     1      32.789 -14.684 -25.070  0.00  0.00    +0.142 HD
ENDBRANCH  14  23
BRANCH  17  26
ATOM     26  O   UNL     1      32.231  -5.714 -25.536  0.00  0.00    -0.469 OA
ATOM     27  C   UNL     1      33.545  -5.471 -26.038  0.00  0.00    +0.253 C 
ENDBRANCH  17  26
BRANCH  18  28
ATOM     28  O   UNL     1      32.003  -3.780 -23.552  0.00  0.00    -0.472 OA
ATOM     29  C   UNL     1      30.907  -2.989 -23.093  0.00  0.00    +0.252 C 
ENDBRANCH  18  28
TORSDOF 3
ENDMDL
MODEL 8
REMARK VINA RESULT:      -8.2      2.880      6.420
REMARK  Name = 17754396
REMARK  3 active torsions:
REMARK  status: ('A' for Active; 'I' for Inactive)
REMARK    1  A    between atoms: C_14  and  N_23
REMARK    2  A    between atoms: C_17  and  O_26
REMARK    3  A    between atoms: C_18  and  O_28
REMARK                            x       y       z     vdW  Elec       q    Type
REMARK                         _______ _______ _______ _____ _____    ______ ____
ROOT
ATOM      1  N   UNL     1      36.981 -22.763 -16.904  0.00  0.00    -0.388 NA
ATOM      2  N   UNL     1      32.416 -22.175 -18.331  0.00  0.00    -0.248 NA
ATOM      3  C   UNL     1      34.211 -23.169 -16.346  0.00  0.00    +0.009 C 
ATOM      4  C   UNL     1      35.265 -23.757 -15.514  0.00  0.00    +0.030 C 
ATOM      5  C   UNL     1      32.760 -23.153 -16.142  0.00  0.00    +0.017 C 
ATOM      6  C   UNL     1      34.659 -22.525 -17.515  0.00  0.00    +0.063 C 
ATOM      7  C   UNL     1      36.620 -23.473 -15.834  0.00  0.00    +0.130 C 
ATOM      8  C   UNL     1      31.931 -22.680 -17.195  0.00  0.00    +0.067 C 
ATOM      9  C   UNL     1      37.652 -23.961 -15.038  0.00  0.00    +0.021 C 
ATOM     10  C   UNL     1      36.015 -22.343 -17.734  0.00  0.00    +0.178 C 
ATOM     11  C   UNL     1      35.065 -24.650 -14.429  0.00  0.00    +0.004 C 
ATOM     12  C   UNL     1      32.086 -23.516 -14.947  0.00  0.00    +0.041 C 
ATOM     13  C   UNL     1      33.748 -22.070 -18.453  0.00  0.00    +0.102 C 
ATOM     14  C   UNL     1      37.411 -24.781 -13.942  0.00  0.00    +0.040 C 
ATOM     15  C   UNL     1      36.112 -25.143 -13.647  0.00  0.00    +0.014 C 
ATOM     16  C   UNL     1      30.545 -22.701 -17.068  0.00  0.00    +0.113 C 
ATOM     17  C   UNL     1      30.694 -23.519 -14.830  0.00  0.00    +0.169 C 
ATOM     18  C   UNL     1      29.918 -23.128 -15.904  0.00  0.00    +0.156 C 
ATOM     19  C   UNL     1      39.073 -23.584 -15.354  0.00  0.00    +0.035 C 
ATOM     20  N   UNL     1      36.461 -21.687 -18.910  0.00  0.00    -0.333 N 
ATOM     21  H   UNL     1      37.425 -21.558 -19.067  0.00  0.00    +0.145 HD
ATOM     22  H   UNL     1      35.808 -21.361 -19.571  0.00  0.00    +0.145 HD
ENDROOT
BRANCH  14  23
ATOM     23  N   UNL     1      38.461 -25.222 -13.110  0.00  0.00    -0.357 N 
ATOM     24  H   UNL     1      39.187 -24.603 -12.864  0.00  0.00    +0.142 HD
ATOM     25  H   UNL     1      38.468 -26.148 -12.774  0.00  0.00    +0.142 HD
ENDBRANCH  14  23
BRANCH  17  26
ATOM     26  O   UNL     1      30.117 -23.922 -13.664  0.00  0.00    -0.469 OA
ATOM     27  C   UNL     1      30.744 -24.999 -12.969  0.00  0.00    +0.253 C 
ENDBRANCH  17  26
BRANCH  18  28
ATOM     28  O   UNL     1      28.561 -23.188 -15.848  0.00  0.00    -0.472 OA
ATOM     29  C   UNL     1      27.842 -22.719 -16.987  0.00  0.00    +0.252 C 
ENDBRANCH  18  28
TORSDOF 3
ENDMDL
MODEL 9
REMARK VINA RESULT:      -7.7     13.726     16.490
REMARK  Name = 17754396
REMARK  3 active torsions:
REMARK  status: ('A' for Active; 'I' for Inactive)
REMARK    1  A    between atoms: C_14  and  N_23
REMARK    2  A    between atoms: C_17  and  O_26
REMARK    3  A    between atoms: C_18  and  O_28
REMARK                            x       y       z     vdW  Elec       q    Type
REMARK                         _______ _______ _______ _____ _____    ______ ____
ROOT
ATOM      1  N   UNL     1      32.616 -14.245 -23.083  0.00  0.00    -0.388 NA
ATOM      2  N   UNL     1      31.912 -10.637 -19.966  0.00  0.00    -0.248 NA
ATOM      3  C   UNL     1      32.495 -11.426 -22.647  0.00  0.00    +0.009 C 
ATOM      4  C   UNL     1      32.940 -11.996 -23.922  0.00  0.00    +0.030 C 
ATOM      5  C   UNL     1      32.240 -10.029 -22.287  0.00  0.00    +0.017 C 
ATOM      6  C   UNL     1      32.282 -12.359 -21.615  0.00  0.00    +0.063 C 
ATOM      7  C   UNL     1      32.931 -13.410 -24.073  0.00  0.00    +0.130 C 
ATOM      8  C   UNL     1      31.998  -9.712 -20.922  0.00  0.00    +0.067 C 
ATOM      9  C   UNL     1      33.289 -13.993 -25.285  0.00  0.00    +0.021 C 
ATOM     10  C   UNL     1      32.341 -13.718 -21.880  0.00  0.00    +0.178 C 
ATOM     11  C   UNL     1      33.444 -11.264 -25.028  0.00  0.00    +0.004 C 
ATOM     12  C   UNL     1      32.152  -8.941 -23.194  0.00  0.00    +0.041 C 
ATOM     13  C   UNL     1      32.012 -11.925 -20.327  0.00  0.00    +0.102 C 
ATOM     14  C   UNL     1      33.715 -13.235 -26.369  0.00  0.00    +0.040 C 
ATOM     15  C   UNL     1      33.812 -11.865 -26.234  0.00  0.00    +0.014 C 
ATOM     16  C   UNL     1      31.809  -8.390 -20.526  0.00  0.00    +0.113 C 
ATOM     17  C   UNL     1      31.948  -7.622 -22.783  0.00  0.00    +0.169 C 
ATOM     18  C   UNL     1      31.796  -7.343 -21.439  0.00  0.00    +0.156 C 
ATOM     19  C   UNL     1      33.200 -15.486 -25.443  0.00  0.00    +0.035 C 
ATOM     20  N   UNL     1      32.119 -14.654 -20.838  0.00  0.00    -0.333 N 
ATOM     21  H   UNL     1      32.162 -15.620 -21.025  0.00  0.00    +0.145 HD
ATOM     22  H   UNL     1      31.923 -14.339 -19.926  0.00  0.00    +0.145 HD
ENDROOT
BRANCH  14  23
ATOM     23  N   UNL     1      34.020 -13.834 -27.609  0.00  0.00    -0.357 N 
ATOM     24  H   UNL     1      34.252 -13.272 -28.384  0.00  0.00    +0.142 HD
ATOM     25  H   UNL     1      34.001 -14.815 -27.700  0.00  0.00    +0.142 HD
ENDBRANCH  14  23
BRANCH  17  26
ATOM     26  O   UNL     1      31.918  -6.624 -23.709  0.00  0.00    -0.469 OA
ATOM     27  C   UNL     1      33.132  -6.352 -24.408  0.00  0.00    +0.253 C 
ENDBRANCH  17  26
BRANCH  18  28
ATOM     28  O   UNL     1      31.669  -6.063 -20.998  0.00  0.00    -0.472 OA
ATOM     29  C   UNL     1      30.473  -5.369 -21.350  0.00  0.00    +0.252 C 
ENDBRANCH  18  28
TORSDOF 3
ENDMDL
