MODEL 1
REMARK VINA RESULT:      -6.5      0.000      0.000
REMARK  Name = 93485622
REMARK  8 active torsions:
REMARK  status: ('A' for Active; 'I' for Inactive)
REMARK    1  A    between atoms: C_2  and  C_3
REMARK    2  A    between atoms: C_2  and  C_13
REMARK    3  A    between atoms: C_3  and  CA_4
REMARK    4  A    between atoms: CA_4  and  N_5
REMARK    5  A    between atoms: CA_4  and  C_10
REMARK    6  A    between atoms: C_10  and  O_11
REMARK    7  A    between atoms: C_13  and  C_14
REMARK    8  A    between atoms: C_14  and  N_15
REMARK                            x       y       z     vdW  Elec       q    Type
REMARK                         _______ _______ _______ _____ _____    ______ ____
ROOT
ATOM      1  F   UNL     1      36.225 -26.179 -15.436  0.00  0.00    -0.237 F 
ATOM      2  C   UNL     1      36.305 -24.862 -15.104  0.00  0.00    +0.161 C 
ENDROOT
BRANCH   2   3
ATOM      3  C   UNL     1      37.762 -24.522 -14.768  0.00  0.00    +0.024 C 
BRANCH   3   4
ATOM      4  CA  UNL     1      38.684 -25.723 -14.513  0.00  0.00    +0.038 C 
BRANCH   4   5
ATOM      5  N   UNL     1      38.679 -26.033 -13.079  0.00  0.00    +0.389 N 
ATOM      6  H1  UNL     1      39.633 -25.989 -12.719  0.00  0.00    -0.088 HD
ATOM      7  H2  UNL     1      38.305 -26.972 -12.936  0.00  0.00    -0.088 HD
ATOM      8  H3  UNL     1      38.097 -25.356 -12.587  0.00  0.00    -0.088 HD
ENDBRANCH   4   5
BRANCH   4  10
ATOM      9  OXT UNL     1      40.885 -24.721 -14.231  0.00  0.00    -0.253 OA
ATOM     10  C   UNL     1      40.122 -25.415 -14.893  0.00  0.00    +0.293 C 
BRANCH  10  11
ATOM     11  O   UNL     1      40.480 -25.976 -16.075  0.00  0.00    -0.482 OA
ATOM     12  H   UNL     1      40.161 -25.617 -16.880  0.00  0.00    +0.295 HD
ENDBRANCH  10  11
ENDBRANCH   4  10
ENDBRANCH   3   4
ENDBRANCH   2   3
BRANCH   2  13
ATOM     13  C   UNL     1      35.319 -24.564 -13.972  0.00  0.00    +0.056 C 
BRANCH  13  14
ATOM     14  C   UNL     1      33.933 -24.186 -14.486  0.00  0.00    +0.091 C 
BRANCH  14  15
ATOM     15  N   UNL     1      32.910 -24.982 -13.807  0.00  0.00    -0.323 N 
ATOM     16  N   UNL     1      30.565 -25.041 -13.272  0.00  0.00    -0.390 N 
ATOM     17  C   UNL     1      31.710 -24.508 -13.815  0.00  0.00    +0.075 C 
ATOM     18  C   UNL     1      31.527 -23.187 -14.532  0.00  0.00    +0.066 C 
ATOM     19  H   UNL     1      33.126 -25.835 -13.366  0.00  0.00    +0.148 HD
ATOM     20  H   UNL     1      30.601 -25.898 -12.791  0.00  0.00    +0.157 HD
ATOM     21  H   UNL     1      29.708 -24.565 -13.366  0.00  0.00    +0.157 HD
ENDBRANCH  14  15
ENDBRANCH  13  14
ENDBRANCH   2  13
TORSDOF 8
ENDMDL
MODEL 2
REMARK VINA RESULT:      -6.5      3.630      4.341
REMARK  Name = 93485622
REMARK  8 active torsions:
REMARK  status: ('A' for Active; 'I' for Inactive)
REMARK    1  A    between atoms: C_2  and  C_3
REMARK    2  A    between atoms: C_2  and  C_13
REMARK    3  A    between atoms: C_3  and  CA_4
REMARK    4  A    between atoms: CA_4  and  N_5
REMARK    5  A    between atoms: CA_4  and  C_10
REMARK    6  A    between atoms: C_10  and  O_11
REMARK    7  A    between atoms: C_13  and  C_14
REMARK    8  A    between atoms: C_14  and  N_15
REMARK                            x       y       z     vdW  Elec       q    Type
REMARK                         _______ _______ _______ _____ _____    ______ ____
ROOT
ATOM      1  F   UNL     1      39.509 -25.962 -13.517  0.00  0.00    -0.237 F 
ATOM      2  C   UNL     1      38.297 -25.346 -13.461  0.00  0.00    +0.161 C 
ENDROOT
BRANCH   2   3
ATOM      3  C   UNL     1      38.101 -24.763 -12.056  0.00  0.00    +0.024 C 
BRANCH   3   4
ATOM      4  CA  UNL     1      36.913 -23.803 -11.895  0.00  0.00    +0.038 C 
BRANCH   4   5
ATOM      5  N   UNL     1      37.391 -22.546 -11.310  0.00  0.00    +0.389 N 
ATOM      6  H1  UNL     1      36.783 -22.277 -10.537  0.00  0.00    -0.088 HD
ATOM      7  H2  UNL     1      37.380 -21.814 -12.022  0.00  0.00    -0.088 HD
ATOM      8  H3  UNL     1      38.344 -22.671 -10.967  0.00  0.00    -0.088 HD
ENDBRANCH   4   5
BRANCH   4  10
ATOM      9  OXT UNL     1      35.921 -24.281  -9.723  0.00  0.00    -0.253 OA
ATOM     10  C   UNL     1      35.868 -24.361 -10.945  0.00  0.00    +0.293 C 
BRANCH  10  11
ATOM     11  O   UNL     1      34.858 -24.992 -11.596  0.00  0.00    -0.482 OA
ATOM     12  H   UNL     1      34.867 -25.925 -11.684  0.00  0.00    +0.295 HD
ENDBRANCH  10  11
ENDBRANCH   4  10
ENDBRANCH   3   4
ENDBRANCH   2   3
BRANCH   2  13
ATOM     13  C   UNL     1      37.207 -26.333 -13.883  0.00  0.00    +0.056 C 
BRANCH  13  14
ATOM     14  C   UNL     1      36.397 -25.837 -15.078  0.00  0.00    +0.091 C 
BRANCH  14  15
ATOM     15  N   UNL     1      35.140 -25.243 -14.622  0.00  0.00    -0.323 N 
ATOM     16  N   UNL     1      33.873 -23.197 -14.618  0.00  0.00    -0.390 N 
ATOM     17  C   UNL     1      34.953 -23.999 -14.907  0.00  0.00    +0.075 C 
ATOM     18  C   UNL     1      36.067 -23.323 -15.679  0.00  0.00    +0.066 C 
ATOM     19  H   UNL     1      34.472 -25.766 -14.124  0.00  0.00    +0.148 HD
ATOM     20  H   UNL     1      33.108 -23.563 -14.120  0.00  0.00    +0.157 HD
ATOM     21  H   UNL     1      33.867 -22.257 -14.911  0.00  0.00    +0.157 HD
ENDBRANCH  14  15
ENDBRANCH  13  14
ENDBRANCH   2  13
TORSDOF 8
ENDMDL
MODEL 3
REMARK VINA RESULT:      -6.3     10.882     11.660
REMARK  Name = 93485622
REMARK  8 active torsions:
REMARK  status: ('A' for Active; 'I' for Inactive)
REMARK    1  A    between atoms: C_2  and  C_3
REMARK    2  A    between atoms: C_2  and  C_13
REMARK    3  A    between atoms: C_3  and  CA_4
REMARK    4  A    between atoms: CA_4  and  N_5
REMARK    5  A    between atoms: CA_4  and  C_10
REMARK    6  A    between atoms: C_10  and  O_11
REMARK    7  A    between atoms: C_13  and  C_14
REMARK    8  A    between atoms: C_14  and  N_15
REMARK                            x       y       z     vdW  Elec       q    Type
REMARK                         _______ _______ _______ _____ _____    ______ ____
ROOT
ATOM      1  F   UNL     1      34.851 -17.541 -25.382  0.00  0.00    -0.237 F 
ATOM      2  C   UNL     1      34.610 -17.616 -24.045  0.00  0.00    +0.161 C 
ENDROOT
BRANCH   2   3
ATOM      3  C   UNL     1      35.163 -16.356 -23.369  0.00  0.00    +0.024 C 
BRANCH   3   4
ATOM      4  CA  UNL     1      34.118 -15.436 -22.721  0.00  0.00    +0.038 C 
BRANCH   4   5
ATOM      5  N   UNL     1      34.524 -14.040 -22.917  0.00  0.00    +0.389 N 
ATOM      6  H1  UNL     1      35.532 -13.957 -22.788  0.00  0.00    -0.088 HD
ATOM      7  H2  UNL     1      34.045 -13.449 -22.237  0.00  0.00    -0.088 HD
ATOM      8  H3  UNL     1      34.276 -13.743 -23.860  0.00  0.00    -0.088 HD
ENDBRANCH   4   5
BRANCH   4  10
ATOM      9  OXT UNL     1      34.871 -15.303 -20.409  0.00  0.00    -0.253 OA
ATOM     10  C   UNL     1      34.027 -15.663 -21.222  0.00  0.00    +0.293 C 
BRANCH  10  11
ATOM     11  O   UNL     1      32.905 -16.338 -20.865  0.00  0.00    -0.482 OA
ATOM     12  H   UNL     1      32.960 -17.238 -20.611  0.00  0.00    +0.295 HD
ENDBRANCH  10  11
ENDBRANCH   4  10
ENDBRANCH   3   4
ENDBRANCH   2   3
BRANCH   2  13
ATOM     13  C   UNL     1      35.191 -18.922 -23.498  0.00  0.00    +0.056 C 
BRANCH  13  14
ATOM     14  C   UNL     1      35.210 -18.962 -21.973  0.00  0.00    +0.091 C 
BRANCH  14  15
ATOM     15  N   UNL     1      33.882 -19.299 -21.461  0.00  0.00    -0.323 N 
ATOM     16  N   UNL     1      32.735 -20.682 -19.861  0.00  0.00    -0.390 N 
ATOM     17  C   UNL     1      33.831 -20.187 -20.527  0.00  0.00    +0.075 C 
ATOM     18  C   UNL     1      35.163 -20.759 -20.087  0.00  0.00    +0.066 C 
ATOM     19  H   UNL     1      33.068 -18.870 -21.811  0.00  0.00    +0.148 HD
ATOM     20  H   UNL     1      31.834 -20.360 -20.088  0.00  0.00    +0.157 HD
ATOM     21  H   UNL     1      32.852 -21.359 -19.155  0.00  0.00    +0.157 HD
ENDBRANCH  14  15
ENDBRANCH  13  14
ENDBRANCH   2  13
TORSDOF 8
ENDMDL
MODEL 4
REMARK VINA RESULT:      -6.3      1.847      2.197
REMARK  Name = 93485622
REMARK  8 active torsions:
REMARK  status: ('A' for Active; 'I' for Inactive)
REMARK    1  A    between atoms: C_2  and  C_3
REMARK    2  A    between atoms: C_2  and  C_13
REMARK    3  A    between atoms: C_3  and  CA_4
REMARK    4  A    between atoms: CA_4  and  N_5
REMARK    5  A    between atoms: CA_4  and  C_10
REMARK    6  A    between atoms: C_10  and  O_11
REMARK    7  A    between atoms: C_13  and  C_14
REMARK    8  A    between atoms: C_14  and  N_15
REMARK                            x       y       z     vdW  Elec       q    Type
REMARK                         _______ _______ _______ _____ _____    ______ ____
ROOT
ATOM      1  F   UNL     1      36.186 -26.315 -15.236  0.00  0.00    -0.237 F 
ATOM      2  C   UNL     1      36.279 -24.959 -15.180  0.00  0.00    +0.161 C 
ENDROOT
BRANCH   2   3
ATOM      3  C   UNL     1      37.723 -24.574 -14.836  0.00  0.00    +0.024 C 
BRANCH   3   4
ATOM      4  CA  UNL     1      38.664 -25.743 -14.514  0.00  0.00    +0.038 C 
BRANCH   4   5
ATOM      5  N   UNL     1      38.654 -25.980 -13.066  0.00  0.00    +0.389 N 
ATOM      6  H1  UNL     1      38.558 -25.091 -12.576  0.00  0.00    -0.088 HD
ATOM      7  H2  UNL     1      39.529 -26.428 -12.789  0.00  0.00    -0.088 HD
ATOM      8  H3  UNL     1      37.871 -26.588 -12.827  0.00  0.00    -0.088 HD
ENDBRANCH   4   5
BRANCH   4  10
ATOM      9  OXT UNL     1      40.875 -24.765 -14.219  0.00  0.00    -0.253 OA
ATOM     10  C   UNL     1      40.099 -25.428 -14.898  0.00  0.00    +0.293 C 
BRANCH  10  11
ATOM     11  O   UNL     1      40.440 -25.945 -16.106  0.00  0.00    -0.482 OA
ATOM     12  H   UNL     1      40.969 -25.447 -16.697  0.00  0.00    +0.295 HD
ENDBRANCH  10  11
ENDBRANCH   4  10
ENDBRANCH   3   4
ENDBRANCH   2   3
BRANCH   2  13
ATOM     13  C   UNL     1      35.240 -24.419 -14.195  0.00  0.00    +0.056 C 
BRANCH  13  14
ATOM     14  C   UNL     1      34.018 -23.832 -14.896  0.00  0.00    +0.091 C 
BRANCH  14  15
ATOM     15  N   UNL     1      34.331 -23.540 -16.295  0.00  0.00    -0.323 N 
ATOM     16  N   UNL     1      33.333 -22.949 -18.403  0.00  0.00    -0.390 N 
ATOM     17  C   UNL     1      33.333 -23.268 -17.065  0.00  0.00    +0.075 C 
ATOM     18  C   UNL     1      31.968 -23.287 -16.410  0.00  0.00    +0.066 C 
ATOM     19  H   UNL     1      35.256 -23.552 -16.631  0.00  0.00    +0.148 HD
ATOM     20  H   UNL     1      34.181 -22.914 -18.901  0.00  0.00    +0.157 HD
ATOM     21  H   UNL     1      32.484 -22.754 -18.862  0.00  0.00    +0.157 HD
ENDBRANCH  14  15
ENDBRANCH  13  14
ENDBRANCH   2  13
TORSDOF 8
ENDMDL
MODEL 5
REMARK VINA RESULT:      -6.3      4.039      4.752
REMARK  Name = 93485622
REMARK  8 active torsions:
REMARK  status: ('A' for Active; 'I' for Inactive)
REMARK    1  A    between atoms: C_2  and  C_3
REMARK    2  A    between atoms: C_2  and  C_13
REMARK    3  A    between atoms: C_3  and  CA_4
REMARK    4  A    between atoms: CA_4  and  N_5
REMARK    5  A    between atoms: CA_4  and  C_10
REMARK    6  A    between atoms: C_10  and  O_11
REMARK    7  A    between atoms: C_13  and  C_14
REMARK    8  A    between atoms: C_14  and  N_15
REMARK                            x       y       z     vdW  Elec       q    Type
REMARK                         _______ _______ _______ _____ _____    ______ ____
ROOT
ATOM      1  F   UNL     1      35.842 -23.107 -14.539  0.00  0.00    -0.237 F 
ATOM      2  C   UNL     1      36.900 -23.550 -15.271  0.00  0.00    +0.161 C 
ENDROOT
BRANCH   2   3
ATOM      3  C   UNL     1      37.969 -24.096 -14.318  0.00  0.00    +0.024 C 
BRANCH   3   4
ATOM      4  CA  UNL     1      38.570 -25.456 -14.701  0.00  0.00    +0.038 C 
BRANCH   4   5
ATOM      5  N   UNL     1      38.379 -26.393 -13.588  0.00  0.00    +0.389 N 
ATOM      6  H1  UNL     1      39.227 -26.428 -13.023  0.00  0.00    -0.088 HD
ATOM      7  H2  UNL     1      38.178 -27.323 -13.958  0.00  0.00    -0.088 HD
ATOM      8  H3  UNL     1      37.598 -26.081 -13.011  0.00  0.00    -0.088 HD
ENDBRANCH   4   5
BRANCH   4  10
ATOM      9  OXT UNL     1      40.860 -24.802 -14.193  0.00  0.00    -0.253 OA
ATOM     10  C   UNL     1      40.066 -25.359 -14.943  0.00  0.00    +0.293 C 
BRANCH  10  11
ATOM     11  O   UNL     1      40.443 -25.942 -16.109  0.00  0.00    -0.482 OA
ATOM     12  H   UNL     1      39.849 -25.971 -16.833  0.00  0.00    +0.295 HD
ENDBRANCH  10  11
ENDBRANCH   4  10
ENDBRANCH   3   4
ENDBRANCH   2   3
BRANCH   2  13
ATOM     13  C   UNL     1      37.393 -22.423 -16.181  0.00  0.00    +0.056 C 
BRANCH  13  14
ATOM     14  C   UNL     1      36.401 -22.089 -17.291  0.00  0.00    +0.091 C 
BRANCH  14  15
ATOM     15  N   UNL     1      36.902 -20.974 -18.095  0.00  0.00    -0.323 N 
ATOM     16  N   UNL     1      36.665 -19.886 -20.228  0.00  0.00    -0.390 N 
ATOM     17  C   UNL     1      36.395 -20.837 -19.273  0.00  0.00    +0.075 C 
ATOM     18  C   UNL     1      35.343 -21.856 -19.661  0.00  0.00    +0.066 C 
ATOM     19  H   UNL     1      37.592 -20.360 -17.755  0.00  0.00    +0.148 HD
ATOM     20  H   UNL     1      37.336 -19.188 -20.052  0.00  0.00    +0.157 HD
ATOM     21  H   UNL     1      36.186 -19.902 -21.088  0.00  0.00    +0.157 HD
ENDBRANCH  14  15
ENDBRANCH  13  14
ENDBRANCH   2  13
TORSDOF 8
ENDMDL
MODEL 6
REMARK VINA RESULT:      -6.3     12.031     12.573
REMARK  Name = 93485622
REMARK  8 active torsions:
REMARK  status: ('A' for Active; 'I' for Inactive)
REMARK    1  A    between atoms: C_2  and  C_3
REMARK    2  A    between atoms: C_2  and  C_13
REMARK    3  A    between atoms: C_3  and  CA_4
REMARK    4  A    between atoms: CA_4  and  N_5
REMARK    5  A    between atoms: CA_4  and  C_10
REMARK    6  A    between atoms: C_10  and  O_11
REMARK    7  A    between atoms: C_13  and  C_14
REMARK    8  A    between atoms: C_14  and  N_15
REMARK                            x       y       z     vdW  Elec       q    Type
REMARK                         _______ _______ _______ _____ _____    ______ ____
ROOT
ATOM      1  F   UNL     1      35.107 -20.254 -24.603  0.00  0.00    -0.237 F 
ATOM      2  C   UNL     1      35.083 -18.983 -24.119  0.00  0.00    +0.161 C 
ENDROOT
BRANCH   2   3
ATOM      3  C   UNL     1      34.726 -19.025 -22.628  0.00  0.00    +0.024 C 
BRANCH   3   4
ATOM      4  CA  UNL     1      35.613 -18.176 -21.708  0.00  0.00    +0.038 C 
BRANCH   4   5
ATOM      5  N   UNL     1      36.101 -19.015 -20.608  0.00  0.00    +0.389 N 
ATOM      6  H1  UNL     1      35.552 -19.873 -20.564  0.00  0.00    -0.088 HD
ATOM      7  H2  UNL     1      36.010 -18.508 -19.727  0.00  0.00    -0.088 HD
ATOM      8  H3  UNL     1      37.082 -19.246 -20.766  0.00  0.00    -0.088 HD
ENDBRANCH   4   5
BRANCH   4  10
ATOM      9  OXT UNL     1      35.252 -16.318 -20.174  0.00  0.00    -0.253 OA
ATOM     10  C   UNL     1      34.835 -17.034 -21.078  0.00  0.00    +0.293 C 
BRANCH  10  11
ATOM     11  O   UNL     1      33.594 -16.894 -21.610  0.00  0.00    -0.482 OA
ATOM     12  H   UNL     1      33.363 -16.106 -22.061  0.00  0.00    +0.295 HD
ENDBRANCH  10  11
ENDBRANCH   4  10
ENDBRANCH   3   4
ENDBRANCH   2   3
BRANCH   2  13
ATOM     13  C   UNL     1      34.129 -18.137 -24.964  0.00  0.00    +0.056 C 
BRANCH  13  14
ATOM     14  C   UNL     1      34.701 -16.761 -25.296  0.00  0.00    +0.091 C 
BRANCH  14  15
ATOM     15  N   UNL     1      34.197 -15.765 -24.350  0.00  0.00    -0.323 N 
ATOM     16  N   UNL     1      32.776 -13.832 -24.173  0.00  0.00    -0.390 N 
ATOM     17  C   UNL     1      33.401 -14.869 -24.825  0.00  0.00    +0.075 C 
ATOM     18  C   UNL     1      33.096 -14.973 -26.305  0.00  0.00    +0.066 C 
ATOM     19  H   UNL     1      34.453 -15.779 -23.399  0.00  0.00    +0.148 HD
ATOM     20  H   UNL     1      32.922 -13.697 -23.209  0.00  0.00    +0.157 HD
ATOM     21  H   UNL     1      32.181 -13.225 -24.670  0.00  0.00    +0.157 HD
ENDBRANCH  14  15
ENDBRANCH  13  14
ENDBRANCH   2  13
TORSDOF 8
ENDMDL
MODEL 7
REMARK VINA RESULT:      -6.2     10.749     11.557
REMARK  Name = 93485622
REMARK  8 active torsions:
REMARK  status: ('A' for Active; 'I' for Inactive)
REMARK    1  A    between atoms: C_2  and  C_3
REMARK    2  A    between atoms: C_2  and  C_13
REMARK    3  A    between atoms: C_3  and  CA_4
REMARK    4  A    between atoms: CA_4  and  N_5
REMARK    5  A    between atoms: CA_4  and  C_10
REMARK    6  A    between atoms: C_10  and  O_11
REMARK    7  A    between atoms: C_13  and  C_14
REMARK    8  A    between atoms: C_14  and  N_15
REMARK                            x       y       z     vdW  Elec       q    Type
REMARK                         _______ _______ _______ _____ _____    ______ ____
ROOT
ATOM      1  F   UNL     1      35.333 -17.230 -20.751  0.00  0.00    -0.237 F 
ATOM      2  C   UNL     1      35.276 -17.551 -22.072  0.00  0.00    +0.161 C 
ENDROOT
BRANCH   2   3
ATOM      3  C   UNL     1      34.232 -16.660 -22.755  0.00  0.00    +0.024 C 
BRANCH   3   4
ATOM      4  CA  UNL     1      34.724 -15.881 -23.983  0.00  0.00    +0.038 C 
BRANCH   4   5
ATOM      5  N   UNL     1      34.048 -14.580 -24.026  0.00  0.00    +0.389 N 
ATOM      6  H1  UNL     1      34.688 -13.876 -24.395  0.00  0.00    -0.088 HD
ATOM      7  H2  UNL     1      33.759 -14.316 -23.084  0.00  0.00    -0.088 HD
ATOM      8  H3  UNL     1      33.227 -14.643 -24.629  0.00  0.00    -0.088 HD
ENDBRANCH   4   5
BRANCH   4  10
ATOM      9  OXT UNL     1      34.549 -17.797 -25.478  0.00  0.00    -0.253 OA
ATOM     10  C   UNL     1      34.379 -16.600 -25.276  0.00  0.00    +0.293 C 
BRANCH  10  11
ATOM     11  O   UNL     1      33.873 -15.762 -26.217  0.00  0.00    -0.482 OA
ATOM     12  H   UNL     1      34.323 -14.968 -26.429  0.00  0.00    +0.295 HD
ENDBRANCH  10  11
ENDBRANCH   4  10
ENDBRANCH   3   4
ENDBRANCH   2   3
BRANCH   2  13
ATOM     13  C   UNL     1      35.005 -19.050 -22.216  0.00  0.00    +0.056 C 
BRANCH  13  14
ATOM     14  C   UNL     1      35.126 -19.799 -20.892  0.00  0.00    +0.091 C 
BRANCH  14  15
ATOM     15  N   UNL     1      33.824 -20.337 -20.498  0.00  0.00    -0.323 N 
ATOM     16  N   UNL     1      32.772 -21.984 -19.092  0.00  0.00    -0.390 N 
ATOM     17  C   UNL     1      33.833 -21.303 -19.642  0.00  0.00    +0.075 C 
ATOM     18  C   UNL     1      35.200 -21.747 -19.162  0.00  0.00    +0.066 C 
ATOM     19  H   UNL     1      32.984 -19.981 -20.866  0.00  0.00    +0.148 HD
ATOM     20  H   UNL     1      31.852 -21.754 -19.353  0.00  0.00    +0.157 HD
ATOM     21  H   UNL     1      32.934 -22.700 -18.437  0.00  0.00    +0.157 HD
ENDBRANCH  14  15
ENDBRANCH  13  14
ENDBRANCH   2  13
TORSDOF 8
ENDMDL
MODEL 8
REMARK VINA RESULT:      -6.2      1.905      2.280
REMARK  Name = 93485622
REMARK  8 active torsions:
REMARK  status: ('A' for Active; 'I' for Inactive)
REMARK    1  A    between atoms: C_2  and  C_3
REMARK    2  A    between atoms: C_2  and  C_13
REMARK    3  A    between atoms: C_3  and  CA_4
REMARK    4  A    between atoms: CA_4  and  N_5
REMARK    5  A    between atoms: CA_4  and  C_10
REMARK    6  A    between atoms: C_10  and  O_11
REMARK    7  A    between atoms: C_13  and  C_14
REMARK    8  A    between atoms: C_14  and  N_15
REMARK                            x       y       z     vdW  Elec       q    Type
REMARK                         _______ _______ _______ _____ _____    ______ ____
ROOT
ATOM      1  F   UNL     1      36.904 -26.964 -12.749  0.00  0.00    -0.237 F 
ATOM      2  C   UNL     1      37.219 -25.667 -13.013  0.00  0.00    +0.161 C 
ENDROOT
BRANCH   2   3
ATOM      3  C   UNL     1      38.743 -25.507 -12.967  0.00  0.00    +0.024 C 
BRANCH   3   4
ATOM      4  CA  UNL     1      39.395 -24.975 -14.252  0.00  0.00    +0.038 C 
BRANCH   4   5
ATOM      5  N   UNL     1      38.364 -24.834 -15.287  0.00  0.00    +0.389 N 
ATOM      6  H1  UNL     1      37.863 -25.716 -15.391  0.00  0.00    -0.088 HD
ATOM      7  H2  UNL     1      38.805 -24.586 -16.173  0.00  0.00    -0.088 HD
ATOM      8  H3  UNL     1      37.709 -24.099 -15.017  0.00  0.00    -0.088 HD
ENDBRANCH   4   5
BRANCH   4  10
ATOM      9  OXT UNL     1      41.169 -26.636 -14.102  0.00  0.00    -0.253 OA
ATOM     10  C   UNL     1      40.433 -25.942 -14.794  0.00  0.00    +0.293 C 
BRANCH  10  11
ATOM     11  O   UNL     1      40.483 -25.945 -16.150  0.00  0.00    -0.482 OA
ATOM     12  H   UNL     1      41.130 -26.457 -16.594  0.00  0.00    +0.295 HD
ENDBRANCH  10  11
ENDBRANCH   4  10
ENDBRANCH   3   4
ENDBRANCH   2   3
BRANCH   2  13
ATOM     13  C   UNL     1      36.468 -24.756 -12.040  0.00  0.00    +0.056 C 
BRANCH  13  14
ATOM     14  C   UNL     1      35.787 -23.583 -12.741  0.00  0.00    +0.091 C 
BRANCH  14  15
ATOM     15  N   UNL     1      34.374 -23.883 -12.967  0.00  0.00    -0.323 N 
ATOM     16  N   UNL     1      32.699 -24.059 -14.686  0.00  0.00    -0.390 N 
ATOM     17  C   UNL     1      33.957 -23.820 -14.186  0.00  0.00    +0.075 C 
ATOM     18  C   UNL     1      34.998 -23.441 -15.220  0.00  0.00    +0.066 C 
ATOM     19  H   UNL     1      33.771 -24.122 -12.226  0.00  0.00    +0.148 HD
ATOM     20  H   UNL     1      31.967 -24.311 -14.078  0.00  0.00    +0.157 HD
ATOM     21  H   UNL     1      32.530 -23.979 -15.653  0.00  0.00    +0.157 HD
ENDBRANCH  14  15
ENDBRANCH  13  14
ENDBRANCH   2  13
TORSDOF 8
ENDMDL
MODEL 9
REMARK VINA RESULT:      -6.2     13.363     14.212
REMARK  Name = 93485622
REMARK  8 active torsions:
REMARK  status: ('A' for Active; 'I' for Inactive)
REMARK    1  A    between atoms: C_2  and  C_3
REMARK    2  A    between atoms: C_2  and  C_13
REMARK    3  A    between atoms: C_3  and  CA_4
REMARK    4  A    between atoms: CA_4  and  N_5
REMARK    5  A    between atoms: CA_4  and  C_10
REMARK    6  A    between atoms: C_10  and  O_11
REMARK    7  A    between atoms: C_13  and  C_14
REMARK    8  A    between atoms: C_14  and  N_15
REMARK                            x       y       z     vdW  Elec       q    Type
REMARK                         _______ _______ _______ _____ _____    ______ ____
ROOT
ATOM      1  F   UNL     1      34.892 -15.363 -20.472  0.00  0.00    -0.237 F 
ATOM      2  C   UNL     1      34.085 -15.812 -21.471  0.00  0.00    +0.161 C 
ENDROOT
BRANCH   2   3
ATOM      3  C   UNL     1      34.680 -15.390 -22.819  0.00  0.00    +0.024 C 
BRANCH   3   4
ATOM      4  CA  UNL     1      34.122 -16.118 -24.050  0.00  0.00    +0.038 C 
BRANCH   4   5
ATOM      5  N   UNL     1      35.221 -16.800 -24.742  0.00  0.00    +0.389 N 
ATOM      6  H1  UNL     1      34.840 -17.476 -25.404  0.00  0.00    -0.088 HD
ATOM      7  H2  UNL     1      35.804 -17.285 -24.059  0.00  0.00    -0.088 HD
ATOM      8  H3  UNL     1      35.785 -16.113 -25.243  0.00  0.00    -0.088 HD
ENDBRANCH   4   5
BRANCH   4  10
ATOM      9  OXT UNL     1      32.905 -14.125 -24.741  0.00  0.00    -0.253 OA
ATOM     10  C   UNL     1      33.510 -15.147 -25.044  0.00  0.00    +0.293 C 
BRANCH  10  11
ATOM     11  O   UNL     1      33.684 -15.542 -26.331  0.00  0.00    -0.482 OA
ATOM     12  H   UNL     1      34.274 -15.076 -26.889  0.00  0.00    +0.295 HD
ENDBRANCH  10  11
ENDBRANCH   4  10
ENDBRANCH   3   4
ENDBRANCH   2   3
BRANCH   2  13
ATOM     13  C   UNL     1      32.659 -15.308 -21.235  0.00  0.00    +0.056 C 
BRANCH  13  14
ATOM     14  C   UNL     1      32.615 -13.835 -20.839  0.00  0.00    +0.091 C 
BRANCH  14  15
ATOM     15  N   UNL     1      31.915 -13.059 -21.863  0.00  0.00    -0.323 N 
ATOM     16  N   UNL     1      30.718 -11.004 -22.230  0.00  0.00    -0.390 N 
ATOM     17  C   UNL     1      31.410 -11.933 -21.489  0.00  0.00    +0.075 C 
ATOM     18  C   UNL     1      31.616 -11.567 -20.033  0.00  0.00    +0.066 C 
ATOM     19  H   UNL     1      31.832 -13.381 -22.789  0.00  0.00    +0.148 HD
ATOM     20  H   UNL     1      30.544 -11.168 -23.185  0.00  0.00    +0.157 HD
ATOM     21  H   UNL     1      30.397 -10.176 -21.806  0.00  0.00    +0.157 HD
ENDBRANCH  14  15
ENDBRANCH  13  14
ENDBRANCH   2  13
TORSDOF 8
ENDMDL
