MODEL 1
REMARK VINA RESULT:      -8.0      0.000      0.000
REMARK  Name = 3042
REMARK  8 active torsions:
REMARK  status: ('A' for Active; 'I' for Inactive)
REMARK    1  A    between atoms: C_1  and  C_7
REMARK    2  A    between atoms: C_1  and  C_14
REMARK    3  A    between atoms: C_14  and  O_15
REMARK    4  A    between atoms: O_15  and  C_16
REMARK    5  A    between atoms: C_16  and  C_17
REMARK    6  A    between atoms: C_17  and  N_18
REMARK    7  A    between atoms: N_18  and  C_20
REMARK    8  A    between atoms: N_18  and  C_22
REMARK                            x       y       z     vdW  Elec       q    Type
REMARK                         _______ _______ _______ _____ _____    ______ ____
ROOT
ATOM      1  C   UNL     1      32.354  -8.209 -22.497  0.00  0.00    +0.090 C 
ATOM      2  C   UNL     1      32.386  -6.864 -21.747  0.00  0.00    +0.011 C 
ATOM      3  C   UNL     1      31.141  -8.289 -23.442  0.00  0.00    +0.011 C 
ATOM      4  C   UNL     1      32.256  -5.659 -22.680  0.00  0.00    +0.001 C 
ATOM      5  C   UNL     1      31.020  -7.073 -24.361  0.00  0.00    +0.001 C 
ATOM      6  C   UNL     1      31.025  -5.768 -23.573  0.00  0.00    +0.000 C 
ENDROOT
BRANCH   1   7
ATOM      7  C   UNL     1      32.310  -9.361 -21.495  0.00  0.00    +0.010 C 
ATOM      8  C   UNL     1      32.190  -8.829 -20.061  0.00  0.00    +0.001 C 
ATOM      9  C   UNL     1      31.154 -10.318 -21.821  0.00  0.00    +0.001 C 
ATOM     10  C   UNL     1      32.090  -9.964 -19.044  0.00  0.00    +0.000 C 
ATOM     11  C   UNL     1      31.056 -11.450 -20.801  0.00  0.00    +0.000 C 
ATOM     12  C   UNL     1      30.945 -10.918 -19.376  0.00  0.00    +0.000 C 
ENDBRANCH   1   7
BRANCH   1  14
ATOM     13  O   UNL     1      34.657  -7.757 -23.075  0.00  0.00    -0.250 OA
ATOM     14  C   UNL     1      33.628  -8.385 -23.286  0.00  0.00    +0.316 C 
BRANCH  14  15
ATOM     15  O   UNL     1      33.442  -9.335 -24.246  0.00  0.00    -0.451 OA
BRANCH  15  16
ATOM     16  C   UNL     1      34.377 -10.418 -24.228  0.00  0.00    +0.186 C 
BRANCH  16  17
ATOM     17  C   UNL     1      33.968 -11.435 -25.282  0.00  0.00    -0.029 C 
BRANCH  17  18
ATOM     18  N   UNL     1      33.934 -12.776 -24.718  0.00  0.00    +0.389 N 
ATOM     19  H   UNL     1      34.893 -13.121 -24.671  0.00  0.00    -0.080 HD
BRANCH  18  20
ATOM     20  C   UNL     1      33.156 -13.677 -25.572  0.00  0.00    -0.077 C 
ATOM     21  C   UNL     1      33.287 -13.294 -27.036  0.00  0.00    -0.025 C 
ENDBRANCH  18  20
BRANCH  18  22
ATOM     22  C   UNL     1      33.377 -12.756 -23.364  0.00  0.00    -0.077 C 
ATOM     23  C   UNL     1      32.902 -14.136 -22.945  0.00  0.00    -0.025 C 
ENDBRANCH  18  22
ENDBRANCH  17  18
ENDBRANCH  16  17
ENDBRANCH  15  16
ENDBRANCH  14  15
ENDBRANCH   1  14
TORSDOF 8
ENDMDL
MODEL 2
REMARK VINA RESULT:      -7.5     12.052     15.498
REMARK  Name = 3042
REMARK  8 active torsions:
REMARK  status: ('A' for Active; 'I' for Inactive)
REMARK    1  A    between atoms: C_1  and  C_7
REMARK    2  A    between atoms: C_1  and  C_14
REMARK    3  A    between atoms: C_14  and  O_15
REMARK    4  A    between atoms: O_15  and  C_16
REMARK    5  A    between atoms: C_16  and  C_17
REMARK    6  A    between atoms: C_17  and  N_18
REMARK    7  A    between atoms: N_18  and  C_20
REMARK    8  A    between atoms: N_18  and  C_22
REMARK                            x       y       z     vdW  Elec       q    Type
REMARK                         _______ _______ _______ _____ _____    ______ ____
ROOT
ATOM      1  C   UNL     1      35.502 -23.717 -14.941  0.00  0.00    +0.090 C 
ATOM      2  C   UNL     1      35.553 -25.172 -15.440  0.00  0.00    +0.011 C 
ATOM      3  C   UNL     1      35.787 -23.636 -13.430  0.00  0.00    +0.011 C 
ATOM      4  C   UNL     1      36.828 -25.903 -15.018  0.00  0.00    +0.001 C 
ATOM      5  C   UNL     1      37.061 -24.378 -13.024  0.00  0.00    +0.001 C 
ATOM      6  C   UNL     1      37.052 -25.822 -13.512  0.00  0.00    +0.000 C 
ENDROOT
BRANCH   1   7
ATOM      7  C   UNL     1      34.133 -23.110 -15.245  0.00  0.00    +0.010 C 
ATOM      8  C   UNL     1      33.590 -23.639 -16.579  0.00  0.00    +0.001 C 
ATOM      9  C   UNL     1      33.149 -23.397 -14.102  0.00  0.00    +0.001 C 
ATOM     10  C   UNL     1      32.198 -23.088 -16.879  0.00  0.00    +0.000 C 
ATOM     11  C   UNL     1      31.757 -22.847 -14.406  0.00  0.00    +0.000 C 
ATOM     12  C   UNL     1      31.224 -23.367 -15.738  0.00  0.00    +0.000 C 
ENDBRANCH   1   7
BRANCH   1  14
ATOM     13  O   UNL     1      37.526 -22.420 -15.198  0.00  0.00    -0.250 OA
ATOM     14  C   UNL     1      36.509 -22.883 -15.696  0.00  0.00    +0.316 C 
BRANCH  14  15
ATOM     15  O   UNL     1      36.102 -22.738 -16.990  0.00  0.00    -0.451 OA
BRANCH  15  16
ATOM     16  C   UNL     1      36.677 -21.633 -17.694  0.00  0.00    +0.186 C 
BRANCH  16  17
ATOM     17  C   UNL     1      36.303 -21.741 -19.163  0.00  0.00    -0.029 C 
BRANCH  17  18
ATOM     18  N   UNL     1      35.282 -20.763 -19.509  0.00  0.00    +0.389 N 
ATOM     19  H   UNL     1      35.261 -20.057 -18.772  0.00  0.00    -0.080 HD
BRANCH  18  20
ATOM     20  C   UNL     1      33.963 -21.396 -19.586  0.00  0.00    -0.077 C 
ATOM     21  C   UNL     1      32.944 -20.466 -20.221  0.00  0.00    -0.025 C 
ENDBRANCH  18  20
BRANCH  18  22
ATOM     22  C   UNL     1      35.602 -20.106 -20.777  0.00  0.00    -0.077 C 
ATOM     23  C   UNL     1      36.916 -19.349 -20.688  0.00  0.00    -0.025 C 
ENDBRANCH  18  22
ENDBRANCH  17  18
ENDBRANCH  16  17
ENDBRANCH  15  16
ENDBRANCH  14  15
ENDBRANCH   1  14
TORSDOF 8
ENDMDL
MODEL 3
REMARK VINA RESULT:      -7.3      5.906      9.772
REMARK  Name = 3042
REMARK  8 active torsions:
REMARK  status: ('A' for Active; 'I' for Inactive)
REMARK    1  A    between atoms: C_1  and  C_7
REMARK    2  A    between atoms: C_1  and  C_14
REMARK    3  A    between atoms: C_14  and  O_15
REMARK    4  A    between atoms: O_15  and  C_16
REMARK    5  A    between atoms: C_16  and  C_17
REMARK    6  A    between atoms: C_17  and  N_18
REMARK    7  A    between atoms: N_18  and  C_20
REMARK    8  A    between atoms: N_18  and  C_22
REMARK                            x       y       z     vdW  Elec       q    Type
REMARK                         _______ _______ _______ _____ _____    ______ ____
ROOT
ATOM      1  C   UNL     1      34.655 -18.941 -21.384  0.00  0.00    +0.090 C 
ATOM      2  C   UNL     1      33.884 -19.528 -22.580  0.00  0.00    +0.011 C 
ATOM      3  C   UNL     1      36.131 -18.686 -21.744  0.00  0.00    +0.011 C 
ATOM      4  C   UNL     1      34.069 -18.718 -23.864  0.00  0.00    +0.001 C 
ATOM      5  C   UNL     1      36.298 -17.883 -23.034  0.00  0.00    +0.001 C 
ATOM      6  C   UNL     1      35.544 -18.518 -24.197  0.00  0.00    +0.000 C 
ENDROOT
BRANCH   1   7
ATOM      7  C   UNL     1      34.568 -19.893 -20.192  0.00  0.00    +0.010 C 
ATOM      8  C   UNL     1      33.277 -20.719 -20.251  0.00  0.00    +0.001 C 
ATOM      9  C   UNL     1      35.801 -20.808 -20.138  0.00  0.00    +0.001 C 
ATOM     10  C   UNL     1      33.193 -21.717 -19.097  0.00  0.00    +0.000 C 
ATOM     11  C   UNL     1      35.712 -21.805 -18.986  0.00  0.00    +0.000 C 
ATOM     12  C   UNL     1      34.423 -22.619 -19.043  0.00  0.00    +0.000 C 
ENDBRANCH   1   7
BRANCH   1  14
ATOM     13  O   UNL     1      32.799 -17.458 -20.939  0.00  0.00    -0.250 OA
ATOM     14  C   UNL     1      34.007 -17.652 -20.942  0.00  0.00    +0.316 C 
BRANCH  14  15
ATOM     15  O   UNL     1      34.970 -16.766 -20.557  0.00  0.00    -0.451 OA
BRANCH  15  16
ATOM     16  C   UNL     1      34.566 -15.394 -20.525  0.00  0.00    +0.186 C 
BRANCH  16  17
ATOM     17  C   UNL     1      34.457 -14.882 -21.952  0.00  0.00    -0.029 C 
BRANCH  17  18
ATOM     18  N   UNL     1      33.068 -14.628 -22.304  0.00  0.00    +0.389 N 
ATOM     19  H   UNL     1      32.561 -15.511 -22.245  0.00  0.00    -0.080 HD
BRANCH  18  20
ATOM     20  C   UNL     1      32.965 -14.121 -23.675  0.00  0.00    -0.077 C 
ATOM     21  C   UNL     1      33.593 -15.087 -24.664  0.00  0.00    -0.025 C 
ENDBRANCH  18  20
BRANCH  18  22
ATOM     22  C   UNL     1      32.461 -13.679 -21.367  0.00  0.00    -0.077 C 
ATOM     23  C   UNL     1      31.989 -12.426 -22.084  0.00  0.00    -0.025 C 
ENDBRANCH  18  22
ENDBRANCH  17  18
ENDBRANCH  16  17
ENDBRANCH  15  16
ENDBRANCH  14  15
ENDBRANCH   1  14
TORSDOF 8
ENDMDL
MODEL 4
REMARK VINA RESULT:      -7.3      4.283      7.865
REMARK  Name = 3042
REMARK  8 active torsions:
REMARK  status: ('A' for Active; 'I' for Inactive)
REMARK    1  A    between atoms: C_1  and  C_7
REMARK    2  A    between atoms: C_1  and  C_14
REMARK    3  A    between atoms: C_14  and  O_15
REMARK    4  A    between atoms: O_15  and  C_16
REMARK    5  A    between atoms: C_16  and  C_17
REMARK    6  A    between atoms: C_17  and  N_18
REMARK    7  A    between atoms: N_18  and  C_20
REMARK    8  A    between atoms: N_18  and  C_22
REMARK                            x       y       z     vdW  Elec       q    Type
REMARK                         _______ _______ _______ _____ _____    ______ ____
ROOT
ATOM      1  C   UNL     1      34.083 -16.821 -21.676  0.00  0.00    +0.090 C 
ATOM      2  C   UNL     1      34.911 -16.123 -20.581  0.00  0.00    +0.011 C 
ATOM      3  C   UNL     1      32.593 -16.451 -21.567  0.00  0.00    +0.011 C 
ATOM      4  C   UNL     1      34.658 -14.616 -20.512  0.00  0.00    +0.001 C 
ATOM      5  C   UNL     1      32.358 -14.942 -21.491  0.00  0.00    +0.001 C 
ATOM      6  C   UNL     1      33.173 -14.299 -20.374  0.00  0.00    +0.000 C 
ENDROOT
BRANCH   1   7
ATOM      7  C   UNL     1      34.252 -18.335 -21.568  0.00  0.00    +0.010 C 
ATOM      8  C   UNL     1      35.592 -18.686 -20.908  0.00  0.00    +0.001 C 
ATOM      9  C   UNL     1      33.081 -18.957 -20.794  0.00  0.00    +0.001 C 
ATOM     10  C   UNL     1      35.760 -20.195 -20.740  0.00  0.00    +0.000 C 
ATOM     11  C   UNL     1      33.254 -20.465 -20.626  0.00  0.00    +0.000 C 
ATOM     12  C   UNL     1      34.591 -20.810 -19.977  0.00  0.00    +0.000 C 
ENDBRANCH   1   7
BRANCH   1  14
ATOM     13  O   UNL     1      35.778 -16.165 -23.270  0.00  0.00    -0.250 OA
ATOM     14  C   UNL     1      34.607 -16.434 -23.037  0.00  0.00    +0.316 C 
BRANCH  14  15
ATOM     15  O   UNL     1      33.583 -16.434 -23.937  0.00  0.00    -0.451 OA
BRANCH  15  16
ATOM     16  C   UNL     1      33.822 -15.700 -25.142  0.00  0.00    +0.186 C 
BRANCH  16  17
ATOM     17  C   UNL     1      32.994 -14.426 -25.112  0.00  0.00    -0.029 C 
BRANCH  17  18
ATOM     18  N   UNL     1      33.853 -13.255 -25.025  0.00  0.00    +0.389 N 
ATOM     19  H   UNL     1      34.822 -13.576 -25.008  0.00  0.00    -0.080 HD
BRANCH  18  20
ATOM     20  C   UNL     1      33.587 -12.508 -23.793  0.00  0.00    -0.077 C 
ATOM     21  C   UNL     1      33.693 -11.011 -24.025  0.00  0.00    -0.025 C 
ENDBRANCH  18  20
BRANCH  18  22
ATOM     22  C   UNL     1      33.668 -12.388 -26.191  0.00  0.00    -0.077 C 
ATOM     23  C   UNL     1      32.981 -13.131 -27.323  0.00  0.00    -0.025 C 
ENDBRANCH  18  22
ENDBRANCH  17  18
ENDBRANCH  16  17
ENDBRANCH  15  16
ENDBRANCH  14  15
ENDBRANCH   1  14
TORSDOF 8
ENDMDL
MODEL 5
REMARK VINA RESULT:      -7.2      5.340      8.945
REMARK  Name = 3042
REMARK  8 active torsions:
REMARK  status: ('A' for Active; 'I' for Inactive)
REMARK    1  A    between atoms: C_1  and  C_7
REMARK    2  A    between atoms: C_1  and  C_14
REMARK    3  A    between atoms: C_14  and  O_15
REMARK    4  A    between atoms: O_15  and  C_16
REMARK    5  A    between atoms: C_16  and  C_17
REMARK    6  A    between atoms: C_17  and  N_18
REMARK    7  A    between atoms: N_18  and  C_20
REMARK    8  A    between atoms: N_18  and  C_22
REMARK                            x       y       z     vdW  Elec       q    Type
REMARK                         _______ _______ _______ _____ _____    ______ ____
ROOT
ATOM      1  C   UNL     1      34.662 -18.365 -21.559  0.00  0.00    +0.090 C 
ATOM      2  C   UNL     1      33.674 -19.361 -20.927  0.00  0.00    +0.011 C 
ATOM      3  C   UNL     1      36.012 -18.374 -20.818  0.00  0.00    +0.011 C 
ATOM      4  C   UNL     1      34.267 -20.760 -20.753  0.00  0.00    +0.001 C 
ATOM      5  C   UNL     1      36.587 -19.780 -20.645  0.00  0.00    +0.001 C 
ATOM      6  C   UNL     1      35.585 -20.723 -19.987  0.00  0.00    +0.000 C 
ENDROOT
BRANCH   1   7
ATOM      7  C   UNL     1      34.067 -16.958 -21.538  0.00  0.00    +0.010 C 
ATOM      8  C   UNL     1      32.631 -16.985 -21.000  0.00  0.00    +0.001 C 
ATOM      9  C   UNL     1      34.944 -16.011 -20.706  0.00  0.00    +0.001 C 
ATOM     10  C   UNL     1      32.032 -15.582 -20.919  0.00  0.00    +0.000 C 
ATOM     11  C   UNL     1      34.342 -14.611 -20.625  0.00  0.00    +0.000 C 
ATOM     12  C   UNL     1      32.910 -14.642 -20.098  0.00  0.00    +0.000 C 
ENDBRANCH   1   7
BRANCH   1  14
ATOM     13  O   UNL     1      34.817 -19.846 -23.463  0.00  0.00    -0.250 OA
ATOM     14  C   UNL     1      34.876 -18.710 -23.013  0.00  0.00    +0.316 C 
BRANCH  14  15
ATOM     15  O   UNL     1      35.138 -17.572 -23.718  0.00  0.00    -0.451 OA
BRANCH  15  16
ATOM     16  C   UNL     1      34.493 -17.475 -24.991  0.00  0.00    +0.186 C 
BRANCH  16  17
ATOM     17  C   UNL     1      34.608 -16.044 -25.490  0.00  0.00    -0.029 C 
BRANCH  17  18
ATOM     18  N   UNL     1      33.445 -15.265 -25.093  0.00  0.00    +0.389 N 
ATOM     19  H   UNL     1      32.842 -15.864 -24.529  0.00  0.00    -0.080 HD
BRANCH  18  20
ATOM     20  C   UNL     1      32.694 -14.820 -26.269  0.00  0.00    -0.077 C 
ATOM     21  C   UNL     1      33.432 -13.717 -27.007  0.00  0.00    -0.025 C 
ENDBRANCH  18  20
BRANCH  18  22
ATOM     22  C   UNL     1      33.846 -14.111 -24.283  0.00  0.00    -0.077 C 
ATOM     23  C   UNL     1      32.645 -13.470 -23.609  0.00  0.00    -0.025 C 
ENDBRANCH  18  22
ENDBRANCH  17  18
ENDBRANCH  16  17
ENDBRANCH  15  16
ENDBRANCH  14  15
ENDBRANCH   1  14
TORSDOF 8
ENDMDL
MODEL 6
REMARK VINA RESULT:      -7.2     14.590     17.295
REMARK  Name = 3042
REMARK  8 active torsions:
REMARK  status: ('A' for Active; 'I' for Inactive)
REMARK    1  A    between atoms: C_1  and  C_7
REMARK    2  A    between atoms: C_1  and  C_14
REMARK    3  A    between atoms: C_14  and  O_15
REMARK    4  A    between atoms: O_15  and  C_16
REMARK    5  A    between atoms: C_16  and  C_17
REMARK    6  A    between atoms: C_17  and  N_18
REMARK    7  A    between atoms: N_18  and  C_20
REMARK    8  A    between atoms: N_18  and  C_22
REMARK                            x       y       z     vdW  Elec       q    Type
REMARK                         _______ _______ _______ _____ _____    ______ ____
ROOT
ATOM      1  C   UNL     1      36.278 -23.933 -14.042  0.00  0.00    +0.090 C 
ATOM      2  C   UNL     1      37.401 -23.440 -13.112  0.00  0.00    +0.011 C 
ATOM      3  C   UNL     1      36.634 -25.291 -14.675  0.00  0.00    +0.011 C 
ATOM      4  C   UNL     1      37.837 -24.495 -12.093  0.00  0.00    +0.001 C 
ATOM      5  C   UNL     1      37.075 -26.331 -13.643  0.00  0.00    +0.001 C 
ATOM      6  C   UNL     1      38.209 -25.811 -12.767  0.00  0.00    +0.000 C 
ENDROOT
BRANCH   1   7
ATOM      7  C   UNL     1      36.020 -22.901 -15.138  0.00  0.00    +0.010 C 
ATOM      8  C   UNL     1      37.343 -22.366 -15.701  0.00  0.00    +0.001 C 
ATOM      9  C   UNL     1      35.154 -23.501 -16.255  0.00  0.00    +0.001 C 
ATOM     10  C   UNL     1      37.112 -21.371 -16.836  0.00  0.00    +0.000 C 
ATOM     11  C   UNL     1      34.927 -22.505 -17.389  0.00  0.00    +0.000 C 
ATOM     12  C   UNL     1      36.245 -21.968 -17.940  0.00  0.00    +0.000 C 
ENDBRANCH   1   7
BRANCH   1  14
ATOM     13  O   UNL     1      34.848 -23.683 -12.109  0.00  0.00    -0.250 OA
ATOM     14  C   UNL     1      34.988 -24.054 -13.266  0.00  0.00    +0.316 C 
BRANCH  14  15
ATOM     15  O   UNL     1      34.036 -24.632 -14.053  0.00  0.00    -0.451 OA
BRANCH  15  16
ATOM     16  C   UNL     1      32.696 -24.547 -13.557  0.00  0.00    +0.186 C 
BRANCH  16  17
ATOM     17  C   UNL     1      32.050 -23.285 -14.107  0.00  0.00    -0.029 C 
BRANCH  17  18
ATOM     18  N   UNL     1      30.633 -23.499 -14.358  0.00  0.00    +0.389 N 
ATOM     19  H   UNL     1      30.111 -23.098 -13.578  0.00  0.00    -0.080 HD
BRANCH  18  20
ATOM     20  C   UNL     1      30.331 -24.931 -14.434  0.00  0.00    -0.077 C 
ATOM     21  C   UNL     1      28.890 -25.166 -14.854  0.00  0.00    -0.025 C 
ENDBRANCH  18  20
BRANCH  18  22
ATOM     22  C   UNL     1      30.217 -22.829 -15.592  0.00  0.00    -0.077 C 
ATOM     23  C   UNL     1      31.292 -22.931 -16.660  0.00  0.00    -0.025 C 
ENDBRANCH  18  22
ENDBRANCH  17  18
ENDBRANCH  16  17
ENDBRANCH  15  16
ENDBRANCH  14  15
ENDBRANCH   1  14
TORSDOF 8
ENDMDL
MODEL 7
REMARK VINA RESULT:      -7.2      5.408      9.074
REMARK  Name = 3042
REMARK  8 active torsions:
REMARK  status: ('A' for Active; 'I' for Inactive)
REMARK    1  A    between atoms: C_1  and  C_7
REMARK    2  A    between atoms: C_1  and  C_14
REMARK    3  A    between atoms: C_14  and  O_15
REMARK    4  A    between atoms: O_15  and  C_16
REMARK    5  A    between atoms: C_16  and  C_17
REMARK    6  A    between atoms: C_17  and  N_18
REMARK    7  A    between atoms: N_18  and  C_20
REMARK    8  A    between atoms: N_18  and  C_22
REMARK                            x       y       z     vdW  Elec       q    Type
REMARK                         _______ _______ _______ _____ _____    ______ ____
ROOT
ATOM      1  C   UNL     1      34.369 -18.286 -21.408  0.00  0.00    +0.090 C 
ATOM      2  C   UNL     1      35.306 -17.274 -20.723  0.00  0.00    +0.011 C 
ATOM      3  C   UNL     1      32.904 -18.054 -20.997  0.00  0.00    +0.011 C 
ATOM      4  C   UNL     1      34.845 -15.825 -20.894  0.00  0.00    +0.001 C 
ATOM      5  C   UNL     1      32.461 -16.600 -21.167  0.00  0.00    +0.001 C 
ATOM      6  C   UNL     1      33.399 -15.637 -20.447  0.00  0.00    +0.000 C 
ENDROOT
BRANCH   1   7
ATOM      7  C   UNL     1      34.791 -19.709 -21.047  0.00  0.00    +0.010 C 
ATOM      8  C   UNL     1      36.184 -19.716 -20.405  0.00  0.00    +0.001 C 
ATOM      9  C   UNL     1      33.758 -20.361 -20.116  0.00  0.00    +0.001 C 
ATOM     10  C   UNL     1      36.605 -21.123 -19.986  0.00  0.00    +0.000 C 
ATOM     11  C   UNL     1      34.183 -21.766 -19.698  0.00  0.00    +0.000 C 
ATOM     12  C   UNL     1      35.573 -21.770 -19.068  0.00  0.00    +0.000 C 
ENDBRANCH   1   7
BRANCH   1  14
ATOM     13  O   UNL     1      34.104 -19.019 -23.695  0.00  0.00    -0.250 OA
ATOM     14  C   UNL     1      34.504 -18.174 -22.907  0.00  0.00    +0.316 C 
BRANCH  14  15
ATOM     15  O   UNL     1      35.130 -17.004 -23.222  0.00  0.00    -0.451 OA
BRANCH  15  16
ATOM     16  C   UNL     1      34.774 -16.438 -24.486  0.00  0.00    +0.186 C 
BRANCH  16  17
ATOM     17  C   UNL     1      33.633 -15.455 -24.278  0.00  0.00    -0.029 C 
BRANCH  17  18
ATOM     18  N   UNL     1      33.811 -14.275 -25.111  0.00  0.00    +0.389 N 
ATOM     19  H   UNL     1      34.802 -14.196 -25.337  0.00  0.00    -0.080 HD
BRANCH  18  20
ATOM     20  C   UNL     1      33.398 -13.067 -24.391  0.00  0.00    -0.077 C 
ATOM     21  C   UNL     1      32.556 -13.414 -23.175  0.00  0.00    -0.025 C 
ENDBRANCH  18  20
BRANCH  18  22
ATOM     22  C   UNL     1      33.055 -14.402 -26.359  0.00  0.00    -0.077 C 
ATOM     23  C   UNL     1      33.290 -13.208 -27.267  0.00  0.00    -0.025 C 
ENDBRANCH  18  22
ENDBRANCH  17  18
ENDBRANCH  16  17
ENDBRANCH  15  16
ENDBRANCH  14  15
ENDBRANCH   1  14
TORSDOF 8
ENDMDL
MODEL 8
REMARK VINA RESULT:      -7.0      1.353      4.263
REMARK  Name = 3042
REMARK  8 active torsions:
REMARK  status: ('A' for Active; 'I' for Inactive)
REMARK    1  A    between atoms: C_1  and  C_7
REMARK    2  A    between atoms: C_1  and  C_14
REMARK    3  A    between atoms: C_14  and  O_15
REMARK    4  A    between atoms: O_15  and  C_16
REMARK    5  A    between atoms: C_16  and  C_17
REMARK    6  A    between atoms: C_17  and  N_18
REMARK    7  A    between atoms: N_18  and  C_20
REMARK    8  A    between atoms: N_18  and  C_22
REMARK                            x       y       z     vdW  Elec       q    Type
REMARK                         _______ _______ _______ _____ _____    ______ ____
ROOT
ATOM      1  C   UNL     1      32.540  -8.005 -23.116  0.00  0.00    +0.090 C 
ATOM      2  C   UNL     1      31.310  -8.885 -22.829  0.00  0.00    +0.011 C 
ATOM      3  C   UNL     1      32.985  -7.241 -21.855  0.00  0.00    +0.011 C 
ATOM      4  C   UNL     1      31.492  -9.781 -21.603  0.00  0.00    +0.001 C 
ATOM      5  C   UNL     1      33.154  -8.150 -20.637  0.00  0.00    +0.001 C 
ATOM      6  C   UNL     1      31.902  -8.978 -20.373  0.00  0.00    +0.000 C 
ENDROOT
BRANCH   1   7
ATOM      7  C   UNL     1      32.222  -7.017 -24.237  0.00  0.00    +0.010 C 
ATOM      8  C   UNL     1      31.211  -5.965 -23.763  0.00  0.00    +0.001 C 
ATOM      9  C   UNL     1      33.505  -6.348 -24.751  0.00  0.00    +0.001 C 
ATOM     10  C   UNL     1      30.917  -4.934 -24.850  0.00  0.00    +0.000 C 
ATOM     11  C   UNL     1      33.208  -5.316 -25.836  0.00  0.00    +0.000 C 
ATOM     12  C   UNL     1      32.195  -4.277 -25.363  0.00  0.00    +0.000 C 
ENDBRANCH   1   7
BRANCH   1  14
ATOM     13  O   UNL     1      34.858  -8.613 -23.432  0.00  0.00    -0.250 OA
ATOM     14  C   UNL     1      33.676  -8.862 -23.621  0.00  0.00    +0.316 C 
BRANCH  14  15
ATOM     15  O   UNL     1      33.172  -9.930 -24.303  0.00  0.00    -0.451 OA
BRANCH  15  16
ATOM     16  C   UNL     1      34.076 -11.023 -24.488  0.00  0.00    +0.186 C 
BRANCH  16  17
ATOM     17  C   UNL     1      33.650 -12.168 -23.583  0.00  0.00    -0.029 C 
BRANCH  17  18
ATOM     18  N   UNL     1      33.029 -13.233 -24.356  0.00  0.00    +0.389 N 
ATOM     19  H   UNL     1      32.017 -13.116 -24.296  0.00  0.00    -0.080 HD
BRANCH  18  20
ATOM     20  C   UNL     1      33.380 -14.545 -23.806  0.00  0.00    -0.077 C 
ATOM     21  C   UNL     1      34.376 -14.413 -22.667  0.00  0.00    -0.025 C 
ENDBRANCH  18  20
BRANCH  18  22
ATOM     22  C   UNL     1      33.427 -13.152 -25.763  0.00  0.00    -0.077 C 
ATOM     23  C   UNL     1      33.052 -14.418 -26.514  0.00  0.00    -0.025 C 
ENDBRANCH  18  22
ENDBRANCH  17  18
ENDBRANCH  16  17
ENDBRANCH  15  16
ENDBRANCH  14  15
ENDBRANCH   1  14
TORSDOF 8
ENDMDL
MODEL 9
REMARK VINA RESULT:      -7.0     12.336     15.666
REMARK  Name = 3042
REMARK  8 active torsions:
REMARK  status: ('A' for Active; 'I' for Inactive)
REMARK    1  A    between atoms: C_1  and  C_7
REMARK    2  A    between atoms: C_1  and  C_14
REMARK    3  A    between atoms: C_14  and  O_15
REMARK    4  A    between atoms: O_15  and  C_16
REMARK    5  A    between atoms: C_16  and  C_17
REMARK    6  A    between atoms: C_17  and  N_18
REMARK    7  A    between atoms: N_18  and  C_20
REMARK    8  A    between atoms: N_18  and  C_22
REMARK                            x       y       z     vdW  Elec       q    Type
REMARK                         _______ _______ _______ _____ _____    ______ ____
ROOT
ATOM      1  C   UNL     1      34.829 -24.014 -14.776  0.00  0.00    +0.090 C 
ATOM      2  C   UNL     1      35.437 -25.395 -15.084  0.00  0.00    +0.011 C 
ATOM      3  C   UNL     1      35.281 -23.502 -13.396  0.00  0.00    +0.011 C 
ATOM      4  C   UNL     1      36.952 -25.437 -14.882  0.00  0.00    +0.001 C 
ATOM      5  C   UNL     1      36.798 -23.559 -13.208  0.00  0.00    +0.001 C 
ATOM      6  C   UNL     1      37.350 -24.951 -13.492  0.00  0.00    +0.000 C 
ENDROOT
BRANCH   1   7
ATOM      7  C   UNL     1      33.305 -24.095 -14.826  0.00  0.00    +0.010 C 
ATOM      8  C   UNL     1      32.778 -25.074 -13.769  0.00  0.00    +0.001 C 
ATOM      9  C   UNL     1      32.682 -22.703 -14.641  0.00  0.00    +0.001 C 
ATOM     10  C   UNL     1      31.252 -25.131 -13.764  0.00  0.00    +0.000 C 
ATOM     11  C   UNL     1      31.157 -22.765 -14.634  0.00  0.00    +0.000 C 
ATOM     12  C   UNL     1      30.637 -23.746 -13.587  0.00  0.00    +0.000 C 
ENDBRANCH   1   7
BRANCH   1  14
ATOM     13  O   UNL     1      35.813 -21.974 -15.620  0.00  0.00    -0.250 OA
ATOM     14  C   UNL     1      35.234 -23.028 -15.845  0.00  0.00    +0.316 C 
BRANCH  14  15
ATOM     15  O   UNL     1      34.855 -23.499 -17.067  0.00  0.00    -0.451 OA
BRANCH  15  16
ATOM     16  C   UNL     1      34.244 -22.539 -17.934  0.00  0.00    +0.186 C 
BRANCH  16  17
ATOM     17  C   UNL     1      35.284 -22.044 -18.926  0.00  0.00    -0.029 C 
BRANCH  17  18
ATOM     18  N   UNL     1      34.645 -21.404 -20.066  0.00  0.00    +0.389 N 
ATOM     19  H   UNL     1      34.656 -22.065 -20.844  0.00  0.00    -0.080 HD
BRANCH  18  20
ATOM     20  C   UNL     1      35.381 -20.202 -20.464  0.00  0.00    -0.077 C 
ATOM     21  C   UNL     1      36.856 -20.324 -20.123  0.00  0.00    -0.025 C 
ENDBRANCH  18  20
BRANCH  18  22
ATOM     22  C   UNL     1      33.254 -21.066 -19.759  0.00  0.00    -0.077 C 
ATOM     23  C   UNL     1      32.786 -19.872 -20.572  0.00  0.00    -0.025 C 
ENDBRANCH  18  22
ENDBRANCH  17  18
ENDBRANCH  16  17
ENDBRANCH  15  16
ENDBRANCH  14  15
ENDBRANCH   1  14
TORSDOF 8
ENDMDL
