MODEL 1
REMARK VINA RESULT:     -10.6      0.000      0.000
REMARK  Name = 134111
REMARK  10 active torsions:
REMARK  status: ('A' for Active; 'I' for Inactive)
REMARK    1  A    between atoms: C_1  and  C_6
REMARK    2  A    between atoms: C_1  and  C_17
REMARK    3  A    between atoms: N_4  and  C_11
REMARK    4  A    between atoms: C_11  and  O_12
REMARK    5  A    between atoms: O_12  and  C_13
REMARK    6  A    between atoms: C_13  and  C_14
REMARK    7  A    between atoms: C_14  and  O_15
REMARK    8  A    between atoms: C_20  and  O_23
REMARK    9  A    between atoms: O_23  and  C_24
REMARK   10  A    between atoms: C_24  and  C_25
REMARK                            x       y       z     vdW  Elec       q    Type
REMARK                         _______ _______ _______ _____ _____    ______ ____
ROOT
ATOM      1  C   UNL     1      36.048 -18.593 -21.927  0.00  0.00    +0.059 C 
ENDROOT
BRANCH   1   6
ATOM      2  O   UNL     1      35.168 -19.827 -24.338  0.00  0.00    -0.270 OA
ATOM      3  O   UNL     1      33.340 -15.972 -26.054  0.00  0.00    -0.252 OA
ATOM      4  N   UNL     1      34.357 -15.882 -23.957  0.00  0.00    -0.216 N 
ATOM      5  N   UNL     1      34.255 -17.887 -25.186  0.00  0.00    -0.236 N 
ATOM      6  C   UNL     1      35.326 -17.863 -23.014  0.00  0.00    +0.051 C 
ATOM      7  C   UNL     1      35.024 -16.560 -22.956  0.00  0.00    +0.072 C 
ATOM      8  C   UNL     1      34.921 -18.630 -24.222  0.00  0.00    +0.250 C 
ATOM      9  C   UNL     1      33.938 -16.525 -25.130  0.00  0.00    +0.315 C 
ATOM     10  H   UNL     1      33.976 -18.371 -25.996  0.00  0.00    +0.159 HD
BRANCH   4  11
ATOM     11  C   UNL     1      34.096 -14.462 -23.757  0.00  0.00    +0.248 C 
BRANCH  11  12
ATOM     12  O   UNL     1      32.752 -14.302 -23.332  0.00  0.00    -0.331 OA
BRANCH  12  13
ATOM     13  C   UNL     1      32.669 -13.525 -22.145  0.00  0.00    +0.176 C 
BRANCH  13  14
ATOM     14  C   UNL     1      32.782 -14.443 -20.943  0.00  0.00    +0.169 C 
BRANCH  14  15
ATOM     15  O   UNL     1      32.042 -15.631 -21.195  0.00  0.00    -0.379 OA
ATOM     16  H   UNL     1      31.414 -15.474 -21.918  0.00  0.00    +0.211 HD
ENDBRANCH  14  15
ENDBRANCH  13  14
ENDBRANCH  12  13
ENDBRANCH  11  12
ENDBRANCH   4  11
ENDBRANCH   1   6
BRANCH   1  17
ATOM     17  C   UNL     1      35.139 -19.484 -21.126  0.00  0.00    -0.015 C 
ATOM     18  C   UNL     1      35.684 -20.492 -20.342  0.00  0.00    +0.033 C 
ATOM     19  C   UNL     1      33.765 -19.286 -21.179  0.00  0.00    -0.004 C 
ATOM     20  C   UNL     1      34.842 -21.317 -19.599  0.00  0.00    +0.139 C 
ATOM     21  C   UNL     1      32.922 -20.112 -20.436  0.00  0.00    +0.003 C 
ATOM     22  C   UNL     1      33.460 -21.127 -19.645  0.00  0.00    +0.037 C 
BRANCH  20  23
ATOM     23  O   UNL     1      35.366 -22.308 -18.827  0.00  0.00    -0.471 OA
BRANCH  23  24
ATOM     24  C   UNL     1      36.481 -21.968 -18.003  0.00  0.00    +0.232 C 
BRANCH  24  25
ATOM     25  C   UNL     1      36.254 -22.513 -16.623  0.00  0.00    +0.021 C 
ATOM     26  C   UNL     1      37.330 -22.658 -15.754  0.00  0.00    -0.001 C 
ATOM     27  C   UNL     1      34.970 -22.867 -16.225  0.00  0.00    -0.001 C 
ATOM     28  C   UNL     1      37.118 -23.164 -14.472  0.00  0.00    -0.000 C 
ATOM     29  C   UNL     1      34.758 -23.373 -14.943  0.00  0.00    -0.000 C 
ATOM     30  C   UNL     1      35.833 -23.521 -14.066  0.00  0.00    -0.000 C 
ENDBRANCH  24  25
ENDBRANCH  23  24
ENDBRANCH  20  23
ENDBRANCH   1  17
TORSDOF 10
ENDMDL
MODEL 2
REMARK VINA RESULT:     -10.4      1.464      2.119
REMARK  Name = 134111
REMARK  10 active torsions:
REMARK  status: ('A' for Active; 'I' for Inactive)
REMARK    1  A    between atoms: C_1  and  C_6
REMARK    2  A    between atoms: C_1  and  C_17
REMARK    3  A    between atoms: N_4  and  C_11
REMARK    4  A    between atoms: C_11  and  O_12
REMARK    5  A    between atoms: O_12  and  C_13
REMARK    6  A    between atoms: C_13  and  C_14
REMARK    7  A    between atoms: C_14  and  O_15
REMARK    8  A    between atoms: C_20  and  O_23
REMARK    9  A    between atoms: O_23  and  C_24
REMARK   10  A    between atoms: C_24  and  C_25
REMARK                            x       y       z     vdW  Elec       q    Type
REMARK                         _______ _______ _______ _____ _____    ______ ____
ROOT
ATOM      1  C   UNL     1      35.983 -18.765 -21.818  0.00  0.00    +0.059 C 
ENDROOT
BRANCH   1   6
ATOM      2  O   UNL     1      35.138 -19.916 -24.281  0.00  0.00    -0.270 OA
ATOM      3  O   UNL     1      33.760 -15.916 -26.081  0.00  0.00    -0.252 OA
ATOM      4  N   UNL     1      34.659 -15.916 -23.928  0.00  0.00    -0.216 N 
ATOM      5  N   UNL     1      34.451 -17.904 -25.171  0.00  0.00    -0.236 N 
ATOM      6  C   UNL     1      35.392 -17.974 -22.941  0.00  0.00    +0.051 C 
ATOM      7  C   UNL     1      35.204 -16.649 -22.894  0.00  0.00    +0.072 C 
ATOM      8  C   UNL     1      34.992 -18.702 -24.174  0.00  0.00    +0.250 C 
ATOM      9  C   UNL     1      34.253 -16.519 -25.127  0.00  0.00    +0.315 C 
ATOM     10  H   UNL     1      34.177 -18.361 -25.998  0.00  0.00    +0.159 HD
BRANCH   4  11
ATOM     11  C   UNL     1      34.514 -14.478 -23.737  0.00  0.00    +0.248 C 
BRANCH  11  12
ATOM     12  O   UNL     1      33.157 -14.194 -23.431  0.00  0.00    -0.331 OA
BRANCH  12  13
ATOM     13  C   UNL     1      32.930 -12.796 -23.309  0.00  0.00    +0.176 C 
BRANCH  13  14
ATOM     14  C   UNL     1      33.639 -12.080 -24.442  0.00  0.00    +0.169 C 
BRANCH  14  15
ATOM     15  O   UNL     1      34.454 -11.047 -23.901  0.00  0.00    -0.379 OA
ATOM     16  H   UNL     1      33.903 -10.431 -23.395  0.00  0.00    +0.211 HD
ENDBRANCH  14  15
ENDBRANCH  13  14
ENDBRANCH  12  13
ENDBRANCH  11  12
ENDBRANCH   4  11
ENDBRANCH   1   6
BRANCH   1  17
ATOM     17  C   UNL     1      34.951 -19.553 -21.059  0.00  0.00    -0.015 C 
ATOM     18  C   UNL     1      35.348 -20.630 -20.280  0.00  0.00    +0.033 C 
ATOM     19  C   UNL     1      33.613 -19.193 -21.149  0.00  0.00    -0.004 C 
ATOM     20  C   UNL     1      34.392 -21.360 -19.576  0.00  0.00    +0.139 C 
ATOM     21  C   UNL     1      32.655 -19.923 -20.446  0.00  0.00    +0.003 C 
ATOM     22  C   UNL     1      33.044 -21.007 -19.659  0.00  0.00    +0.037 C 
BRANCH  20  23
ATOM     23  O   UNL     1      34.771 -22.418 -18.808  0.00  0.00    -0.471 OA
BRANCH  23  24
ATOM     24  C   UNL     1      33.789 -23.425 -18.559  0.00  0.00    +0.232 C 
BRANCH  24  25
ATOM     25  C   UNL     1      33.368 -23.353 -17.121  0.00  0.00    +0.021 C 
ATOM     26  C   UNL     1      34.324 -23.454 -16.117  0.00  0.00    -0.001 C 
ATOM     27  C   UNL     1      32.024 -23.185 -16.805  0.00  0.00    -0.001 C 
ATOM     28  C   UNL     1      33.931 -23.387 -14.780  0.00  0.00    -0.000 C 
ATOM     29  C   UNL     1      31.632 -23.119 -15.469  0.00  0.00    -0.000 C 
ATOM     30  C   UNL     1      32.586 -23.219 -14.456  0.00  0.00    -0.000 C 
ENDBRANCH  24  25
ENDBRANCH  23  24
ENDBRANCH  20  23
ENDBRANCH   1  17
TORSDOF 10
ENDMDL
MODEL 3
REMARK VINA RESULT:     -10.3      4.106      9.145
REMARK  Name = 134111
REMARK  10 active torsions:
REMARK  status: ('A' for Active; 'I' for Inactive)
REMARK    1  A    between atoms: C_1  and  C_6
REMARK    2  A    between atoms: C_1  and  C_17
REMARK    3  A    between atoms: N_4  and  C_11
REMARK    4  A    between atoms: C_11  and  O_12
REMARK    5  A    between atoms: O_12  and  C_13
REMARK    6  A    between atoms: C_13  and  C_14
REMARK    7  A    between atoms: C_14  and  O_15
REMARK    8  A    between atoms: C_20  and  O_23
REMARK    9  A    between atoms: O_23  and  C_24
REMARK   10  A    between atoms: C_24  and  C_25
REMARK                            x       y       z     vdW  Elec       q    Type
REMARK                         _______ _______ _______ _____ _____    ______ ____
ROOT
ATOM      1  C   UNL     1      34.891 -22.624 -19.262  0.00  0.00    +0.059 C 
ENDROOT
BRANCH   1   6
ATOM      2  O   UNL     1      36.513 -22.444 -16.929  0.00  0.00    -0.270 OA
ATOM      3  O   UNL     1      33.073 -23.420 -14.038  0.00  0.00    -0.252 OA
ATOM      4  N   UNL     1      32.617 -23.348 -16.325  0.00  0.00    -0.216 N 
ATOM      5  N   UNL     1      34.779 -22.934 -15.491  0.00  0.00    -0.236 N 
ATOM      6  C   UNL     1      34.374 -22.843 -17.877  0.00  0.00    +0.051 C 
ATOM      7  C   UNL     1      33.098 -23.145 -17.602  0.00  0.00    +0.072 C 
ATOM      8  C   UNL     1      35.330 -22.718 -16.745  0.00  0.00    +0.250 C 
ATOM      9  C   UNL     1      33.447 -23.250 -15.199  0.00  0.00    +0.315 C 
ATOM     10  H   UNL     1      35.391 -22.857 -14.724  0.00  0.00    +0.159 HD
BRANCH   4  11
ATOM     11  C   UNL     1      31.204 -23.671 -16.176  0.00  0.00    +0.248 C 
BRANCH  11  12
ATOM     12  O   UNL     1      30.438 -22.687 -16.853  0.00  0.00    -0.331 OA
BRANCH  12  13
ATOM     13  C   UNL     1      29.128 -22.579 -16.311  0.00  0.00    +0.176 C 
BRANCH  13  14
ATOM     14  C   UNL     1      28.269 -23.698 -16.867  0.00  0.00    +0.169 C 
BRANCH  14  15
ATOM     15  O   UNL     1      27.562 -23.219 -18.005  0.00  0.00    -0.379 OA
ATOM     16  H   UNL     1      28.085 -22.531 -18.445  0.00  0.00    +0.211 HD
ENDBRANCH  14  15
ENDBRANCH  13  14
ENDBRANCH  12  13
ENDBRANCH  11  12
ENDBRANCH   4  11
ENDBRANCH   1   6
BRANCH   1  17
ATOM     17  C   UNL     1      34.401 -21.335 -19.865  0.00  0.00    -0.015 C 
ATOM     18  C   UNL     1      35.314 -20.450 -20.423  0.00  0.00    +0.033 C 
ATOM     19  C   UNL     1      33.043 -21.047 -19.854  0.00  0.00    -0.004 C 
ATOM     20  C   UNL     1      34.860 -19.257 -20.982  0.00  0.00    +0.139 C 
ATOM     21  C   UNL     1      32.589 -19.853 -20.413  0.00  0.00    +0.003 C 
ATOM     22  C   UNL     1      33.497 -18.957 -20.977  0.00  0.00    +0.037 C 
BRANCH  20  23
ATOM     23  O   UNL     1      35.746 -18.382 -21.533  0.00  0.00    -0.471 OA
BRANCH  23  24
ATOM     24  C   UNL     1      35.882 -18.404 -22.954  0.00  0.00    +0.232 C 
BRANCH  24  25
ATOM     25  C   UNL     1      35.142 -17.236 -23.536  0.00  0.00    +0.021 C 
ATOM     26  C   UNL     1      34.935 -16.098 -22.764  0.00  0.00    -0.001 C 
ATOM     27  C   UNL     1      34.669 -17.303 -24.842  0.00  0.00    -0.001 C 
ATOM     28  C   UNL     1      34.246 -15.013 -23.306  0.00  0.00    -0.000 C 
ATOM     29  C   UNL     1      33.981 -16.218 -25.383  0.00  0.00    -0.000 C 
ATOM     30  C   UNL     1      33.770 -15.072 -24.615  0.00  0.00    -0.000 C 
ENDBRANCH  24  25
ENDBRANCH  23  24
ENDBRANCH  20  23
ENDBRANCH   1  17
TORSDOF 10
ENDMDL
MODEL 4
REMARK VINA RESULT:     -10.3      4.376      7.910
REMARK  Name = 134111
REMARK  10 active torsions:
REMARK  status: ('A' for Active; 'I' for Inactive)
REMARK    1  A    between atoms: C_1  and  C_6
REMARK    2  A    between atoms: C_1  and  C_17
REMARK    3  A    between atoms: N_4  and  C_11
REMARK    4  A    between atoms: C_11  and  O_12
REMARK    5  A    between atoms: O_12  and  C_13
REMARK    6  A    between atoms: C_13  and  C_14
REMARK    7  A    between atoms: C_14  and  O_15
REMARK    8  A    between atoms: C_20  and  O_23
REMARK    9  A    between atoms: O_23  and  C_24
REMARK   10  A    between atoms: C_24  and  C_25
REMARK                            x       y       z     vdW  Elec       q    Type
REMARK                         _______ _______ _______ _____ _____    ______ ____
ROOT
ATOM      1  C   UNL     1      31.093 -11.912 -21.382  0.00  0.00    +0.059 C 
ENDROOT
BRANCH   1   6
ATOM      2  O   UNL     1      31.320 -11.126 -18.655  0.00  0.00    -0.270 OA
ATOM      3  O   UNL     1      33.006  -6.961 -19.632  0.00  0.00    -0.252 OA
ATOM      4  N   UNL     1      32.490  -8.395 -21.399  0.00  0.00    -0.216 N 
ATOM      5  N   UNL     1      32.165  -9.041 -19.159  0.00  0.00    -0.236 N 
ATOM      6  C   UNL     1      31.608 -10.578 -20.946  0.00  0.00    +0.051 C 
ATOM      7  C   UNL     1      32.013  -9.627 -21.797  0.00  0.00    +0.072 C 
ATOM      8  C   UNL     1      31.676 -10.297 -19.487  0.00  0.00    +0.250 C 
ATOM      9  C   UNL     1      32.588  -8.044 -20.045  0.00  0.00    +0.315 C 
ATOM     10  H   UNL     1      32.219  -8.829 -18.199  0.00  0.00    +0.159 HD
BRANCH   4  11
ATOM     11  C   UNL     1      32.895  -7.456 -22.438  0.00  0.00    +0.248 C 
BRANCH  11  12
ATOM     12  O   UNL     1      34.299  -7.555 -22.618  0.00  0.00    -0.331 OA
BRANCH  12  13
ATOM     13  C   UNL     1      34.631  -7.907 -23.954  0.00  0.00    +0.176 C 
BRANCH  13  14
ATOM     14  C   UNL     1      34.480  -9.406 -24.123  0.00  0.00    +0.169 C 
BRANCH  14  15
ATOM     15  O   UNL     1      35.758  -9.976 -24.378  0.00  0.00    -0.379 OA
ATOM     16  H   UNL     1      36.331  -9.314 -24.793  0.00  0.00    +0.211 HD
ENDBRANCH  14  15
ENDBRANCH  13  14
ENDBRANCH  12  13
ENDBRANCH  11  12
ENDBRANCH   4  11
ENDBRANCH   1   6
BRANCH   1  17
ATOM     17  C   UNL     1      32.174 -12.796 -21.940  0.00  0.00    -0.015 C 
ATOM     18  C   UNL     1      32.571 -13.923 -21.233  0.00  0.00    +0.033 C 
ATOM     19  C   UNL     1      32.763 -12.473 -23.156  0.00  0.00    -0.004 C 
ATOM     20  C   UNL     1      33.573 -14.743 -21.751  0.00  0.00    +0.139 C 
ATOM     21  C   UNL     1      33.766 -13.292 -23.674  0.00  0.00    +0.003 C 
ATOM     22  C   UNL     1      34.170 -14.427 -22.971  0.00  0.00    +0.037 C 
BRANCH  20  23
ATOM     23  O   UNL     1      33.968 -15.850 -21.066  0.00  0.00    -0.471 OA
BRANCH  23  24
ATOM     24  C   UNL     1      35.004 -16.640 -21.651  0.00  0.00    +0.232 C 
BRANCH  24  25
ATOM     25  C   UNL     1      34.853 -18.061 -21.196  0.00  0.00    +0.021 C 
ATOM     26  C   UNL     1      35.985 -18.834 -20.962  0.00  0.00    -0.001 C 
ATOM     27  C   UNL     1      33.582 -18.593 -21.010  0.00  0.00    -0.001 C 
ATOM     28  C   UNL     1      35.844 -20.155 -20.538  0.00  0.00    -0.000 C 
ATOM     29  C   UNL     1      33.441 -19.914 -20.588  0.00  0.00    -0.000 C 
ATOM     30  C   UNL     1      34.573 -20.695 -20.351  0.00  0.00    -0.000 C 
ENDBRANCH  24  25
ENDBRANCH  23  24
ENDBRANCH  20  23
ENDBRANCH   1  17
TORSDOF 10
ENDMDL
MODEL 5
REMARK VINA RESULT:     -10.2      4.900      8.334
REMARK  Name = 134111
REMARK  10 active torsions:
REMARK  status: ('A' for Active; 'I' for Inactive)
REMARK    1  A    between atoms: C_1  and  C_6
REMARK    2  A    between atoms: C_1  and  C_17
REMARK    3  A    between atoms: N_4  and  C_11
REMARK    4  A    between atoms: C_11  and  O_12
REMARK    5  A    between atoms: O_12  and  C_13
REMARK    6  A    between atoms: C_13  and  C_14
REMARK    7  A    between atoms: C_14  and  O_15
REMARK    8  A    between atoms: C_20  and  O_23
REMARK    9  A    between atoms: O_23  and  C_24
REMARK   10  A    between atoms: C_24  and  C_25
REMARK                            x       y       z     vdW  Elec       q    Type
REMARK                         _______ _______ _______ _____ _____    ______ ____
ROOT
ATOM      1  C   UNL     1      31.113 -11.880 -21.475  0.00  0.00    +0.059 C 
ENDROOT
BRANCH   1   6
ATOM      2  O   UNL     1      31.547 -11.237 -18.735  0.00  0.00    -0.270 OA
ATOM      3  O   UNL     1      32.996  -6.961 -19.606  0.00  0.00    -0.252 OA
ATOM      4  N   UNL     1      32.380  -8.314 -21.403  0.00  0.00    -0.216 N 
ATOM      5  N   UNL     1      32.272  -9.097 -19.186  0.00  0.00    -0.236 N 
ATOM      6  C   UNL     1      31.618 -10.553 -21.007  0.00  0.00    +0.051 C 
ATOM      7  C   UNL     1      31.914  -9.541 -21.831  0.00  0.00    +0.072 C 
ATOM      8  C   UNL     1      31.801 -10.350 -19.545  0.00  0.00    +0.250 C 
ATOM      9  C   UNL     1      32.582  -8.036 -20.045  0.00  0.00    +0.315 C 
ATOM     10  H   UNL     1      32.402  -8.935 -18.224  0.00  0.00    +0.159 HD
BRANCH   4  11
ATOM     11  C   UNL     1      32.661  -7.304 -22.416  0.00  0.00    +0.248 C 
BRANCH  11  12
ATOM     12  O   UNL     1      31.564  -7.243 -23.314  0.00  0.00    -0.331 OA
BRANCH  12  13
ATOM     13  C   UNL     1      31.072  -5.916 -23.449  0.00  0.00    +0.176 C 
BRANCH  13  14
ATOM     14  C   UNL     1      30.569  -5.436 -22.101  0.00  0.00    +0.169 C 
BRANCH  14  15
ATOM     15  O   UNL     1      30.456  -4.018 -22.126  0.00  0.00    -0.379 OA
ATOM     16  H   UNL     1      30.935  -3.642 -21.371  0.00  0.00    +0.211 HD
ENDBRANCH  14  15
ENDBRANCH  13  14
ENDBRANCH  12  13
ENDBRANCH  11  12
ENDBRANCH   4  11
ENDBRANCH   1   6
BRANCH   1  17
ATOM     17  C   UNL     1      32.207 -12.751 -22.030  0.00  0.00    -0.015 C 
ATOM     18  C   UNL     1      32.610 -13.877 -21.325  0.00  0.00    +0.033 C 
ATOM     19  C   UNL     1      32.799 -12.418 -23.241  0.00  0.00    -0.004 C 
ATOM     20  C   UNL     1      33.623 -14.685 -21.840  0.00  0.00    +0.139 C 
ATOM     21  C   UNL     1      33.813 -13.225 -23.756  0.00  0.00    +0.003 C 
ATOM     22  C   UNL     1      34.225 -14.359 -23.056  0.00  0.00    +0.037 C 
BRANCH  20  23
ATOM     23  O   UNL     1      34.025 -15.791 -21.157  0.00  0.00    -0.471 OA
BRANCH  23  24
ATOM     24  C   UNL     1      34.955 -16.656 -21.811  0.00  0.00    +0.232 C 
BRANCH  24  25
ATOM     25  C   UNL     1      34.770 -18.053 -21.296  0.00  0.00    +0.021 C 
ATOM     26  C   UNL     1      33.486 -18.553 -21.107  0.00  0.00    -0.001 C 
ATOM     27  C   UNL     1      35.884 -18.836 -21.015  0.00  0.00    -0.001 C 
ATOM     28  C   UNL     1      33.315 -19.852 -20.628  0.00  0.00    -0.000 C 
ATOM     29  C   UNL     1      35.713 -20.134 -20.537  0.00  0.00    -0.000 C 
ATOM     30  C   UNL     1      34.428 -20.643 -20.344  0.00  0.00    -0.000 C 
ENDBRANCH  24  25
ENDBRANCH  23  24
ENDBRANCH  20  23
ENDBRANCH   1  17
TORSDOF 10
ENDMDL
MODEL 6
REMARK VINA RESULT:     -10.2      5.488      9.331
REMARK  Name = 134111
REMARK  10 active torsions:
REMARK  status: ('A' for Active; 'I' for Inactive)
REMARK    1  A    between atoms: C_1  and  C_6
REMARK    2  A    between atoms: C_1  and  C_17
REMARK    3  A    between atoms: N_4  and  C_11
REMARK    4  A    between atoms: C_11  and  O_12
REMARK    5  A    between atoms: O_12  and  C_13
REMARK    6  A    between atoms: C_13  and  C_14
REMARK    7  A    between atoms: C_14  and  O_15
REMARK    8  A    between atoms: C_20  and  O_23
REMARK    9  A    between atoms: O_23  and  C_24
REMARK   10  A    between atoms: C_24  and  C_25
REMARK                            x       y       z     vdW  Elec       q    Type
REMARK                         _______ _______ _______ _____ _____    ______ ____
ROOT
ATOM      1  C   UNL     1      31.933 -23.084 -13.789  0.00  0.00    +0.059 C 
ENDROOT
BRANCH   1   6
ATOM      2  O   UNL     1      31.382 -25.833 -14.286  0.00  0.00    -0.270 OA
ATOM      3  O   UNL     1      27.877 -24.976 -17.137  0.00  0.00    -0.252 OA
ATOM      4  N   UNL     1      29.005 -23.169 -16.186  0.00  0.00    -0.216 N 
ATOM      5  N   UNL     1      29.627 -25.389 -15.712  0.00  0.00    -0.236 N 
ATOM      6  C   UNL     1      30.840 -23.558 -14.692  0.00  0.00    +0.051 C 
ATOM      7  C   UNL     1      30.015 -22.735 -15.352  0.00  0.00    +0.072 C 
ATOM      8  C   UNL     1      30.660 -25.024 -14.862  0.00  0.00    +0.250 C 
ATOM      9  C   UNL     1      28.764 -24.532 -16.405  0.00  0.00    +0.315 C 
ATOM     10  H   UNL     1      29.486 -26.354 -15.843  0.00  0.00    +0.159 HD
BRANCH   4  11
ATOM     11  C   UNL     1      28.184 -22.157 -16.840  0.00  0.00    +0.248 C 
BRANCH  11  12
ATOM     12  O   UNL     1      27.212 -21.692 -15.917  0.00  0.00    -0.331 OA
BRANCH  12  13
ATOM     13  C   UNL     1      25.909 -21.694 -16.484  0.00  0.00    +0.176 C 
BRANCH  13  14
ATOM     14  C   UNL     1      25.996 -21.231 -17.925  0.00  0.00    +0.169 C 
BRANCH  14  15
ATOM     15  O   UNL     1      25.942 -19.810 -17.961  0.00  0.00    -0.379 OA
ATOM     16  H   UNL     1      26.585 -19.478 -18.606  0.00  0.00    +0.211 HD
ENDBRANCH  14  15
ENDBRANCH  13  14
ENDBRANCH  12  13
ENDBRANCH  11  12
ENDBRANCH   4  11
ENDBRANCH   1   6
BRANCH   1  17
ATOM     17  C   UNL     1      33.303 -23.337 -14.358  0.00  0.00    -0.015 C 
ATOM     18  C   UNL     1      33.583 -22.957 -15.663  0.00  0.00    +0.033 C 
ATOM     19  C   UNL     1      34.269 -23.948 -13.570  0.00  0.00    -0.004 C 
ATOM     20  C   UNL     1      34.852 -23.190 -16.190  0.00  0.00    +0.139 C 
ATOM     21  C   UNL     1      35.539 -24.182 -14.097  0.00  0.00    +0.003 C 
ATOM     22  C   UNL     1      35.831 -23.803 -15.407  0.00  0.00    +0.037 C 
BRANCH  20  23
ATOM     23  O   UNL     1      35.138 -22.821 -17.468  0.00  0.00    -0.471 OA
BRANCH  23  24
ATOM     24  C   UNL     1      34.054 -22.807 -18.398  0.00  0.00    +0.232 C 
BRANCH  24  25
ATOM     25  C   UNL     1      34.236 -21.659 -19.346  0.00  0.00    +0.021 C 
ATOM     26  C   UNL     1      33.123 -20.975 -19.822  0.00  0.00    -0.001 C 
ATOM     27  C   UNL     1      35.518 -21.287 -19.739  0.00  0.00    -0.001 C 
ATOM     28  C   UNL     1      33.294 -19.907 -20.704  0.00  0.00    -0.000 C 
ATOM     29  C   UNL     1      35.688 -20.220 -20.620  0.00  0.00    -0.000 C 
ATOM     30  C   UNL     1      34.575 -19.530 -21.102  0.00  0.00    -0.000 C 
ENDBRANCH  24  25
ENDBRANCH  23  24
ENDBRANCH  20  23
ENDBRANCH   1  17
TORSDOF 10
ENDMDL
MODEL 7
REMARK VINA RESULT:     -10.2      3.364      5.834
REMARK  Name = 134111
REMARK  10 active torsions:
REMARK  status: ('A' for Active; 'I' for Inactive)
REMARK    1  A    between atoms: C_1  and  C_6
REMARK    2  A    between atoms: C_1  and  C_17
REMARK    3  A    between atoms: N_4  and  C_11
REMARK    4  A    between atoms: C_11  and  O_12
REMARK    5  A    between atoms: O_12  and  C_13
REMARK    6  A    between atoms: C_13  and  C_14
REMARK    7  A    between atoms: C_14  and  O_15
REMARK    8  A    between atoms: C_20  and  O_23
REMARK    9  A    between atoms: O_23  and  C_24
REMARK   10  A    between atoms: C_24  and  C_25
REMARK                            x       y       z     vdW  Elec       q    Type
REMARK                         _______ _______ _______ _____ _____    ______ ____
ROOT
ATOM      1  C   UNL     1      33.695 -14.013 -24.129  0.00  0.00    +0.059 C 
ENDROOT
BRANCH   1   6
ATOM      2  O   UNL     1      34.537 -11.569 -25.323  0.00  0.00    -0.270 OA
ATOM      3  O   UNL     1      31.951  -8.933 -22.583  0.00  0.00    -0.252 OA
ATOM      4  N   UNL     1      31.881 -11.246 -22.290  0.00  0.00    -0.216 N 
ATOM      5  N   UNL     1      33.235 -10.260 -23.943  0.00  0.00    -0.236 N 
ATOM      6  C   UNL     1      33.209 -12.668 -23.692  0.00  0.00    +0.051 C 
ATOM      7  C   UNL     1      32.332 -12.485 -22.697  0.00  0.00    +0.072 C 
ATOM      8  C   UNL     1      33.730 -11.471 -24.403  0.00  0.00    +0.250 C 
ATOM      9  C   UNL     1      32.319 -10.064 -22.903  0.00  0.00    +0.315 C 
ATOM     10  H   UNL     1      33.564  -9.450 -24.397  0.00  0.00    +0.159 HD
BRANCH   4  11
ATOM     11  C   UNL     1      30.924 -11.199 -21.191  0.00  0.00    +0.248 C 
BRANCH  11  12
ATOM     12  O   UNL     1      31.541 -11.729 -20.027  0.00  0.00    -0.331 OA
BRANCH  12  13
ATOM     13  C   UNL     1      31.377 -10.866 -18.910  0.00  0.00    +0.176 C 
BRANCH  13  14
ATOM     14  C   UNL     1      31.409  -9.426 -19.387  0.00  0.00    +0.169 C 
BRANCH  14  15
ATOM     15  O   UNL     1      32.761  -8.991 -19.459  0.00  0.00    -0.379 OA
ATOM     16  H   UNL     1      33.194  -9.136 -18.603  0.00  0.00    +0.211 HD
ENDBRANCH  14  15
ENDBRANCH  13  14
ENDBRANCH  12  13
ENDBRANCH  11  12
ENDBRANCH   4  11
ENDBRANCH   1   6
BRANCH   1  17
ATOM     17  C   UNL     1      34.114 -14.880 -22.973  0.00  0.00    -0.015 C 
ATOM     18  C   UNL     1      34.446 -16.209 -23.200  0.00  0.00    +0.033 C 
ATOM     19  C   UNL     1      34.163 -14.341 -21.695  0.00  0.00    -0.004 C 
ATOM     20  C   UNL     1      34.835 -17.013 -22.130  0.00  0.00    +0.139 C 
ATOM     21  C   UNL     1      34.551 -15.145 -20.624  0.00  0.00    +0.003 C 
ATOM     22  C   UNL     1      34.888 -16.481 -20.841  0.00  0.00    +0.037 C 
BRANCH  20  23
ATOM     23  O   UNL     1      35.163 -18.316 -22.341  0.00  0.00    -0.471 OA
BRANCH  23  24
ATOM     24  C   UNL     1      36.008 -18.939 -21.373  0.00  0.00    +0.232 C 
BRANCH  24  25
ATOM     25  C   UNL     1      35.228 -19.995 -20.648  0.00  0.00    +0.021 C 
ATOM     26  C   UNL     1      33.838 -19.959 -20.665  0.00  0.00    -0.001 C 
ATOM     27  C   UNL     1      35.902 -21.002 -19.966  0.00  0.00    -0.001 C 
ATOM     28  C   UNL     1      33.113 -20.942 -19.990  0.00  0.00    -0.000 C 
ATOM     29  C   UNL     1      35.177 -21.984 -19.291  0.00  0.00    -0.000 C 
ATOM     30  C   UNL     1      33.783 -21.954 -19.304  0.00  0.00    -0.000 C 
ENDBRANCH  24  25
ENDBRANCH  23  24
ENDBRANCH  20  23
ENDBRANCH   1  17
TORSDOF 10
ENDMDL
MODEL 8
REMARK VINA RESULT:     -10.2      1.468      2.780
REMARK  Name = 134111
REMARK  10 active torsions:
REMARK  status: ('A' for Active; 'I' for Inactive)
REMARK    1  A    between atoms: C_1  and  C_6
REMARK    2  A    between atoms: C_1  and  C_17
REMARK    3  A    between atoms: N_4  and  C_11
REMARK    4  A    between atoms: C_11  and  O_12
REMARK    5  A    between atoms: O_12  and  C_13
REMARK    6  A    between atoms: C_13  and  C_14
REMARK    7  A    between atoms: C_14  and  O_15
REMARK    8  A    between atoms: C_20  and  O_23
REMARK    9  A    between atoms: O_23  and  C_24
REMARK   10  A    between atoms: C_24  and  C_25
REMARK                            x       y       z     vdW  Elec       q    Type
REMARK                         _______ _______ _______ _____ _____    ______ ____
ROOT
ATOM      1  C   UNL     1      35.932 -18.464 -21.952  0.00  0.00    +0.059 C 
ENDROOT
BRANCH   1   6
ATOM      2  O   UNL     1      35.172 -16.306 -20.257  0.00  0.00    -0.270 OA
ATOM      3  O   UNL     1      32.896 -14.056 -23.559  0.00  0.00    -0.252 OA
ATOM      4  N   UNL     1      33.918 -16.083 -24.096  0.00  0.00    -0.216 N 
ATOM      5  N   UNL     1      34.035 -15.189 -21.922  0.00  0.00    -0.236 N 
ATOM      6  C   UNL     1      35.118 -17.298 -22.412  0.00  0.00    +0.051 C 
ATOM      7  C   UNL     1      34.669 -17.158 -23.666  0.00  0.00    +0.072 C 
ATOM      8  C   UNL     1      34.792 -16.238 -21.422  0.00  0.00    +0.250 C 
ATOM      9  C   UNL     1      33.564 -15.038 -23.231  0.00  0.00    +0.315 C 
ATOM     10  H   UNL     1      33.805 -14.472 -21.287  0.00  0.00    +0.159 HD
BRANCH   4  11
ATOM     11  C   UNL     1      33.497 -16.064 -25.492  0.00  0.00    +0.248 C 
BRANCH  11  12
ATOM     12  O   UNL     1      34.050 -14.916 -26.117  0.00  0.00    -0.331 OA
BRANCH  12  13
ATOM     13  C   UNL     1      33.116 -14.296 -26.991  0.00  0.00    +0.176 C 
BRANCH  13  14
ATOM     14  C   UNL     1      33.385 -12.804 -27.025  0.00  0.00    +0.169 C 
BRANCH  14  15
ATOM     15  O   UNL     1      33.698 -12.359 -25.711  0.00  0.00    -0.379 OA
ATOM     16  H   UNL     1      33.645 -11.391 -25.676  0.00  0.00    +0.211 HD
ENDBRANCH  14  15
ENDBRANCH  13  14
ENDBRANCH  12  13
ENDBRANCH  11  12
ENDBRANCH   4  11
ENDBRANCH   1   6
BRANCH   1  17
ATOM     17  C   UNL     1      35.124 -19.458 -21.162  0.00  0.00    -0.015 C 
ATOM     18  C   UNL     1      35.775 -20.400 -20.377  0.00  0.00    +0.033 C 
ATOM     19  C   UNL     1      33.738 -19.420 -21.229  0.00  0.00    -0.004 C 
ATOM     20  C   UNL     1      35.026 -21.320 -19.645  0.00  0.00    +0.139 C 
ATOM     21  C   UNL     1      32.988 -20.340 -20.497  0.00  0.00    +0.003 C 
ATOM     22  C   UNL     1      33.632 -21.290 -19.705  0.00  0.00    +0.037 C 
BRANCH  20  23
ATOM     23  O   UNL     1      35.654 -22.247 -18.871  0.00  0.00    -0.471 OA
BRANCH  23  24
ATOM     24  C   UNL     1      36.593 -21.764 -17.911  0.00  0.00    +0.232 C 
BRANCH  24  25
ATOM     25  C   UNL     1      36.333 -22.431 -16.592  0.00  0.00    +0.021 C 
ATOM     26  C   UNL     1      35.041 -22.827 -16.263  0.00  0.00    -0.001 C 
ATOM     27  C   UNL     1      37.387 -22.649 -15.712  0.00  0.00    -0.001 C 
ATOM     28  C   UNL     1      34.800 -23.446 -15.037  0.00  0.00    -0.000 C 
ATOM     29  C   UNL     1      37.146 -23.268 -14.486  0.00  0.00    -0.000 C 
ATOM     30  C   UNL     1      35.852 -23.668 -14.149  0.00  0.00    -0.000 C 
ENDBRANCH  24  25
ENDBRANCH  23  24
ENDBRANCH  20  23
ENDBRANCH   1  17
TORSDOF 10
ENDMDL
MODEL 9
REMARK VINA RESULT:     -10.1      4.404     10.318
REMARK  Name = 134111
REMARK  10 active torsions:
REMARK  status: ('A' for Active; 'I' for Inactive)
REMARK    1  A    between atoms: C_1  and  C_6
REMARK    2  A    between atoms: C_1  and  C_17
REMARK    3  A    between atoms: N_4  and  C_11
REMARK    4  A    between atoms: C_11  and  O_12
REMARK    5  A    between atoms: O_12  and  C_13
REMARK    6  A    between atoms: C_13  and  C_14
REMARK    7  A    between atoms: C_14  and  O_15
REMARK    8  A    between atoms: C_20  and  O_23
REMARK    9  A    between atoms: O_23  and  C_24
REMARK   10  A    between atoms: C_24  and  C_25
REMARK                            x       y       z     vdW  Elec       q    Type
REMARK                         _______ _______ _______ _____ _____    ______ ____
ROOT
ATOM      1  C   UNL     1      32.982 -23.110 -17.715  0.00  0.00    +0.059 C 
ENDROOT
BRANCH   1   6
ATOM      2  O   UNL     1      31.382 -22.824 -15.377  0.00  0.00    -0.270 OA
ATOM      3  O   UNL     1      34.740 -24.086 -12.500  0.00  0.00    -0.252 OA
ATOM      4  N   UNL     1      35.197 -24.029 -14.787  0.00  0.00    -0.216 N 
ATOM      5  N   UNL     1      33.074 -23.459 -13.947  0.00  0.00    -0.236 N 
ATOM      6  C   UNL     1      33.483 -23.379 -16.332  0.00  0.00    +0.051 C 
ATOM      7  C   UNL     1      34.731 -23.780 -16.062  0.00  0.00    +0.072 C 
ATOM      8  C   UNL     1      32.540 -23.191 -15.198  0.00  0.00    +0.250 C 
ATOM      9  C   UNL     1      34.379 -23.878 -13.660  0.00  0.00    +0.315 C 
ATOM     10  H   UNL     1      32.471 -23.342 -13.178  0.00  0.00    +0.159 HD
BRANCH   4  11
ATOM     11  C   UNL     1      36.583 -24.461 -14.643  0.00  0.00    +0.248 C 
BRANCH  11  12
ATOM     12  O   UNL     1      36.737 -25.716 -15.287  0.00  0.00    -0.331 OA
BRANCH  12  13
ATOM     13  C   UNL     1      37.108 -26.733 -14.366  0.00  0.00    +0.176 C 
BRANCH  13  14
ATOM     14  C   UNL     1      37.634 -26.087 -13.099  0.00  0.00    +0.169 C 
BRANCH  14  15
ATOM     15  O   UNL     1      36.800 -26.458 -12.008  0.00  0.00    -0.379 OA
ATOM     16  H   UNL     1      36.044 -25.853 -11.958  0.00  0.00    +0.211 HD
ENDBRANCH  14  15
ENDBRANCH  13  14
ENDBRANCH  12  13
ENDBRANCH  11  12
ENDBRANCH   4  11
ENDBRANCH   1   6
BRANCH   1  17
ATOM     17  C   UNL     1      33.922 -22.248 -18.513  0.00  0.00    -0.015 C 
ATOM     18  C   UNL     1      33.416 -21.426 -19.510  0.00  0.00    +0.033 C 
ATOM     19  C   UNL     1      35.283 -22.287 -18.242  0.00  0.00    -0.004 C 
ATOM     20  C   UNL     1      34.287 -20.626 -20.249  0.00  0.00    +0.139 C 
ATOM     21  C   UNL     1      36.154 -21.488 -18.981  0.00  0.00    +0.003 C 
ATOM     22  C   UNL     1      35.657 -20.657 -19.985  0.00  0.00    +0.037 C 
BRANCH  20  23
ATOM     23  O   UNL     1      33.802 -19.816 -21.229  0.00  0.00    -0.471 OA
BRANCH  23  24
ATOM     24  C   UNL     1      34.724 -19.382 -22.229  0.00  0.00    +0.232 C 
BRANCH  24  25
ATOM     25  C   UNL     1      34.694 -17.885 -22.308  0.00  0.00    +0.021 C 
ATOM     26  C   UNL     1      34.859 -17.255 -23.536  0.00  0.00    -0.001 C 
ATOM     27  C   UNL     1      34.501 -17.139 -21.150  0.00  0.00    -0.001 C 
ATOM     28  C   UNL     1      34.832 -15.862 -23.608  0.00  0.00    -0.000 C 
ATOM     29  C   UNL     1      34.474 -15.746 -21.222  0.00  0.00    -0.000 C 
ATOM     30  C   UNL     1      34.639 -15.108 -22.452  0.00  0.00    -0.000 C 
ENDBRANCH  24  25
ENDBRANCH  23  24
ENDBRANCH  20  23
ENDBRANCH   1  17
TORSDOF 10
ENDMDL
