MODEL 1
REMARK VINA RESULT:      -7.0      0.000      0.000
REMARK  Name = 5816
REMARK  6 active torsions:
REMARK  status: ('A' for Active; 'I' for Inactive)
REMARK    1  A    between atoms: C_1  and  C_11
REMARK    2  A    between atoms: C_4  and  O_7
REMARK    3  A    between atoms: C_6  and  O_9
REMARK    4  A    between atoms: C_11  and  O_12
REMARK    5  A    between atoms: C_11  and  C_14
REMARK    6  A    between atoms: C_14  and  N_15
REMARK                            x       y       z     vdW  Elec       q    Type
REMARK                         _______ _______ _______ _____ _____    ______ ____
ROOT
ATOM      1  C   UNL     1      35.024 -19.458 -21.025  0.00  0.00    +0.005 C 
ATOM      2  C   UNL     1      35.654 -20.456 -20.281  0.00  0.00    +0.038 C 
ATOM      3  C   UNL     1      33.632 -19.389 -21.060  0.00  0.00    +0.001 C 
ATOM      4  C   UNL     1      34.892 -21.384 -19.572  0.00  0.00    +0.167 C 
ATOM      5  C   UNL     1      32.870 -20.318 -20.351  0.00  0.00    +0.040 C 
ATOM      6  C   UNL     1      33.499 -21.315 -19.607  0.00  0.00    +0.167 C 
ENDROOT
BRANCH   4   7
ATOM      7  O   UNL     1      35.519 -22.353 -18.849  0.00  0.00    -0.503 OA
ATOM      8  H   UNL     1      35.396 -22.400 -17.921  0.00  0.00    +0.292 HD
ENDBRANCH   4   7
BRANCH   6   9
ATOM      9  O   UNL     1      32.745 -22.215 -18.918  0.00  0.00    -0.503 OA
ATOM     10  H   UNL     1      32.094 -22.721 -19.364  0.00  0.00    +0.292 HD
ENDBRANCH   6   9
BRANCH   1  11
ATOM     11  C   UNL     1      35.839 -18.465 -21.783  0.00  0.00    +0.112 C 
BRANCH  11  12
ATOM     12  O   UNL     1      37.228 -18.783 -21.623  0.00  0.00    -0.382 OA
ATOM     13  H   UNL     1      37.315 -19.658 -21.215  0.00  0.00    +0.211 HD
ENDBRANCH  11  12
BRANCH  11  14
ATOM     14  C   UNL     1      35.487 -18.446 -23.284  0.00  0.00    -0.047 C 
BRANCH  14  15
ATOM     15  N   UNL     1      35.517 -17.089 -23.825  0.00  0.00    +0.384 N 
ATOM     16  C   UNL     1      34.724 -17.000 -25.041  0.00  0.00    -0.106 C 
ATOM     17  H   UNL     1      36.482 -16.834 -24.036  0.00  0.00    -0.085 HD
ATOM     18  H   UNL     1      35.125 -16.451 -23.132  0.00  0.00    -0.085 HD
ENDBRANCH  14  15
ENDBRANCH  11  14
ENDBRANCH   1  11
TORSDOF 6
ENDMDL
MODEL 2
REMARK VINA RESULT:      -6.8      0.986      1.977
REMARK  Name = 5816
REMARK  6 active torsions:
REMARK  status: ('A' for Active; 'I' for Inactive)
REMARK    1  A    between atoms: C_1  and  C_11
REMARK    2  A    between atoms: C_4  and  O_7
REMARK    3  A    between atoms: C_6  and  O_9
REMARK    4  A    between atoms: C_11  and  O_12
REMARK    5  A    between atoms: C_11  and  C_14
REMARK    6  A    between atoms: C_14  and  N_15
REMARK                            x       y       z     vdW  Elec       q    Type
REMARK                         _______ _______ _______ _____ _____    ______ ____
ROOT
ATOM      1  C   UNL     1      34.816 -19.360 -20.994  0.00  0.00    +0.005 C 
ATOM      2  C   UNL     1      33.681 -20.046 -20.563  0.00  0.00    +0.038 C 
ATOM      3  C   UNL     1      36.083 -19.798 -20.611  0.00  0.00    +0.001 C 
ATOM      4  C   UNL     1      33.814 -21.171 -19.748  0.00  0.00    +0.167 C 
ATOM      5  C   UNL     1      36.216 -20.922 -19.797  0.00  0.00    +0.040 C 
ATOM      6  C   UNL     1      35.082 -21.609 -19.365  0.00  0.00    +0.167 C 
ENDROOT
BRANCH   4   7
ATOM      7  O   UNL     1      32.698 -21.833 -19.334  0.00  0.00    -0.503 OA
ATOM      8  H   UNL     1      32.590 -22.742 -19.537  0.00  0.00    +0.292 HD
ENDBRANCH   4   7
BRANCH   6   9
ATOM      9  O   UNL     1      35.224 -22.706 -18.572  0.00  0.00    -0.503 OA
ATOM     10  H   UNL     1      35.927 -23.307 -18.723  0.00  0.00    +0.292 HD
ENDBRANCH   6   9
BRANCH   1  11
ATOM     11  C   UNL     1      34.674 -18.157 -21.865  0.00  0.00    +0.112 C 
BRANCH  11  12
ATOM     12  O   UNL     1      35.093 -16.998 -21.132  0.00  0.00    -0.382 OA
ATOM     13  H   UNL     1      34.406 -16.753 -20.493  0.00  0.00    +0.211 HD
ENDBRANCH  11  12
BRANCH  11  14
ATOM     14  C   UNL     1      35.503 -18.272 -23.160  0.00  0.00    -0.047 C 
BRANCH  14  15
ATOM     15  N   UNL     1      35.513 -17.015 -23.905  0.00  0.00    +0.384 N 
ATOM     16  C   UNL     1      34.664 -17.106 -25.082  0.00  0.00    -0.106 C 
ATOM     17  H   UNL     1      36.467 -16.805 -24.196  0.00  0.00    -0.085 HD
ATOM     18  H   UNL     1      35.155 -16.274 -23.301  0.00  0.00    -0.085 HD
ENDBRANCH  14  15
ENDBRANCH  11  14
ENDBRANCH   1  11
TORSDOF 6
ENDMDL
MODEL 3
REMARK VINA RESULT:      -6.7      2.765      5.571
REMARK  Name = 5816
REMARK  6 active torsions:
REMARK  status: ('A' for Active; 'I' for Inactive)
REMARK    1  A    between atoms: C_1  and  C_11
REMARK    2  A    between atoms: C_4  and  O_7
REMARK    3  A    between atoms: C_6  and  O_9
REMARK    4  A    between atoms: C_11  and  O_12
REMARK    5  A    between atoms: C_11  and  C_14
REMARK    6  A    between atoms: C_14  and  N_15
REMARK                            x       y       z     vdW  Elec       q    Type
REMARK                         _______ _______ _______ _____ _____    ______ ____
ROOT
ATOM      1  C   UNL     1      34.742 -18.824 -22.532  0.00  0.00    +0.005 C 
ATOM      2  C   UNL     1      34.912 -17.446 -22.399  0.00  0.00    +0.038 C 
ATOM      3  C   UNL     1      34.571 -19.386 -23.797  0.00  0.00    +0.001 C 
ATOM      4  C   UNL     1      34.913 -16.631 -23.530  0.00  0.00    +0.167 C 
ATOM      5  C   UNL     1      34.572 -18.570 -24.928  0.00  0.00    +0.040 C 
ATOM      6  C   UNL     1      34.743 -17.193 -24.796  0.00  0.00    +0.167 C 
ENDROOT
BRANCH   4   7
ATOM      7  O   UNL     1      35.082 -15.286 -23.387  0.00  0.00    -0.503 OA
ATOM      8  H   UNL     1      34.852 -14.868 -22.580  0.00  0.00    +0.292 HD
ENDBRANCH   4   7
BRANCH   6   9
ATOM      9  O   UNL     1      34.744 -16.407 -25.907  0.00  0.00    -0.503 OA
ATOM     10  H   UNL     1      33.942 -16.038 -26.222  0.00  0.00    +0.292 HD
ENDBRANCH   6   9
BRANCH   1  11
ATOM     11  C   UNL     1      34.740 -19.696 -21.322  0.00  0.00    +0.112 C 
BRANCH  11  12
ATOM     12  O   UNL     1      35.774 -19.260 -20.431  0.00  0.00    -0.382 OA
ATOM     13  H   UNL     1      36.580 -19.773 -20.594  0.00  0.00    +0.211 HD
ENDBRANCH  11  12
BRANCH  11  14
ATOM     14  C   UNL     1      33.384 -19.671 -20.587  0.00  0.00    -0.047 C 
BRANCH  14  15
ATOM     15  N   UNL     1      32.852 -21.019 -20.397  0.00  0.00    +0.384 N 
ATOM     16  C   UNL     1      33.562 -21.708 -19.330  0.00  0.00    -0.106 C 
ATOM     17  H   UNL     1      32.958 -21.547 -21.264  0.00  0.00    -0.085 HD
ATOM     18  H   UNL     1      31.867 -20.950 -20.141  0.00  0.00    -0.085 HD
ENDBRANCH  14  15
ENDBRANCH  11  14
ENDBRANCH   1  11
TORSDOF 6
ENDMDL
MODEL 4
REMARK VINA RESULT:      -6.6      1.781      2.637
REMARK  Name = 5816
REMARK  6 active torsions:
REMARK  status: ('A' for Active; 'I' for Inactive)
REMARK    1  A    between atoms: C_1  and  C_11
REMARK    2  A    between atoms: C_4  and  O_7
REMARK    3  A    between atoms: C_6  and  O_9
REMARK    4  A    between atoms: C_11  and  O_12
REMARK    5  A    between atoms: C_11  and  C_14
REMARK    6  A    between atoms: C_14  and  N_15
REMARK                            x       y       z     vdW  Elec       q    Type
REMARK                         _______ _______ _______ _____ _____    ______ ____
ROOT
ATOM      1  C   UNL     1      35.315 -19.653 -20.951  0.00  0.00    +0.005 C 
ATOM      2  C   UNL     1      34.056 -20.170 -20.642  0.00  0.00    +0.038 C 
ATOM      3  C   UNL     1      36.453 -20.179 -20.341  0.00  0.00    +0.001 C 
ATOM      4  C   UNL     1      33.937 -21.214 -19.724  0.00  0.00    +0.167 C 
ATOM      5  C   UNL     1      36.334 -21.222 -19.424  0.00  0.00    +0.040 C 
ATOM      6  C   UNL     1      35.077 -21.741 -19.115  0.00  0.00    +0.167 C 
ENDROOT
BRANCH   4   7
ATOM      7  O   UNL     1      32.703 -21.712 -19.432  0.00  0.00    -0.503 OA
ATOM      8  H   UNL     1      32.585 -22.263 -18.683  0.00  0.00    +0.292 HD
ENDBRANCH   4   7
BRANCH   6   9
ATOM      9  O   UNL     1      34.973 -22.760 -18.219  0.00  0.00    -0.503 OA
ATOM     10  H   UNL     1      34.135 -22.994 -17.869  0.00  0.00    +0.292 HD
ENDBRANCH   6   9
BRANCH   1  11
ATOM     11  C   UNL     1      35.442 -18.536 -21.931  0.00  0.00    +0.112 C 
BRANCH  11  12
ATOM     12  O   UNL     1      35.186 -19.041 -23.249  0.00  0.00    -0.382 OA
ATOM     13  H   UNL     1      35.939 -18.838 -23.825  0.00  0.00    +0.211 HD
ENDBRANCH  11  12
BRANCH  11  14
ATOM     14  C   UNL     1      34.469 -17.379 -21.627  0.00  0.00    -0.047 C 
BRANCH  14  15
ATOM     15  N   UNL     1      34.933 -16.571 -20.501  0.00  0.00    +0.384 N 
ATOM     16  C   UNL     1      34.477 -15.196 -20.631  0.00  0.00    -0.106 C 
ATOM     17  H   UNL     1      35.953 -16.584 -20.476  0.00  0.00    -0.085 HD
ATOM     18  H   UNL     1      34.552 -16.961 -19.639  0.00  0.00    -0.085 HD
ENDBRANCH  14  15
ENDBRANCH  11  14
ENDBRANCH   1  11
TORSDOF 6
ENDMDL
MODEL 5
REMARK VINA RESULT:      -6.5      3.293      4.913
REMARK  Name = 5816
REMARK  6 active torsions:
REMARK  status: ('A' for Active; 'I' for Inactive)
REMARK    1  A    between atoms: C_1  and  C_11
REMARK    2  A    between atoms: C_4  and  O_7
REMARK    3  A    between atoms: C_6  and  O_9
REMARK    4  A    between atoms: C_11  and  O_12
REMARK    5  A    between atoms: C_11  and  C_14
REMARK    6  A    between atoms: C_14  and  N_15
REMARK                            x       y       z     vdW  Elec       q    Type
REMARK                         _______ _______ _______ _____ _____    ______ ____
ROOT
ATOM      1  C   UNL     1      34.596 -16.650 -23.996  0.00  0.00    +0.005 C 
ATOM      2  C   UNL     1      34.552 -15.933 -22.800  0.00  0.00    +0.038 C 
ATOM      3  C   UNL     1      35.067 -17.962 -24.006  0.00  0.00    +0.001 C 
ATOM      4  C   UNL     1      34.979 -16.530 -21.614  0.00  0.00    +0.167 C 
ATOM      5  C   UNL     1      35.493 -18.559 -22.820  0.00  0.00    +0.040 C 
ATOM      6  C   UNL     1      35.449 -17.844 -21.623  0.00  0.00    +0.167 C 
ENDROOT
BRANCH   4   7
ATOM      7  O   UNL     1      34.930 -15.821 -20.451  0.00  0.00    -0.503 OA
ATOM      8  H   UNL     1      35.287 -16.185 -19.665  0.00  0.00    +0.292 HD
ENDBRANCH   4   7
BRANCH   6   9
ATOM      9  O   UNL     1      35.867 -18.437 -20.471  0.00  0.00    -0.503 OA
ATOM     10  H   UNL     1      36.770 -18.663 -20.360  0.00  0.00    +0.292 HD
ENDBRANCH   6   9
BRANCH   1  11
ATOM     11  C   UNL     1      34.141 -16.011 -25.265  0.00  0.00    +0.112 C 
BRANCH  11  12
ATOM     12  O   UNL     1      33.408 -16.973 -26.035  0.00  0.00    -0.382 OA
ATOM     13  H   UNL     1      32.736 -16.519 -26.566  0.00  0.00    +0.211 HD
ENDBRANCH  11  12
BRANCH  11  14
ATOM     14  C   UNL     1      33.254 -14.775 -25.011  0.00  0.00    -0.047 C 
BRANCH  14  15
ATOM     15  N   UNL     1      32.475 -14.421 -26.195  0.00  0.00    +0.384 N 
ATOM     16  C   UNL     1      33.212 -13.491 -27.038  0.00  0.00    -0.106 C 
ATOM     17  H   UNL     1      31.600 -13.986 -25.903  0.00  0.00    -0.085 HD
ATOM     18  H   UNL     1      32.289 -15.269 -26.731  0.00  0.00    -0.085 HD
ENDBRANCH  14  15
ENDBRANCH  11  14
ENDBRANCH   1  11
TORSDOF 6
ENDMDL
MODEL 6
REMARK VINA RESULT:      -6.5      3.183      6.033
REMARK  Name = 5816
REMARK  6 active torsions:
REMARK  status: ('A' for Active; 'I' for Inactive)
REMARK    1  A    between atoms: C_1  and  C_11
REMARK    2  A    between atoms: C_4  and  O_7
REMARK    3  A    between atoms: C_6  and  O_9
REMARK    4  A    between atoms: C_11  and  O_12
REMARK    5  A    between atoms: C_11  and  C_14
REMARK    6  A    between atoms: C_14  and  N_15
REMARK                            x       y       z     vdW  Elec       q    Type
REMARK                         _______ _______ _______ _____ _____    ______ ____
ROOT
ATOM      1  C   UNL     1      35.023 -17.196 -22.752  0.00  0.00    +0.005 C 
ATOM      2  C   UNL     1      34.465 -15.920 -22.843  0.00  0.00    +0.038 C 
ATOM      3  C   UNL     1      35.105 -18.002 -23.886  0.00  0.00    +0.001 C 
ATOM      4  C   UNL     1      33.991 -15.452 -24.068  0.00  0.00    +0.167 C 
ATOM      5  C   UNL     1      34.631 -17.534 -25.111  0.00  0.00    +0.040 C 
ATOM      6  C   UNL     1      34.074 -16.259 -25.203  0.00  0.00    +0.167 C 
ENDROOT
BRANCH   4   7
ATOM      7  O   UNL     1      33.449 -14.204 -24.144  0.00  0.00    -0.503 OA
ATOM      8  H   UNL     1      33.019 -13.834 -23.399  0.00  0.00    +0.292 HD
ENDBRANCH   4   7
BRANCH   6   9
ATOM      9  O   UNL     1      33.615 -15.812 -26.404  0.00  0.00    -0.503 OA
ATOM     10  H   UNL     1      33.144 -16.390 -26.972  0.00  0.00    +0.292 HD
ENDBRANCH   6   9
BRANCH   1  11
ATOM     11  C   UNL     1      35.529 -17.697 -21.442  0.00  0.00    +0.112 C 
BRANCH  11  12
ATOM     12  O   UNL     1      35.196 -16.749 -20.419  0.00  0.00    -0.382 OA
ATOM     13  H   UNL     1      35.988 -16.246 -20.174  0.00  0.00    +0.211 HD
ENDBRANCH  11  12
BRANCH  11  14
ATOM     14  C   UNL     1      34.940 -19.074 -21.076  0.00  0.00    -0.047 C 
BRANCH  14  15
ATOM     15  N   UNL     1      35.878 -19.866 -20.283  0.00  0.00    +0.384 N 
ATOM     16  C   UNL     1      35.243 -21.078 -19.790  0.00  0.00    -0.106 C 
ATOM     17  H   UNL     1      36.199 -19.310 -19.490  0.00  0.00    -0.085 HD
ATOM     18  H   UNL     1      36.667 -20.128 -20.874  0.00  0.00    -0.085 HD
ENDBRANCH  14  15
ENDBRANCH  11  14
ENDBRANCH   1  11
TORSDOF 6
ENDMDL
MODEL 7
REMARK VINA RESULT:      -6.3      3.327      6.186
REMARK  Name = 5816
REMARK  6 active torsions:
REMARK  status: ('A' for Active; 'I' for Inactive)
REMARK    1  A    between atoms: C_1  and  C_11
REMARK    2  A    between atoms: C_4  and  O_7
REMARK    3  A    between atoms: C_6  and  O_9
REMARK    4  A    between atoms: C_11  and  O_12
REMARK    5  A    between atoms: C_11  and  C_14
REMARK    6  A    between atoms: C_14  and  N_15
REMARK                            x       y       z     vdW  Elec       q    Type
REMARK                         _______ _______ _______ _____ _____    ______ ____
ROOT
ATOM      1  C   UNL     1      34.848 -17.207 -23.536  0.00  0.00    +0.005 C 
ATOM      2  C   UNL     1      34.413 -17.055 -24.853  0.00  0.00    +0.038 C 
ATOM      3  C   UNL     1      34.691 -16.162 -22.626  0.00  0.00    +0.001 C 
ATOM      4  C   UNL     1      33.822 -15.859 -25.259  0.00  0.00    +0.167 C 
ATOM      5  C   UNL     1      34.100 -14.966 -23.032  0.00  0.00    +0.040 C 
ATOM      6  C   UNL     1      33.665 -14.814 -24.348  0.00  0.00    +0.167 C 
ENDROOT
BRANCH   4   7
ATOM      7  O   UNL     1      33.401 -15.723 -26.548  0.00  0.00    -0.503 OA
ATOM      8  H   UNL     1      32.532 -15.982 -26.787  0.00  0.00    +0.292 HD
ENDBRANCH   4   7
BRANCH   6   9
ATOM      9  O   UNL     1      33.088 -13.642 -24.733  0.00  0.00    -0.503 OA
ATOM     10  H   UNL     1      32.684 -13.087 -24.096  0.00  0.00    +0.292 HD
ENDBRANCH   6   9
BRANCH   1  11
ATOM     11  C   UNL     1      35.481 -18.486 -23.102  0.00  0.00    +0.112 C 
BRANCH  11  12
ATOM     12  O   UNL     1      36.806 -18.213 -22.629  0.00  0.00    -0.382 OA
ATOM     13  H   UNL     1      37.219 -19.038 -22.329  0.00  0.00    +0.211 HD
ENDBRANCH  11  12
BRANCH  11  14
ATOM     14  C   UNL     1      34.674 -19.190 -21.993  0.00  0.00    -0.047 C 
BRANCH  14  15
ATOM     15  N   UNL     1      35.419 -19.240 -20.737  0.00  0.00    +0.384 N 
ATOM     16  C   UNL     1      35.572 -20.613 -20.282  0.00  0.00    -0.106 C 
ATOM     17  H   UNL     1      34.917 -18.707 -20.027  0.00  0.00    -0.085 HD
ATOM     18  H   UNL     1      36.346 -18.842 -20.890  0.00  0.00    -0.085 HD
ENDBRANCH  14  15
ENDBRANCH  11  14
ENDBRANCH   1  11
TORSDOF 6
ENDMDL
MODEL 8
REMARK VINA RESULT:      -6.2      3.532      6.006
REMARK  Name = 5816
REMARK  6 active torsions:
REMARK  status: ('A' for Active; 'I' for Inactive)
REMARK    1  A    between atoms: C_1  and  C_11
REMARK    2  A    between atoms: C_4  and  O_7
REMARK    3  A    between atoms: C_6  and  O_9
REMARK    4  A    between atoms: C_11  and  O_12
REMARK    5  A    between atoms: C_11  and  C_14
REMARK    6  A    between atoms: C_14  and  N_15
REMARK                            x       y       z     vdW  Elec       q    Type
REMARK                         _______ _______ _______ _____ _____    ______ ____
ROOT
ATOM      1  C   UNL     1      34.356 -21.845 -19.226  0.00  0.00    +0.005 C 
ATOM      2  C   UNL     1      33.642 -20.894 -19.955  0.00  0.00    +0.038 C 
ATOM      3  C   UNL     1      35.748 -21.798 -19.193  0.00  0.00    +0.001 C 
ATOM      4  C   UNL     1      34.323 -19.894 -20.650  0.00  0.00    +0.167 C 
ATOM      5  C   UNL     1      36.429 -20.798 -19.888  0.00  0.00    +0.040 C 
ATOM      6  C   UNL     1      35.717 -19.846 -20.616  0.00  0.00    +0.167 C 
ENDROOT
BRANCH   4   7
ATOM      7  O   UNL     1      33.615 -18.970 -21.358  0.00  0.00    -0.503 OA
ATOM      8  H   UNL     1      34.001 -18.554 -22.103  0.00  0.00    +0.292 HD
ENDBRANCH   4   7
BRANCH   6   9
ATOM      9  O   UNL     1      36.391 -18.874 -21.290  0.00  0.00    -0.503 OA
ATOM     10  H   UNL     1      37.323 -18.808 -21.210  0.00  0.00    +0.292 HD
ENDBRANCH   6   9
BRANCH   1  11
ATOM     11  C   UNL     1      33.628 -22.915 -18.483  0.00  0.00    +0.112 C 
BRANCH  11  12
ATOM     12  O   UNL     1      33.806 -24.162 -19.167  0.00  0.00    -0.382 OA
ATOM     13  H   UNL     1      32.940 -24.519 -19.419  0.00  0.00    +0.211 HD
ENDBRANCH  11  12
BRANCH  11  14
ATOM     14  C   UNL     1      34.119 -23.053 -17.028  0.00  0.00    -0.047 C 
BRANCH  14  15
ATOM     15  N   UNL     1      33.030 -23.423 -16.126  0.00  0.00    +0.384 N 
ATOM     16  C   UNL     1      31.748 -22.991 -16.661  0.00  0.00    -0.106 C 
ATOM     17  H   UNL     1      33.181 -22.981 -15.220  0.00  0.00    -0.085 HD
ATOM     18  H   UNL     1      33.017 -24.439 -16.029  0.00  0.00    -0.085 HD
ENDBRANCH  14  15
ENDBRANCH  11  14
ENDBRANCH   1  11
TORSDOF 6
ENDMDL
MODEL 9
REMARK VINA RESULT:      -6.2     11.946     14.180
REMARK  Name = 5816
REMARK  6 active torsions:
REMARK  status: ('A' for Active; 'I' for Inactive)
REMARK    1  A    between atoms: C_1  and  C_11
REMARK    2  A    between atoms: C_4  and  O_7
REMARK    3  A    between atoms: C_6  and  O_9
REMARK    4  A    between atoms: C_11  and  O_12
REMARK    5  A    between atoms: C_11  and  C_14
REMARK    6  A    between atoms: C_14  and  N_15
REMARK                            x       y       z     vdW  Elec       q    Type
REMARK                         _______ _______ _______ _____ _____    ______ ____
ROOT
ATOM      1  C   UNL     1      32.336  -6.953 -21.788  0.00  0.00    +0.005 C 
ATOM      2  C   UNL     1      31.527  -5.888 -21.390  0.00  0.00    +0.038 C 
ATOM      3  C   UNL     1      32.560  -7.190 -23.143  0.00  0.00    +0.001 C 
ATOM      4  C   UNL     1      30.942  -5.061 -22.349  0.00  0.00    +0.167 C 
ATOM      5  C   UNL     1      31.976  -6.362 -24.102  0.00  0.00    +0.040 C 
ATOM      6  C   UNL     1      31.167  -5.297 -23.706  0.00  0.00    +0.167 C 
ENDROOT
BRANCH   4   7
ATOM      7  O   UNL     1      30.155  -4.024 -21.948  0.00  0.00    -0.503 OA
ATOM      8  H   UNL     1      29.590  -3.599 -22.564  0.00  0.00    +0.292 HD
ENDBRANCH   4   7
BRANCH   6   9
ATOM      9  O   UNL     1      30.603  -4.495 -24.650  0.00  0.00    -0.503 OA
ATOM     10  H   UNL     1      29.827  -4.009 -24.450  0.00  0.00    +0.292 HD
ENDBRANCH   6   9
BRANCH   1  11
ATOM     11  C   UNL     1      32.960  -7.838 -20.763  0.00  0.00    +0.112 C 
BRANCH  11  12
ATOM     12  O   UNL     1      33.131  -7.097 -19.547  0.00  0.00    -0.382 OA
ATOM     13  H   UNL     1      32.805  -7.622 -18.800  0.00  0.00    +0.211 HD
ENDBRANCH  11  12
BRANCH  11  14
ATOM     14  C   UNL     1      32.112  -9.095 -20.483  0.00  0.00    -0.047 C 
BRANCH  14  15
ATOM     15  N   UNL     1      32.388  -9.645 -19.157  0.00  0.00    +0.384 N 
ATOM     16  C   UNL     1      31.496 -10.756 -18.863  0.00  0.00    -0.106 C 
ATOM     17  H   UNL     1      32.256  -8.915 -18.457  0.00  0.00    -0.085 HD
ATOM     18  H   UNL     1      33.350  -9.985 -19.138  0.00  0.00    -0.085 HD
ENDBRANCH  14  15
ENDBRANCH  11  14
ENDBRANCH   1  11
TORSDOF 6
ENDMDL
