MODEL 1
REMARK VINA RESULT:      -8.6      0.000      0.000
REMARK  Name = 5574
REMARK  4 active torsions:
REMARK  status: ('A' for Active; 'I' for Inactive)
REMARK    1  A    between atoms: N_2  and  C_15
REMARK    2  A    between atoms: C_15  and  C_16
REMARK    3  A    between atoms: C_16  and  C_18
REMARK    4  A    between atoms: C_18  and  N_19
REMARK                            x       y       z     vdW  Elec       q    Type
REMARK                         _______ _______ _______ _____ _____    ______ ____
ROOT
ATOM      1  S   UNL     1      33.643 -10.672 -24.268  0.00  0.00    -0.084 S 
ATOM      2  N   UNL     1      32.720 -13.398 -23.089  0.00  0.00    -0.286 N 
ATOM      3  C   UNL     1      32.366 -12.249 -22.336  0.00  0.00    +0.058 C 
ATOM      4  C   UNL     1      33.033 -13.400 -24.472  0.00  0.00    +0.058 C 
ATOM      5  C   UNL     1      32.707 -10.956 -22.779  0.00  0.00    +0.043 C 
ATOM      6  C   UNL     1      33.440 -12.220 -25.126  0.00  0.00    +0.043 C 
ATOM      7  C   UNL     1      31.629 -12.342 -21.135  0.00  0.00    +0.015 C 
ATOM      8  C   UNL     1      32.919 -14.564 -25.263  0.00  0.00    +0.015 C 
ATOM      9  C   UNL     1      32.347  -9.821 -22.031  0.00  0.00    +0.008 C 
ATOM     10  C   UNL     1      33.741 -12.226 -26.501  0.00  0.00    +0.008 C 
ATOM     11  C   UNL     1      31.269 -11.210 -20.398  0.00  0.00    +0.001 C 
ATOM     12  C   UNL     1      33.215 -14.563 -26.628  0.00  0.00    +0.001 C 
ATOM     13  C   UNL     1      31.631  -9.949 -20.844  0.00  0.00    +0.001 C 
ATOM     14  C   UNL     1      33.630 -13.394 -27.247  0.00  0.00    +0.001 C 
ENDROOT
BRANCH   2  15
ATOM     15  C   UNL     1      32.695 -14.693 -22.399  0.00  0.00    +0.093 C 
BRANCH  15  16
ATOM     16  C   UNL     1      34.113 -15.202 -22.081  0.00  0.00    -0.001 C 
ATOM     17  C   UNL     1      34.549 -14.783 -20.673  0.00  0.00    -0.000 C 
BRANCH  16  18
ATOM     18  C   UNL     1      34.273 -16.725 -22.248  0.00  0.00    -0.076 C 
BRANCH  18  19
ATOM     19  N   UNL     1      35.408 -17.065 -23.099  0.00  0.00    +0.384 N 
ATOM     20  C   UNL     1      34.955 -17.422 -24.444  0.00  0.00    -0.101 C 
ATOM     21  C   UNL     1      36.179 -18.164 -22.514  0.00  0.00    -0.101 C 
ATOM     22  H   UNL     1      36.013 -16.247 -23.168  0.00  0.00    -0.080 HD
ENDBRANCH  18  19
ENDBRANCH  16  18
ENDBRANCH  15  16
ENDBRANCH   2  15
TORSDOF 4
ENDMDL
MODEL 2
REMARK VINA RESULT:      -8.0      3.983      7.008
REMARK  Name = 5574
REMARK  4 active torsions:
REMARK  status: ('A' for Active; 'I' for Inactive)
REMARK    1  A    between atoms: N_2  and  C_15
REMARK    2  A    between atoms: C_15  and  C_16
REMARK    3  A    between atoms: C_16  and  C_18
REMARK    4  A    between atoms: C_18  and  N_19
REMARK                            x       y       z     vdW  Elec       q    Type
REMARK                         _______ _______ _______ _____ _____    ______ ____
ROOT
ATOM      1  S   UNL     1      32.244 -11.872 -22.935  0.00  0.00    -0.084 S 
ATOM      2  N   UNL     1      32.915  -8.875 -22.447  0.00  0.00    -0.286 N 
ATOM      3  C   UNL     1      32.318  -9.557 -21.356  0.00  0.00    +0.058 C 
ATOM      4  C   UNL     1      33.614  -9.497 -23.513  0.00  0.00    +0.058 C 
ATOM      5  C   UNL     1      31.988 -10.924 -21.448  0.00  0.00    +0.043 C 
ATOM      6  C   UNL     1      33.413 -10.858 -23.816  0.00  0.00    +0.043 C 
ATOM      7  C   UNL     1      32.059  -8.916 -20.126  0.00  0.00    +0.015 C 
ATOM      8  C   UNL     1      34.563  -8.799 -24.292  0.00  0.00    +0.015 C 
ATOM      9  C   UNL     1      31.403 -11.597 -20.360  0.00  0.00    +0.008 C 
ATOM     10  C   UNL     1      34.116 -11.472 -24.869  0.00  0.00    +0.008 C 
ATOM     11  C   UNL     1      31.481  -9.591 -19.046  0.00  0.00    +0.001 C 
ATOM     12  C   UNL     1      35.261  -9.415 -25.334  0.00  0.00    +0.001 C 
ATOM     13  C   UNL     1      31.150 -10.932 -19.165  0.00  0.00    +0.001 C 
ATOM     14  C   UNL     1      35.035 -10.752 -25.625  0.00  0.00    +0.001 C 
ENDROOT
BRANCH   2  15
ATOM     15  C   UNL     1      32.863  -7.408 -22.437  0.00  0.00    +0.093 C 
BRANCH  15  16
ATOM     16  C   UNL     1      31.470  -6.879 -22.822  0.00  0.00    -0.001 C 
ATOM     17  C   UNL     1      31.043  -5.725 -21.908  0.00  0.00    -0.000 C 
BRANCH  16  18
ATOM     18  C   UNL     1      31.360  -6.448 -24.297  0.00  0.00    -0.076 C 
BRANCH  18  19
ATOM     19  N   UNL     1      32.157  -5.259 -24.579  0.00  0.00    +0.384 N 
ATOM     20  C   UNL     1      31.307  -4.173 -25.068  0.00  0.00    -0.101 C 
ATOM     21  C   UNL     1      33.206  -5.562 -25.556  0.00  0.00    -0.101 C 
ATOM     22  H   UNL     1      32.601  -4.958 -23.712  0.00  0.00    -0.080 HD
ENDBRANCH  18  19
ENDBRANCH  16  18
ENDBRANCH  15  16
ENDBRANCH   2  15
TORSDOF 4
ENDMDL
MODEL 3
REMARK VINA RESULT:      -8.0      3.067      6.017
REMARK  Name = 5574
REMARK  4 active torsions:
REMARK  status: ('A' for Active; 'I' for Inactive)
REMARK    1  A    between atoms: N_2  and  C_15
REMARK    2  A    between atoms: C_15  and  C_16
REMARK    3  A    between atoms: C_16  and  C_18
REMARK    4  A    between atoms: C_18  and  N_19
REMARK                            x       y       z     vdW  Elec       q    Type
REMARK                         _______ _______ _______ _____ _____    ______ ____
ROOT
ATOM      1  S   UNL     1      32.278  -7.273 -20.162  0.00  0.00    -0.084 S 
ATOM      2  N   UNL     1      31.979  -8.797 -22.856  0.00  0.00    -0.286 N 
ATOM      3  C   UNL     1      31.875  -9.591 -21.685  0.00  0.00    +0.058 C 
ATOM      4  C   UNL     1      31.761  -7.397 -22.913  0.00  0.00    +0.058 C 
ATOM      5  C   UNL     1      31.970  -9.011 -20.405  0.00  0.00    +0.043 C 
ATOM      6  C   UNL     1      31.845  -6.601 -21.754  0.00  0.00    +0.043 C 
ATOM      7  C   UNL     1      31.636 -10.981 -21.744  0.00  0.00    +0.015 C 
ATOM      8  C   UNL     1      31.417  -6.742 -24.116  0.00  0.00    +0.015 C 
ATOM      9  C   UNL     1      31.859  -9.803 -19.247  0.00  0.00    +0.008 C 
ATOM     10  C   UNL     1      31.619  -5.214 -21.814  0.00  0.00    +0.008 C 
ATOM     11  C   UNL     1      31.522 -11.762 -20.590  0.00  0.00    +0.001 C 
ATOM     12  C   UNL     1      31.190  -5.364 -24.170  0.00  0.00    +0.001 C 
ATOM     13  C   UNL     1      31.636 -11.173 -19.341  0.00  0.00    +0.001 C 
ATOM     14  C   UNL     1      31.295  -4.599 -23.019  0.00  0.00    +0.001 C 
ENDROOT
BRANCH   2  15
ATOM     15  C   UNL     1      32.268  -9.488 -24.118  0.00  0.00    +0.093 C 
BRANCH  15  16
ATOM     16  C   UNL     1      33.781  -9.587 -24.385  0.00  0.00    -0.001 C 
ATOM     17  C   UNL     1      34.552  -8.507 -23.618  0.00  0.00    -0.000 C 
BRANCH  16  18
ATOM     18  C   UNL     1      34.373 -10.975 -24.073  0.00  0.00    -0.076 C 
BRANCH  18  19
ATOM     19  N   UNL     1      33.561 -12.052 -24.630  0.00  0.00    +0.384 N 
ATOM     20  C   UNL     1      33.830 -13.312 -23.935  0.00  0.00    -0.101 C 
ATOM     21  C   UNL     1      33.815 -12.199 -26.064  0.00  0.00    -0.101 C 
ATOM     22  H   UNL     1      32.579 -11.814 -24.498  0.00  0.00    -0.080 HD
ENDBRANCH  18  19
ENDBRANCH  16  18
ENDBRANCH  15  16
ENDBRANCH   2  15
TORSDOF 4
ENDMDL
MODEL 4
REMARK VINA RESULT:      -8.0     10.872     13.620
REMARK  Name = 5574
REMARK  4 active torsions:
REMARK  status: ('A' for Active; 'I' for Inactive)
REMARK    1  A    between atoms: N_2  and  C_15
REMARK    2  A    between atoms: C_15  and  C_16
REMARK    3  A    between atoms: C_16  and  C_18
REMARK    4  A    between atoms: C_18  and  N_19
REMARK                            x       y       z     vdW  Elec       q    Type
REMARK                         _______ _______ _______ _____ _____    ______ ____
ROOT
ATOM      1  S   UNL     1      33.131 -23.258 -17.709  0.00  0.00    -0.084 S 
ATOM      2  N   UNL     1      34.632 -23.252 -14.985  0.00  0.00    -0.286 N 
ATOM      3  C   UNL     1      35.340 -22.691 -16.079  0.00  0.00    +0.058 C 
ATOM      4  C   UNL     1      33.222 -23.388 -14.911  0.00  0.00    +0.058 C 
ATOM      5  C   UNL     1      34.756 -22.617 -17.360  0.00  0.00    +0.043 C 
ATOM      6  C   UNL     1      32.430 -23.381 -16.076  0.00  0.00    +0.043 C 
ATOM      7  C   UNL     1      36.637 -22.154 -15.934  0.00  0.00    +0.015 C 
ATOM      8  C   UNL     1      32.546 -23.501 -13.677  0.00  0.00    +0.015 C 
ATOM      9  C   UNL     1      35.461 -22.053 -18.439  0.00  0.00    +0.008 C 
ATOM     10  C   UNL     1      31.031 -23.509 -15.996  0.00  0.00    +0.008 C 
ATOM     11  C   UNL     1      37.330 -21.591 -17.009  0.00  0.00    +0.001 C 
ATOM     12  C   UNL     1      31.156 -23.623 -13.603  0.00  0.00    +0.001 C 
ATOM     13  C   UNL     1      36.743 -21.543 -18.263  0.00  0.00    +0.001 C 
ATOM     14  C   UNL     1      30.398 -23.630 -14.764  0.00  0.00    +0.001 C 
ENDROOT
BRANCH   2  15
ATOM     15  C   UNL     1      35.413 -23.659 -13.812  0.00  0.00    +0.093 C 
BRANCH  15  16
ATOM     16  C   UNL     1      35.713 -25.169 -13.817  0.00  0.00    -0.001 C 
ATOM     17  C   UNL     1      35.945 -25.684 -15.242  0.00  0.00    -0.000 C 
BRANCH  16  18
ATOM     18  C   UNL     1      36.899 -25.565 -12.916  0.00  0.00    -0.076 C 
BRANCH  18  19
ATOM     19  N   UNL     1      38.047 -24.684 -13.106  0.00  0.00    +0.384 N 
ATOM     20  C   UNL     1      39.222 -25.451 -13.520  0.00  0.00    -0.101 C 
ATOM     21  C   UNL     1      38.332 -23.939 -11.878  0.00  0.00    -0.101 C 
ATOM     22  H   UNL     1      37.819 -24.016 -13.843  0.00  0.00    -0.080 HD
ENDBRANCH  18  19
ENDBRANCH  16  18
ENDBRANCH  15  16
ENDBRANCH   2  15
TORSDOF 4
ENDMDL
MODEL 5
REMARK VINA RESULT:      -7.7      2.353      6.626
REMARK  Name = 5574
REMARK  4 active torsions:
REMARK  status: ('A' for Active; 'I' for Inactive)
REMARK    1  A    between atoms: N_2  and  C_15
REMARK    2  A    between atoms: C_15  and  C_16
REMARK    3  A    between atoms: C_16  and  C_18
REMARK    4  A    between atoms: C_18  and  N_19
REMARK                            x       y       z     vdW  Elec       q    Type
REMARK                         _______ _______ _______ _____ _____    ______ ____
ROOT
ATOM      1  S   UNL     1      33.261 -14.282 -22.083  0.00  0.00    -0.084 S 
ATOM      2  N   UNL     1      32.949 -11.697 -23.782  0.00  0.00    -0.286 N 
ATOM      3  C   UNL     1      33.155 -12.894 -24.515  0.00  0.00    +0.058 C 
ATOM      4  C   UNL     1      32.443 -11.629 -22.459  0.00  0.00    +0.058 C 
ATOM      5  C   UNL     1      33.288 -14.133 -23.858  0.00  0.00    +0.043 C 
ATOM      6  C   UNL     1      32.505 -12.743 -21.600  0.00  0.00    +0.043 C 
ATOM      7  C   UNL     1      33.201 -12.908 -25.926  0.00  0.00    +0.015 C 
ATOM      8  C   UNL     1      31.826 -10.464 -21.953  0.00  0.00    +0.015 C 
ATOM      9  C   UNL     1      33.485 -15.318 -24.591  0.00  0.00    +0.008 C 
ATOM     10  C   UNL     1      31.994 -12.673 -20.291  0.00  0.00    +0.008 C 
ATOM     11  C   UNL     1      33.392 -14.088 -26.649  0.00  0.00    +0.001 C 
ATOM     12  C   UNL     1      31.317 -10.400 -20.654  0.00  0.00    +0.001 C 
ATOM     13  C   UNL     1      33.537 -15.294 -25.981  0.00  0.00    +0.001 C 
ATOM     14  C   UNL     1      31.404 -11.505 -19.820  0.00  0.00    +0.001 C 
ENDROOT
BRANCH   2  15
ATOM     15  C   UNL     1      33.215 -10.428 -24.471  0.00  0.00    +0.093 C 
BRANCH  15  16
ATOM     16  C   UNL     1      34.671  -9.967 -24.283  0.00  0.00    -0.001 C 
ATOM     17  C   UNL     1      35.513 -10.268 -25.528  0.00  0.00    -0.000 C 
BRANCH  16  18
ATOM     18  C   UNL     1      34.803  -8.479 -23.907  0.00  0.00    -0.076 C 
BRANCH  18  19
ATOM     19  N   UNL     1      33.518  -7.891 -23.547  0.00  0.00    +0.384 N 
ATOM     20  C   UNL     1      33.262  -6.687 -24.338  0.00  0.00    -0.101 C 
ATOM     21  C   UNL     1      33.478  -7.577 -22.117  0.00  0.00    -0.101 C 
ATOM     22  H   UNL     1      32.786  -8.572 -23.748  0.00  0.00    -0.080 HD
ENDBRANCH  18  19
ENDBRANCH  16  18
ENDBRANCH  15  16
ENDBRANCH   2  15
TORSDOF 4
ENDMDL
MODEL 6
REMARK VINA RESULT:      -7.5      1.862      4.748
REMARK  Name = 5574
REMARK  4 active torsions:
REMARK  status: ('A' for Active; 'I' for Inactive)
REMARK    1  A    between atoms: N_2  and  C_15
REMARK    2  A    between atoms: C_15  and  C_16
REMARK    3  A    between atoms: C_16  and  C_18
REMARK    4  A    between atoms: C_18  and  N_19
REMARK                            x       y       z     vdW  Elec       q    Type
REMARK                         _______ _______ _______ _____ _____    ______ ____
ROOT
ATOM      1  S   UNL     1      32.663  -8.305 -22.397  0.00  0.00    -0.084 S 
ATOM      2  N   UNL     1      32.645 -11.396 -22.733  0.00  0.00    -0.286 N 
ATOM      3  C   UNL     1      33.486 -10.684 -23.627  0.00  0.00    +0.058 C 
ATOM      4  C   UNL     1      32.192 -10.911 -21.480  0.00  0.00    +0.058 C 
ATOM      5  C   UNL     1      33.597  -9.282 -23.558  0.00  0.00    +0.043 C 
ATOM      6  C   UNL     1      32.176  -9.530 -21.199  0.00  0.00    +0.043 C 
ATOM      7  C   UNL     1      34.274 -11.343 -24.596  0.00  0.00    +0.015 C 
ATOM      8  C   UNL     1      31.772 -11.779 -20.450  0.00  0.00    +0.015 C 
ATOM      9  C   UNL     1      34.438  -8.582 -24.442  0.00  0.00    +0.008 C 
ATOM     10  C   UNL     1      31.733  -9.054 -19.951  0.00  0.00    +0.008 C 
ATOM     11  C   UNL     1      35.112 -10.643 -25.469  0.00  0.00    +0.001 C 
ATOM     12  C   UNL     1      31.337 -11.302 -19.210  0.00  0.00    +0.001 C 
ATOM     13  C   UNL     1      35.192  -9.262 -25.394  0.00  0.00    +0.001 C 
ATOM     14  C   UNL     1      31.314  -9.938 -18.962  0.00  0.00    +0.001 C 
ENDROOT
BRANCH   2  15
ATOM     15  C   UNL     1      32.271 -12.766 -23.103  0.00  0.00    +0.093 C 
BRANCH  15  16
ATOM     16  C   UNL     1      33.255 -13.804 -22.534  0.00  0.00    -0.001 C 
ATOM     17  C   UNL     1      32.514 -14.930 -21.804  0.00  0.00    -0.000 C 
BRANCH  16  18
ATOM     18  C   UNL     1      34.203 -14.400 -23.593  0.00  0.00    -0.076 C 
BRANCH  18  19
ATOM     19  N   UNL     1      33.545 -15.422 -24.401  0.00  0.00    +0.384 N 
ATOM     20  C   UNL     1      34.408 -16.595 -24.550  0.00  0.00    -0.101 C 
ATOM     21  C   UNL     1      33.183 -14.886 -25.714  0.00  0.00    -0.101 C 
ATOM     22  H   UNL     1      32.691 -15.708 -23.922  0.00  0.00    -0.080 HD
ENDBRANCH  18  19
ENDBRANCH  16  18
ENDBRANCH  15  16
ENDBRANCH   2  15
TORSDOF 4
ENDMDL
MODEL 7
REMARK VINA RESULT:      -7.5      8.309     11.495
REMARK  Name = 5574
REMARK  4 active torsions:
REMARK  status: ('A' for Active; 'I' for Inactive)
REMARK    1  A    between atoms: N_2  and  C_15
REMARK    2  A    between atoms: C_15  and  C_16
REMARK    3  A    between atoms: C_16  and  C_18
REMARK    4  A    between atoms: C_18  and  N_19
REMARK                            x       y       z     vdW  Elec       q    Type
REMARK                         _______ _______ _______ _____ _____    ______ ____
ROOT
ATOM      1  S   UNL     1      36.830 -21.388 -18.961  0.00  0.00    -0.084 S 
ATOM      2  N   UNL     1      34.143 -22.569 -17.934  0.00  0.00    -0.286 N 
ATOM      3  C   UNL     1      35.237 -22.656 -17.036  0.00  0.00    +0.058 C 
ATOM      4  C   UNL     1      34.040 -21.644 -19.004  0.00  0.00    +0.058 C 
ATOM      5  C   UNL     1      36.501 -22.136 -17.378  0.00  0.00    +0.043 C 
ATOM      6  C   UNL     1      35.185 -21.023 -19.540  0.00  0.00    +0.043 C 
ATOM      7  C   UNL     1      35.107 -23.232 -15.753  0.00  0.00    +0.015 C 
ATOM      8  C   UNL     1      32.794 -21.276 -19.557  0.00  0.00    +0.015 C 
ATOM      9  C   UNL     1      37.581 -22.220 -16.480  0.00  0.00    +0.008 C 
ATOM     10  C   UNL     1      35.077 -20.100 -20.597  0.00  0.00    +0.008 C 
ATOM     11  C   UNL     1      36.182 -23.308 -14.863  0.00  0.00    +0.001 C 
ATOM     12  C   UNL     1      32.691 -20.356 -20.603  0.00  0.00    +0.001 C 
ATOM     13  C   UNL     1      37.420 -22.804 -15.228  0.00  0.00    +0.001 C 
ATOM     14  C   UNL     1      33.834 -19.769 -21.126  0.00  0.00    +0.001 C 
ENDROOT
BRANCH   2  15
ATOM     15  C   UNL     1      33.000 -23.458 -17.696  0.00  0.00    +0.093 C 
BRANCH  15  16
ATOM     16  C   UNL     1      32.169 -23.011 -16.479  0.00  0.00    -0.001 C 
ATOM     17  C   UNL     1      30.772 -22.542 -16.904  0.00  0.00    -0.000 C 
BRANCH  16  18
ATOM     18  C   UNL     1      32.050 -24.088 -15.385  0.00  0.00    -0.076 C 
BRANCH  18  19
ATOM     19  N   UNL     1      30.729 -24.094 -14.765  0.00  0.00    +0.384 N 
ATOM     20  C   UNL     1      30.812 -23.660 -13.370  0.00  0.00    -0.101 C 
ATOM     21  C   UNL     1      30.127 -25.427 -14.848  0.00  0.00    -0.101 C 
ATOM     22  H   UNL     1      30.134 -23.440 -15.273  0.00  0.00    -0.080 HD
ENDBRANCH  18  19
ENDBRANCH  16  18
ENDBRANCH  15  16
ENDBRANCH   2  15
TORSDOF 4
ENDMDL
MODEL 8
REMARK VINA RESULT:      -7.5      1.993      6.157
REMARK  Name = 5574
REMARK  4 active torsions:
REMARK  status: ('A' for Active; 'I' for Inactive)
REMARK    1  A    between atoms: N_2  and  C_15
REMARK    2  A    between atoms: C_15  and  C_16
REMARK    3  A    between atoms: C_16  and  C_18
REMARK    4  A    between atoms: C_18  and  N_19
REMARK                            x       y       z     vdW  Elec       q    Type
REMARK                         _______ _______ _______ _____ _____    ______ ____
ROOT
ATOM      1  S   UNL     1      34.705 -15.195 -21.400  0.00  0.00    -0.084 S 
ATOM      2  N   UNL     1      33.142 -14.390 -23.964  0.00  0.00    -0.286 N 
ATOM      3  C   UNL     1      33.825 -15.631 -24.025  0.00  0.00    +0.058 C 
ATOM      4  C   UNL     1      32.744 -13.736 -22.771  0.00  0.00    +0.058 C 
ATOM      5  C   UNL     1      34.550 -16.115 -22.918  0.00  0.00    +0.043 C 
ATOM      6  C   UNL     1      33.361 -14.033 -21.540  0.00  0.00    +0.043 C 
ATOM      7  C   UNL     1      33.785 -16.452 -25.173  0.00  0.00    +0.015 C 
ATOM      8  C   UNL     1      31.696 -12.790 -22.750  0.00  0.00    +0.015 C 
ATOM      9  C   UNL     1      35.221 -17.350 -22.981  0.00  0.00    +0.008 C 
ATOM     10  C   UNL     1      32.958 -13.388 -20.357  0.00  0.00    +0.008 C 
ATOM     11  C   UNL     1      34.449 -17.680 -25.229  0.00  0.00    +0.001 C 
ATOM     12  C   UNL     1      31.296 -12.155 -21.571  0.00  0.00    +0.001 C 
ATOM     13  C   UNL     1      35.170 -18.128 -24.133  0.00  0.00    +0.001 C 
ATOM     14  C   UNL     1      31.930 -12.451 -20.374  0.00  0.00    +0.001 C 
ENDROOT
BRANCH   2  15
ATOM     15  C   UNL     1      32.755 -13.768 -25.237  0.00  0.00    +0.093 C 
BRANCH  15  16
ATOM     16  C   UNL     1      33.880 -12.887 -25.810  0.00  0.00    -0.001 C 
ATOM     17  C   UNL     1      34.026 -13.089 -27.323  0.00  0.00    -0.000 C 
BRANCH  16  18
ATOM     18  C   UNL     1      33.710 -11.389 -25.495  0.00  0.00    -0.076 C 
BRANCH  18  19
ATOM     19  N   UNL     1      34.942 -10.794 -24.989  0.00  0.00    +0.384 N 
ATOM     20  C   UNL     1      34.645  -9.712 -24.049  0.00  0.00    -0.101 C 
ATOM     21  C   UNL     1      35.764 -10.295 -26.094  0.00  0.00    -0.101 C 
ATOM     22  H   UNL     1      35.468 -11.515 -24.497  0.00  0.00    -0.080 HD
ENDBRANCH  18  19
ENDBRANCH  16  18
ENDBRANCH  15  16
ENDBRANCH   2  15
TORSDOF 4
ENDMDL
MODEL 9
REMARK VINA RESULT:      -7.3      2.108      5.834
REMARK  Name = 5574
REMARK  4 active torsions:
REMARK  status: ('A' for Active; 'I' for Inactive)
REMARK    1  A    between atoms: N_2  and  C_15
REMARK    2  A    between atoms: C_15  and  C_16
REMARK    3  A    between atoms: C_16  and  C_18
REMARK    4  A    between atoms: C_18  and  N_19
REMARK                            x       y       z     vdW  Elec       q    Type
REMARK                         _______ _______ _______ _____ _____    ______ ____
ROOT
ATOM      1  S   UNL     1      34.740 -17.345 -25.266  0.00  0.00    -0.084 S 
ATOM      2  N   UNL     1      34.119 -15.595 -22.771  0.00  0.00    -0.286 N 
ATOM      3  C   UNL     1      33.672 -15.077 -24.013  0.00  0.00    +0.058 C 
ATOM      4  C   UNL     1      34.397 -16.961 -22.511  0.00  0.00    +0.058 C 
ATOM      5  C   UNL     1      33.874 -15.789 -25.212  0.00  0.00    +0.043 C 
ATOM      6  C   UNL     1      34.669 -17.860 -23.562  0.00  0.00    +0.043 C 
ATOM      7  C   UNL     1      32.978 -13.851 -24.105  0.00  0.00    +0.015 C 
ATOM      8  C   UNL     1      34.379 -17.492 -21.203  0.00  0.00    +0.015 C 
ATOM      9  C   UNL     1      33.421 -15.273 -26.440  0.00  0.00    +0.008 C 
ATOM     10  C   UNL     1      34.936 -19.216 -23.299  0.00  0.00    +0.008 C 
ATOM     11  C   UNL     1      32.526 -13.346 -25.327  0.00  0.00    +0.001 C 
ATOM     12  C   UNL     1      34.640 -18.841 -20.948  0.00  0.00    +0.001 C 
ATOM     13  C   UNL     1      32.751 -14.055 -26.496  0.00  0.00    +0.001 C 
ATOM     14  C   UNL     1      34.922 -19.703 -21.996  0.00  0.00    +0.001 C 
ENDROOT
BRANCH   2  15
ATOM     15  C   UNL     1      34.239 -14.656 -21.650  0.00  0.00    +0.093 C 
BRANCH  15  16
ATOM     16  C   UNL     1      32.862 -14.213 -21.122  0.00  0.00    -0.001 C 
ATOM     17  C   UNL     1      32.355 -15.164 -20.032  0.00  0.00    -0.000 C 
BRANCH  16  18
ATOM     18  C   UNL     1      32.837 -12.762 -20.606  0.00  0.00    -0.076 C 
BRANCH  18  19
ATOM     19  N   UNL     1      31.537 -12.132 -20.809  0.00  0.00    +0.384 N 
ATOM     20  C   UNL     1      31.495 -11.442 -22.099  0.00  0.00    -0.101 C 
ATOM     21  C   UNL     1      31.242 -11.197 -19.722  0.00  0.00    -0.101 C 
ATOM     22  H   UNL     1      30.824 -12.862 -20.810  0.00  0.00    -0.080 HD
ENDBRANCH  18  19
ENDBRANCH  16  18
ENDBRANCH  15  16
ENDBRANCH   2  15
TORSDOF 4
ENDMDL
