MODEL 1
REMARK VINA RESULT:      -8.9      0.000      0.000
REMARK  Name = 122671
REMARK  5 active torsions:
REMARK  status: ('A' for Active; 'I' for Inactive)
REMARK    1  A    between atoms: C_2  and  C_10
REMARK    2  A    between atoms: C_3  and  O_18
REMARK    3  A    between atoms: C_4  and  O_20
REMARK    4  A    between atoms: C_5  and  C_22
REMARK    5  A    between atoms: C_22  and  O_23
REMARK                            x       y       z     vdW  Elec       q    Type
REMARK                         _______ _______ _______ _____ _____    ______ ____
ROOT
ATOM      1  O   UNL     1      34.905 -17.088 -20.723  0.00  0.00    -0.347 OA
ATOM      2  C   UNL     1      34.888 -18.268 -21.558  0.00  0.00    +0.169 C 
ATOM      3  C   UNL     1      34.185 -17.852 -22.847  0.00  0.00    +0.171 C 
ATOM      4  C   UNL     1      34.560 -16.388 -22.967  0.00  0.00    +0.169 C 
ATOM      5  C   UNL     1      34.556 -15.931 -21.514  0.00  0.00    +0.174 C 
ENDROOT
BRANCH   2  10
ATOM      6  O   UNL     1      33.340 -23.236 -18.408  0.00  0.00    -0.221 OA
ATOM      7  N   UNL     1      32.719 -20.938 -20.205  0.00  0.00    -0.302 N 
ATOM      8  N   UNL     1      36.128 -20.516 -19.641  0.00  0.00    -0.311 N 
ATOM      9  N   UNL     1      35.527 -22.498 -18.379  0.00  0.00    -0.179 NA
ATOM     10  C   UNL     1      34.241 -19.446 -20.883  0.00  0.00    +0.037 C 
ATOM     11  C   UNL     1      34.853 -20.396 -20.049  0.00  0.00    +0.071 C 
ATOM     12  C   UNL     1      32.911 -19.805 -20.964  0.00  0.00    +0.062 C 
ATOM     13  C   UNL     1      33.909 -21.309 -19.638  0.00  0.00    +0.146 C 
ATOM     14  C   UNL     1      34.190 -22.429 -18.767  0.00  0.00    +0.167 C 
ATOM     15  C   UNL     1      36.360 -21.595 -18.812  0.00  0.00    +0.229 C 
ATOM     16  H   UNL     1      31.861 -21.407 -20.088  0.00  0.00    +0.153 HD
ATOM     17  H   UNL     1      36.837 -19.888 -19.910  0.00  0.00    +0.149 HD
ENDBRANCH   2  10
BRANCH   3  18
ATOM     18  O   UNL     1      34.612 -18.621 -23.955  0.00  0.00    -0.379 OA
ATOM     19  H   UNL     1      34.031 -19.390 -24.058  0.00  0.00    +0.211 HD
ENDBRANCH   3  18
BRANCH   4  20
ATOM     20  O   UNL     1      35.874 -16.244 -23.504  0.00  0.00    -0.379 OA
ATOM     21  H   UNL     1      35.830 -15.755 -24.341  0.00  0.00    +0.211 HD
ENDBRANCH   4  20
BRANCH   5  22
ATOM     22  C   UNL     1      33.195 -15.430 -21.052  0.00  0.00    +0.169 C 
BRANCH  22  23
ATOM     23  O   UNL     1      32.502 -14.903 -22.171  0.00  0.00    -0.379 OA
ATOM     24  H   UNL     1      32.656 -15.470 -22.943  0.00  0.00    +0.211 HD
ENDBRANCH  22  23
ENDBRANCH   5  22
TORSDOF 5
ENDMDL
MODEL 2
REMARK VINA RESULT:      -8.6      5.313      9.283
REMARK  Name = 122671
REMARK  5 active torsions:
REMARK  status: ('A' for Active; 'I' for Inactive)
REMARK    1  A    between atoms: C_2  and  C_10
REMARK    2  A    between atoms: C_3  and  O_18
REMARK    3  A    between atoms: C_4  and  O_20
REMARK    4  A    between atoms: C_5  and  C_22
REMARK    5  A    between atoms: C_22  and  O_23
REMARK                            x       y       z     vdW  Elec       q    Type
REMARK                         _______ _______ _______ _____ _____    ______ ____
ROOT
ATOM      1  O   UNL     1      37.411 -23.278 -13.817  0.00  0.00    -0.347 OA
ATOM      2  C   UNL     1      36.017 -23.496 -13.501  0.00  0.00    +0.169 C 
ATOM      3  C   UNL     1      35.957 -24.857 -12.812  0.00  0.00    +0.171 C 
ATOM      4  C   UNL     1      37.300 -24.928 -12.111  0.00  0.00    +0.169 C 
ATOM      5  C   UNL     1      38.224 -24.238 -13.107  0.00  0.00    +0.174 C 
ENDROOT
BRANCH   2  10
ATOM      6  O   UNL     1      33.357 -22.664 -18.908  0.00  0.00    -0.221 OA
ATOM      7  N   UNL     1      33.350 -23.550 -16.060  0.00  0.00    -0.302 N 
ATOM      8  N   UNL     1      36.610 -22.392 -16.450  0.00  0.00    -0.311 N 
ATOM      9  N   UNL     1      35.564 -22.054 -18.612  0.00  0.00    -0.179 NA
ATOM     10  C   UNL     1      35.128 -23.403 -14.710  0.00  0.00    +0.037 C 
ATOM     11  C   UNL     1      35.460 -22.904 -15.980  0.00  0.00    +0.071 C 
ATOM     12  C   UNL     1      33.807 -23.800 -14.785  0.00  0.00    +0.062 C 
ATOM     13  C   UNL     1      34.360 -22.998 -16.802  0.00  0.00    +0.146 C 
ATOM     14  C   UNL     1      34.343 -22.575 -18.185  0.00  0.00    +0.167 C 
ATOM     15  C   UNL     1      36.558 -21.999 -17.772  0.00  0.00    +0.229 C 
ATOM     16  H   UNL     1      32.440 -23.737 -16.385  0.00  0.00    +0.153 HD
ATOM     17  H   UNL     1      37.421 -22.304 -15.898  0.00  0.00    +0.149 HD
ENDBRANCH   2  10
BRANCH   3  18
ATOM     18  O   UNL     1      34.866 -24.949 -11.918  0.00  0.00    -0.379 OA
ATOM     19  H   UNL     1      35.112 -24.557 -11.066  0.00  0.00    +0.211 HD
ENDBRANCH   3  18
BRANCH   4  20
ATOM     20  O   UNL     1      37.277 -24.185 -10.894  0.00  0.00    -0.379 OA
ATOM     21  H   UNL     1      36.863 -24.717 -10.196  0.00  0.00    +0.211 HD
ENDBRANCH   4  20
BRANCH   5  22
ATOM     22  C   UNL     1      38.828 -25.197 -14.122  0.00  0.00    +0.169 C 
BRANCH  22  23
ATOM     23  O   UNL     1      38.645 -24.657 -15.420  0.00  0.00    -0.379 OA
ATOM     24  H   UNL     1      37.924 -24.009 -15.401  0.00  0.00    +0.211 HD
ENDBRANCH  22  23
ENDBRANCH   5  22
TORSDOF 5
ENDMDL
MODEL 3
REMARK VINA RESULT:      -8.6      6.105      8.369
REMARK  Name = 122671
REMARK  5 active torsions:
REMARK  status: ('A' for Active; 'I' for Inactive)
REMARK    1  A    between atoms: C_2  and  C_10
REMARK    2  A    between atoms: C_3  and  O_18
REMARK    3  A    between atoms: C_4  and  O_20
REMARK    4  A    between atoms: C_5  and  C_22
REMARK    5  A    between atoms: C_22  and  O_23
REMARK                            x       y       z     vdW  Elec       q    Type
REMARK                         _______ _______ _______ _____ _____    ______ ____
ROOT
ATOM      1  O   UNL     1      35.011 -24.793 -14.988  0.00  0.00    -0.347 OA
ATOM      2  C   UNL     1      35.100 -23.868 -16.096  0.00  0.00    +0.169 C 
ATOM      3  C   UNL     1      35.981 -22.722 -15.606  0.00  0.00    +0.171 C 
ATOM      4  C   UNL     1      36.916 -23.418 -14.638  0.00  0.00    +0.169 C 
ATOM      5  C   UNL     1      36.006 -24.458 -13.996  0.00  0.00    +0.174 C 
ENDROOT
BRANCH   2  10
ATOM      6  O   UNL     1      29.278 -22.354 -17.001  0.00  0.00    -0.221 OA
ATOM      7  N   UNL     1      32.119 -22.599 -17.875  0.00  0.00    -0.302 N 
ATOM      8  N   UNL     1      32.252 -23.844 -14.628  0.00  0.00    -0.311 N 
ATOM      9  N   UNL     1      29.926 -23.245 -14.973  0.00  0.00    -0.179 NA
ATOM     10  C   UNL     1      33.750 -23.414 -16.581  0.00  0.00    +0.037 C 
ATOM     11  C   UNL     1      32.537 -23.434 -15.875  0.00  0.00    +0.071 C 
ATOM     12  C   UNL     1      33.464 -22.889 -17.825  0.00  0.00    +0.062 C 
ATOM     13  C   UNL     1      31.540 -22.931 -16.680  0.00  0.00    +0.146 C 
ATOM     14  C   UNL     1      30.157 -22.803 -16.275  0.00  0.00    +0.167 C 
ATOM     15  C   UNL     1      30.924 -23.709 -14.275  0.00  0.00    +0.229 C 
ATOM     16  H   UNL     1      31.648 -22.214 -18.650  0.00  0.00    +0.153 HD
ATOM     17  H   UNL     1      32.932 -24.212 -14.017  0.00  0.00    +0.149 HD
ENDBRANCH   2  10
BRANCH   3  18
ATOM     18  O   UNL     1      36.665 -22.089 -16.671  0.00  0.00    -0.379 OA
ATOM     19  H   UNL     1      37.246 -22.730 -17.108  0.00  0.00    +0.211 HD
ENDBRANCH   3  18
BRANCH   4  20
ATOM     20  O   UNL     1      37.970 -24.080 -15.337  0.00  0.00    -0.379 OA
ATOM     21  H   UNL     1      37.756 -25.022 -15.429  0.00  0.00    +0.211 HD
ENDBRANCH   4  20
BRANCH   5  22
ATOM     22  C   UNL     1      35.289 -23.939 -12.758  0.00  0.00    +0.169 C 
BRANCH  22  23
ATOM     23  O   UNL     1      34.133 -24.728 -12.539  0.00  0.00    -0.379 OA
ATOM     24  H   UNL     1      33.346 -24.161 -12.557  0.00  0.00    +0.211 HD
ENDBRANCH  22  23
ENDBRANCH   5  22
TORSDOF 5
ENDMDL
MODEL 4
REMARK VINA RESULT:      -8.4      4.640      9.187
REMARK  Name = 122671
REMARK  5 active torsions:
REMARK  status: ('A' for Active; 'I' for Inactive)
REMARK    1  A    between atoms: C_2  and  C_10
REMARK    2  A    between atoms: C_3  and  O_18
REMARK    3  A    between atoms: C_4  and  O_20
REMARK    4  A    between atoms: C_5  and  C_22
REMARK    5  A    between atoms: C_22  and  O_23
REMARK                            x       y       z     vdW  Elec       q    Type
REMARK                         _______ _______ _______ _____ _____    ______ ____
ROOT
ATOM      1  O   UNL     1      37.845 -23.592 -14.018  0.00  0.00    -0.347 OA
ATOM      2  C   UNL     1      36.532 -23.736 -14.607  0.00  0.00    +0.169 C 
ATOM      3  C   UNL     1      36.300 -25.238 -14.738  0.00  0.00    +0.171 C 
ATOM      4  C   UNL     1      37.078 -25.794 -13.562  0.00  0.00    +0.169 C 
ATOM      5  C   UNL     1      38.286 -24.867 -13.504  0.00  0.00    +0.174 C 
ENDROOT
BRANCH   2  10
ATOM      6  O   UNL     1      34.898 -21.158 -19.868  0.00  0.00    -0.221 OA
ATOM      7  N   UNL     1      36.862 -21.742 -17.701  0.00  0.00    -0.302 N 
ATOM      8  N   UNL     1      34.038 -23.453 -16.599  0.00  0.00    -0.311 N 
ATOM      9  N   UNL     1      33.371 -22.431 -18.696  0.00  0.00    -0.179 NA
ATOM     10  C   UNL     1      36.397 -22.998 -15.910  0.00  0.00    +0.037 C 
ATOM     11  C   UNL     1      35.263 -22.918 -16.735  0.00  0.00    +0.071 C 
ATOM     12  C   UNL     1      37.381 -22.256 -16.534  0.00  0.00    +0.062 C 
ATOM     13  C   UNL     1      35.560 -22.144 -17.834  0.00  0.00    +0.146 C 
ATOM     14  C   UNL     1      34.622 -21.849 -18.894  0.00  0.00    +0.167 C 
ATOM     15  C   UNL     1      33.170 -23.152 -17.629  0.00  0.00    +0.229 C 
ATOM     16  H   UNL     1      37.352 -21.175 -18.341  0.00  0.00    +0.153 HD
ATOM     17  H   UNL     1      33.781 -24.014 -15.831  0.00  0.00    +0.149 HD
ENDBRANCH   2  10
BRANCH   3  18
ATOM     18  O   UNL     1      34.925 -25.568 -14.691  0.00  0.00    -0.379 OA
ATOM     19  H   UNL     1      34.536 -25.455 -15.572  0.00  0.00    +0.211 HD
ENDBRANCH   3  18
BRANCH   4  20
ATOM     20  O   UNL     1      36.330 -25.670 -12.354  0.00  0.00    -0.379 OA
ATOM     21  H   UNL     1      35.382 -25.642 -12.561  0.00  0.00    +0.211 HD
ENDBRANCH   4  20
BRANCH   5  22
ATOM     22  C   UNL     1      39.449 -25.351 -14.359  0.00  0.00    +0.169 C 
BRANCH  22  23
ATOM     23  O   UNL     1      39.311 -26.747 -14.563  0.00  0.00    -0.379 OA
ATOM     24  H   UNL     1      40.166 -27.181 -14.410  0.00  0.00    +0.211 HD
ENDBRANCH  22  23
ENDBRANCH   5  22
TORSDOF 5
ENDMDL
MODEL 5
REMARK VINA RESULT:      -8.4      7.310      9.776
REMARK  Name = 122671
REMARK  5 active torsions:
REMARK  status: ('A' for Active; 'I' for Inactive)
REMARK    1  A    between atoms: C_2  and  C_10
REMARK    2  A    between atoms: C_3  and  O_18
REMARK    3  A    between atoms: C_4  and  O_20
REMARK    4  A    between atoms: C_5  and  C_22
REMARK    5  A    between atoms: C_22  and  O_23
REMARK                            x       y       z     vdW  Elec       q    Type
REMARK                         _______ _______ _______ _____ _____    ______ ____
ROOT
ATOM      1  O   UNL     1      35.834 -24.851 -12.576  0.00  0.00    -0.347 OA
ATOM      2  C   UNL     1      36.006 -24.992 -14.004  0.00  0.00    +0.169 C 
ATOM      3  C   UNL     1      37.397 -24.445 -14.309  0.00  0.00    +0.171 C 
ATOM      4  C   UNL     1      38.162 -24.768 -13.040  0.00  0.00    +0.169 C 
ATOM      5  C   UNL     1      37.107 -24.556 -11.961  0.00  0.00    +0.174 C 
ENDROOT
BRANCH   2  10
ATOM      6  O   UNL     1      30.883 -22.792 -16.435  0.00  0.00    -0.221 OA
ATOM      7  N   UNL     1      33.850 -23.069 -16.308  0.00  0.00    -0.302 N 
ATOM      8  N   UNL     1      32.822 -25.074 -13.655  0.00  0.00    -0.311 N 
ATOM      9  N   UNL     1      30.770 -24.204 -14.613  0.00  0.00    -0.179 NA
ATOM     10  C   UNL     1      34.916 -24.316 -14.789  0.00  0.00    +0.037 C 
ATOM     11  C   UNL     1      33.531 -24.399 -14.576  0.00  0.00    +0.071 C 
ATOM     12  C   UNL     1      35.090 -23.481 -15.875  0.00  0.00    +0.062 C 
ATOM     13  C   UNL     1      32.884 -23.628 -15.516  0.00  0.00    +0.146 C 
ATOM     14  C   UNL     1      31.447 -23.481 -15.593  0.00  0.00    +0.167 C 
ATOM     15  C   UNL     1      31.455 -24.911 -13.759  0.00  0.00    +0.229 C 
ATOM     16  H   UNL     1      33.684 -22.466 -17.070  0.00  0.00    +0.153 HD
ATOM     17  H   UNL     1      33.241 -25.638 -12.965  0.00  0.00    +0.149 HD
ENDBRANCH   2  10
BRANCH   3  18
ATOM     18  O   UNL     1      37.962 -25.045 -15.458  0.00  0.00    -0.379 OA
ATOM     19  H   UNL     1      38.536 -24.405 -15.907  0.00  0.00    +0.211 HD
ENDBRANCH   3  18
BRANCH   4  20
ATOM     20  O   UNL     1      38.578 -26.133 -13.033  0.00  0.00    -0.379 OA
ATOM     21  H   UNL     1      38.586 -26.464 -12.121  0.00  0.00    +0.211 HD
ENDBRANCH   4  20
BRANCH   5  22
ATOM     22  C   UNL     1      37.067 -23.127 -11.441  0.00  0.00    +0.169 C 
BRANCH  22  23
ATOM     23  O   UNL     1      38.346 -22.543 -11.623  0.00  0.00    -0.379 OA
ATOM     24  H   UNL     1      38.647 -22.701 -12.532  0.00  0.00    +0.211 HD
ENDBRANCH  22  23
ENDBRANCH   5  22
TORSDOF 5
ENDMDL
MODEL 6
REMARK VINA RESULT:      -8.3      1.012      1.995
REMARK  Name = 122671
REMARK  5 active torsions:
REMARK  status: ('A' for Active; 'I' for Inactive)
REMARK    1  A    between atoms: C_2  and  C_10
REMARK    2  A    between atoms: C_3  and  O_18
REMARK    3  A    between atoms: C_4  and  O_20
REMARK    4  A    between atoms: C_5  and  C_22
REMARK    5  A    between atoms: C_22  and  O_23
REMARK                            x       y       z     vdW  Elec       q    Type
REMARK                         _______ _______ _______ _____ _____    ______ ____
ROOT
ATOM      1  O   UNL     1      35.346 -16.763 -20.873  0.00  0.00    -0.347 OA
ATOM      2  C   UNL     1      35.767 -17.891 -21.674  0.00  0.00    +0.169 C 
ATOM      3  C   UNL     1      34.814 -17.929 -22.865  0.00  0.00    +0.171 C 
ATOM      4  C   UNL     1      34.478 -16.465 -23.064  0.00  0.00    +0.169 C 
ATOM      5  C   UNL     1      34.431 -15.944 -21.633  0.00  0.00    +0.174 C 
ENDROOT
BRANCH   2  10
ATOM      6  O   UNL     1      34.725 -23.046 -18.618  0.00  0.00    -0.221 OA
ATOM      7  N   UNL     1      36.526 -20.965 -19.768  0.00  0.00    -0.302 N 
ATOM      8  N   UNL     1      33.381 -19.781 -20.675  0.00  0.00    -0.311 N 
ATOM      9  N   UNL     1      32.949 -21.836 -19.459  0.00  0.00    -0.179 NA
ATOM     10  C   UNL     1      35.796 -19.176 -20.894  0.00  0.00    +0.037 C 
ATOM     11  C   UNL     1      34.700 -19.956 -20.489  0.00  0.00    +0.071 C 
ATOM     12  C   UNL     1      36.923 -19.826 -20.432  0.00  0.00    +0.062 C 
ATOM     13  C   UNL     1      35.160 -21.053 -19.797  0.00  0.00    +0.146 C 
ATOM     14  C   UNL     1      34.304 -22.073 -19.233  0.00  0.00    +0.167 C 
ATOM     15  C   UNL     1      32.594 -20.773 -20.124  0.00  0.00    +0.229 C 
ATOM     16  H   UNL     1      37.130 -21.613 -19.338  0.00  0.00    +0.153 HD
ATOM     17  H   UNL     1      33.006 -19.012 -21.162  0.00  0.00    +0.149 HD
ENDBRANCH   2  10
BRANCH   3  18
ATOM     18  O   UNL     1      35.415 -18.514 -24.004  0.00  0.00    -0.379 OA
ATOM     19  H   UNL     1      36.336 -18.740 -23.804  0.00  0.00    +0.211 HD
ENDBRANCH   3  18
BRANCH   4  20
ATOM     20  O   UNL     1      35.520 -15.797 -23.775  0.00  0.00    -0.379 OA
ATOM     21  H   UNL     1      36.000 -16.438 -24.323  0.00  0.00    +0.211 HD
ENDBRANCH   4  20
BRANCH   5  22
ATOM     22  C   UNL     1      33.050 -16.061 -21.003  0.00  0.00    +0.169 C 
BRANCH  22  23
ATOM     23  O   UNL     1      32.190 -15.117 -21.619  0.00  0.00    -0.379 OA
ATOM     24  H   UNL     1      31.663 -14.668 -20.939  0.00  0.00    +0.211 HD
ENDBRANCH  22  23
ENDBRANCH   5  22
TORSDOF 5
ENDMDL
MODEL 7
REMARK VINA RESULT:      -8.3      6.969      9.775
REMARK  Name = 122671
REMARK  5 active torsions:
REMARK  status: ('A' for Active; 'I' for Inactive)
REMARK    1  A    between atoms: C_2  and  C_10
REMARK    2  A    between atoms: C_3  and  O_18
REMARK    3  A    between atoms: C_4  and  O_20
REMARK    4  A    between atoms: C_5  and  C_22
REMARK    5  A    between atoms: C_22  and  O_23
REMARK                            x       y       z     vdW  Elec       q    Type
REMARK                         _______ _______ _______ _____ _____    ______ ____
ROOT
ATOM      1  O   UNL     1      37.528 -23.559 -14.089  0.00  0.00    -0.347 OA
ATOM      2  C   UNL     1      36.171 -23.645 -13.597  0.00  0.00    +0.169 C 
ATOM      3  C   UNL     1      36.063 -25.008 -12.920  0.00  0.00    +0.171 C 
ATOM      4  C   UNL     1      37.470 -25.229 -12.399  0.00  0.00    +0.169 C 
ATOM      5  C   UNL     1      38.324 -24.611 -13.499  0.00  0.00    +0.174 C 
ENDROOT
BRANCH   2  10
ATOM      6  O   UNL     1      31.266 -22.846 -17.104  0.00  0.00    -0.221 OA
ATOM      7  N   UNL     1      34.206 -23.124 -16.683  0.00  0.00    -0.302 N 
ATOM      8  N   UNL     1      32.979 -23.418 -13.439  0.00  0.00    -0.311 N 
ATOM      9  N   UNL     1      31.013 -23.100 -14.824  0.00  0.00    -0.179 NA
ATOM     10  C   UNL     1      35.149 -23.437 -14.680  0.00  0.00    +0.037 C 
ATOM     11  C   UNL     1      33.755 -23.346 -14.534  0.00  0.00    +0.071 C 
ATOM     12  C   UNL     1      35.405 -23.295 -16.029  0.00  0.00    +0.062 C 
ATOM     13  C   UNL     1      33.185 -23.154 -15.772  0.00  0.00    +0.146 C 
ATOM     14  C   UNL     1      31.762 -23.017 -15.997  0.00  0.00    +0.167 C 
ATOM     15  C   UNL     1      31.628 -23.283 -13.690  0.00  0.00    +0.229 C 
ATOM     16  H   UNL     1      34.100 -23.000 -17.654  0.00  0.00    +0.153 HD
ATOM     17  H   UNL     1      33.342 -23.556 -12.534  0.00  0.00    +0.149 HD
ENDBRANCH   2  10
BRANCH   3  18
ATOM     18  O   UNL     1      35.091 -25.013 -11.892  0.00  0.00    -0.379 OA
ATOM     19  H   UNL     1      34.867 -25.928 -11.663  0.00  0.00    +0.211 HD
ENDBRANCH   3  18
BRANCH   4  20
ATOM     20  O   UNL     1      37.678 -24.514 -11.182  0.00  0.00    -0.379 OA
ATOM     21  H   UNL     1      36.892 -24.596 -10.619  0.00  0.00    +0.211 HD
ENDBRANCH   4  20
BRANCH   5  22
ATOM     22  C   UNL     1      38.693 -25.602 -14.594  0.00  0.00    +0.169 C 
BRANCH  22  23
ATOM     23  O   UNL     1      39.691 -25.020 -15.414  0.00  0.00    -0.379 OA
ATOM     24  H   UNL     1      39.744 -24.068 -15.233  0.00  0.00    +0.211 HD
ENDBRANCH  22  23
ENDBRANCH   5  22
TORSDOF 5
ENDMDL
MODEL 8
REMARK VINA RESULT:      -8.1      7.026      8.868
REMARK  Name = 122671
REMARK  5 active torsions:
REMARK  status: ('A' for Active; 'I' for Inactive)
REMARK    1  A    between atoms: C_2  and  C_10
REMARK    2  A    between atoms: C_3  and  O_18
REMARK    3  A    between atoms: C_4  and  O_20
REMARK    4  A    between atoms: C_5  and  C_22
REMARK    5  A    between atoms: C_22  and  O_23
REMARK                            x       y       z     vdW  Elec       q    Type
REMARK                         _______ _______ _______ _____ _____    ______ ____
ROOT
ATOM      1  O   UNL     1      32.894 -23.012 -14.332  0.00  0.00    -0.347 OA
ATOM      2  C   UNL     1      33.873 -22.880 -15.388  0.00  0.00    +0.169 C 
ATOM      3  C   UNL     1      33.400 -23.804 -16.506  0.00  0.00    +0.171 C 
ATOM      4  C   UNL     1      31.892 -23.763 -16.351  0.00  0.00    +0.169 C 
ATOM      5  C   UNL     1      31.723 -23.689 -14.839  0.00  0.00    +0.174 C 
ENDROOT
BRANCH   2  10
ATOM      6  O   UNL     1      39.030 -24.242 -12.465  0.00  0.00    -0.221 OA
ATOM      7  N   UNL     1      37.485 -23.496 -14.904  0.00  0.00    -0.302 N 
ATOM      8  N   UNL     1      34.985 -23.665 -12.487  0.00  0.00    -0.311 N 
ATOM      9  N   UNL     1      37.033 -24.211 -11.307  0.00  0.00    -0.179 NA
ATOM     10  C   UNL     1      35.271 -23.178 -14.922  0.00  0.00    +0.037 C 
ATOM     11  C   UNL     1      35.686 -23.518 -13.625  0.00  0.00    +0.071 C 
ATOM     12  C   UNL     1      36.410 -23.171 -15.702  0.00  0.00    +0.062 C 
ATOM     13  C   UNL     1      37.049 -23.711 -13.624  0.00  0.00    +0.146 C 
ATOM     14  C   UNL     1      37.816 -24.074 -12.453  0.00  0.00    +0.167 C 
ATOM     15  C   UNL     1      35.749 -24.011 -11.390  0.00  0.00    +0.229 C 
ATOM     16  H   UNL     1      38.419 -23.562 -15.207  0.00  0.00    +0.153 HD
ATOM     17  H   UNL     1      34.010 -23.536 -12.440  0.00  0.00    +0.149 HD
ENDBRANCH   2  10
BRANCH   3  18
ATOM     18  O   UNL     1      33.833 -23.359 -17.778  0.00  0.00    -0.379 OA
ATOM     19  H   UNL     1      34.108 -24.122 -18.310  0.00  0.00    +0.211 HD
ENDBRANCH   3  18
BRANCH   4  20
ATOM     20  O   UNL     1      31.353 -22.582 -16.944  0.00  0.00    -0.379 OA
ATOM     21  H   UNL     1      31.944 -21.833 -16.770  0.00  0.00    +0.211 HD
ENDBRANCH   4  20
BRANCH   5  22
ATOM     22  C   UNL     1      31.642 -25.060 -14.182  0.00  0.00    +0.169 C 
BRANCH  22  23
ATOM     23  O   UNL     1      32.531 -25.087 -13.078  0.00  0.00    -0.379 OA
ATOM     24  H   UNL     1      33.219 -24.414 -13.201  0.00  0.00    +0.211 HD
ENDBRANCH  22  23
ENDBRANCH   5  22
TORSDOF 5
ENDMDL
MODEL 9
REMARK VINA RESULT:      -8.1      6.417      9.451
REMARK  Name = 122671
REMARK  5 active torsions:
REMARK  status: ('A' for Active; 'I' for Inactive)
REMARK    1  A    between atoms: C_2  and  C_10
REMARK    2  A    between atoms: C_3  and  O_18
REMARK    3  A    between atoms: C_4  and  O_20
REMARK    4  A    between atoms: C_5  and  C_22
REMARK    5  A    between atoms: C_22  and  O_23
REMARK                            x       y       z     vdW  Elec       q    Type
REMARK                         _______ _______ _______ _____ _____    ______ ____
ROOT
ATOM      1  O   UNL     1      36.856 -24.579 -15.182  0.00  0.00    -0.347 OA
ATOM      2  C   UNL     1      36.129 -23.841 -14.173  0.00  0.00    +0.169 C 
ATOM      3  C   UNL     1      36.427 -24.544 -12.852  0.00  0.00    +0.171 C 
ATOM      4  C   UNL     1      37.830 -25.076 -13.072  0.00  0.00    +0.169 C 
ATOM      5  C   UNL     1      37.802 -25.466 -14.545  0.00  0.00    +0.174 C 
ENDROOT
BRANCH   2  10
ATOM      6  O   UNL     1      30.537 -23.139 -16.461  0.00  0.00    -0.221 OA
ATOM      7  N   UNL     1      32.435 -23.783 -14.252  0.00  0.00    -0.302 N 
ATOM      8  N   UNL     1      34.602 -23.059 -16.879  0.00  0.00    -0.311 N 
ATOM      9  N   UNL     1      32.378 -22.776 -17.806  0.00  0.00    -0.179 NA
ATOM     10  C   UNL     1      34.660 -23.741 -14.475  0.00  0.00    +0.037 C 
ATOM     11  C   UNL     1      34.059 -23.390 -15.694  0.00  0.00    +0.071 C 
ATOM     12  C   UNL     1      33.626 -23.982 -13.591  0.00  0.00    +0.062 C 
ATOM     13  C   UNL     1      32.691 -23.419 -15.547  0.00  0.00    +0.146 C 
ATOM     14  C   UNL     1      31.754 -23.110 -16.605  0.00  0.00    +0.167 C 
ATOM     15  C   UNL     1      33.679 -22.771 -17.865  0.00  0.00    +0.229 C 
ATOM     16  H   UNL     1      31.540 -23.887 -13.855  0.00  0.00    +0.153 HD
ATOM     17  H   UNL     1      35.574 -23.025 -17.031  0.00  0.00    +0.149 HD
ENDBRANCH   2  10
BRANCH   3  18
ATOM     18  O   UNL     1      36.342 -23.660 -11.751  0.00  0.00    -0.379 OA
ATOM     19  H   UNL     1      35.460 -23.259 -11.727  0.00  0.00    +0.211 HD
ENDBRANCH   3  18
BRANCH   4  20
ATOM     20  O   UNL     1      38.799 -24.048 -12.874  0.00  0.00    -0.379 OA
ATOM     21  H   UNL     1      38.708 -23.685 -11.979  0.00  0.00    +0.211 HD
ENDBRANCH   4  20
BRANCH   5  22
ATOM     22  C   UNL     1      37.342 -26.898 -14.773  0.00  0.00    +0.169 C 
BRANCH  22  23
ATOM     23  O   UNL     1      36.797 -26.997 -16.078  0.00  0.00    -0.379 OA
ATOM     24  H   UNL     1      36.929 -27.897 -16.416  0.00  0.00    +0.211 HD
ENDBRANCH  22  23
ENDBRANCH   5  22
TORSDOF 5
ENDMDL
