MODEL 1
REMARK VINA RESULT:      -6.8      0.000      0.000
REMARK  Name = 5459784
REMARK  9 active torsions:
REMARK  status: ('A' for Active; 'I' for Inactive)
REMARK    1  A    between atoms: C_1  and  C_3
REMARK    2  A    between atoms: C_1  and  C_6
REMARK    3  A    between atoms: C_1  and  C_14
REMARK    4  A    between atoms: C_3  and  O_4
REMARK    5  A    between atoms: C_6  and  O_8
REMARK    6  A    between atoms: C_6  and  C_11
REMARK    7  A    between atoms: C_11  and  O_12
REMARK    8  A    between atoms: C_14  and  C_16
REMARK    9  A    between atoms: C_16  and  O_17
REMARK                            x       y       z     vdW  Elec       q    Type
REMARK                         _______ _______ _______ _____ _____    ______ ____
ROOT
ATOM      1  C   UNL     1      38.010 -25.014 -13.588  0.00  0.00    +0.145 C 
ENDROOT
BRANCH   1   3
ATOM      2  O   UNL     1      37.816 -24.360 -11.253  0.00  0.00    -0.250 OA
ATOM      3  C   UNL     1      37.692 -25.222 -12.113  0.00  0.00    +0.317 C 
BRANCH   3   4
ATOM      4  O   UNL     1      37.236 -26.473 -11.859  0.00  0.00    -0.480 OA
ATOM      5  H   UNL     1      37.136 -27.086 -12.561  0.00  0.00    +0.295 HD
ENDBRANCH   3   4
ENDBRANCH   1   3
BRANCH   1   6
ATOM      6  C   UNL     1      36.723 -25.029 -14.457  0.00  0.00    +0.187 C 
ATOM      7  C   UNL     1      36.600 -26.291 -15.321  0.00  0.00    +0.041 C 
BRANCH   6   8
ATOM      8  O   UNL     1      35.575 -24.958 -13.612  0.00  0.00    -0.376 OA
ATOM      9  H   UNL     1      35.710 -24.273 -12.939  0.00  0.00    +0.211 HD
ENDBRANCH   6   8
BRANCH   6  11
ATOM     10  O   UNL     1      35.824 -23.596 -16.221  0.00  0.00    -0.248 OA
ATOM     11  C   UNL     1      36.666 -23.798 -15.356  0.00  0.00    +0.339 C 
BRANCH  11  12
ATOM     12  O   UNL     1      37.677 -22.934 -15.088  0.00  0.00    -0.479 OA
ATOM     13  H   UNL     1      37.892 -22.260 -15.703  0.00  0.00    +0.295 HD
ENDBRANCH  11  12
ENDBRANCH   6  11
ENDBRANCH   1   6
BRANCH   1  14
ATOM     14  C   UNL     1      39.086 -26.037 -14.019  0.00  0.00    +0.123 C 
BRANCH  14  16
ATOM     15  O   UNL     1      41.009 -24.568 -14.328  0.00  0.00    -0.250 OA
ATOM     16  C   UNL     1      40.249 -25.420 -14.767  0.00  0.00    +0.314 C 
BRANCH  16  17
ATOM     17  O   UNL     1      40.385 -25.959 -16.007  0.00  0.00    -0.480 OA
ATOM     18  H   UNL     1      39.880 -25.625 -16.722  0.00  0.00    +0.295 HD
ENDBRANCH  16  17
ENDBRANCH  14  16
ENDBRANCH   1  14
TORSDOF 9
ENDMDL
MODEL 2
REMARK VINA RESULT:      -6.7      1.834      3.604
REMARK  Name = 5459784
REMARK  9 active torsions:
REMARK  status: ('A' for Active; 'I' for Inactive)
REMARK    1  A    between atoms: C_1  and  C_3
REMARK    2  A    between atoms: C_1  and  C_6
REMARK    3  A    between atoms: C_1  and  C_14
REMARK    4  A    between atoms: C_3  and  O_4
REMARK    5  A    between atoms: C_6  and  O_8
REMARK    6  A    between atoms: C_6  and  C_11
REMARK    7  A    between atoms: C_11  and  O_12
REMARK    8  A    between atoms: C_14  and  C_16
REMARK    9  A    between atoms: C_16  and  O_17
REMARK                            x       y       z     vdW  Elec       q    Type
REMARK                         _______ _______ _______ _____ _____    ______ ____
ROOT
ATOM      1  C   UNL     1      37.283 -25.023 -14.042  0.00  0.00    +0.145 C 
ENDROOT
BRANCH   1   3
ATOM      2  O   UNL     1      38.247 -27.174 -14.638  0.00  0.00    -0.250 OA
ATOM      3  C   UNL     1      37.271 -26.436 -14.606  0.00  0.00    +0.317 C 
BRANCH   3   4
ATOM      4  O   UNL     1      36.044 -26.798 -15.055  0.00  0.00    -0.480 OA
ATOM      5  H   UNL     1      35.883 -26.859 -15.976  0.00  0.00    +0.295 HD
ENDBRANCH   3   4
ENDBRANCH   1   3
BRANCH   1   6
ATOM      6  C   UNL     1      36.694 -24.975 -12.605  0.00  0.00    +0.187 C 
ATOM      7  C   UNL     1      35.254 -24.447 -12.568  0.00  0.00    +0.041 C 
BRANCH   6   8
ATOM      8  O   UNL     1      36.699 -26.286 -12.044  0.00  0.00    -0.376 OA
ATOM      9  H   UNL     1      35.953 -26.794 -12.401  0.00  0.00    +0.211 HD
ENDBRANCH   6   8
BRANCH   6  11
ATOM     10  O   UNL     1      38.701 -23.743 -11.953  0.00  0.00    -0.248 OA
ATOM     11  C   UNL     1      37.566 -24.118 -11.694  0.00  0.00    +0.339 C 
BRANCH  11  12
ATOM     12  O   UNL     1      36.930 -23.813 -10.534  0.00  0.00    -0.479 OA
ATOM     13  H   UNL     1      36.003 -23.676 -10.530  0.00  0.00    +0.295 HD
ENDBRANCH  11  12
ENDBRANCH   6  11
ENDBRANCH   1   6
BRANCH   1  14
ATOM     14  C   UNL     1      36.593 -24.073 -15.049  0.00  0.00    +0.123 C 
BRANCH  14  16
ATOM     15  O   UNL     1      37.234 -21.953 -16.073  0.00  0.00    -0.250 OA
ATOM     16  C   UNL     1      37.535 -23.075 -15.690  0.00  0.00    +0.314 C 
BRANCH  16  17
ATOM     17  O   UNL     1      38.802 -23.562 -15.761  0.00  0.00    -0.480 OA
ATOM     18  H   UNL     1      39.442 -23.130 -16.292  0.00  0.00    +0.295 HD
ENDBRANCH  16  17
ENDBRANCH  14  16
ENDBRANCH   1  14
TORSDOF 9
ENDMDL
MODEL 3
REMARK VINA RESULT:      -6.6      1.663      4.144
REMARK  Name = 5459784
REMARK  9 active torsions:
REMARK  status: ('A' for Active; 'I' for Inactive)
REMARK    1  A    between atoms: C_1  and  C_3
REMARK    2  A    between atoms: C_1  and  C_6
REMARK    3  A    between atoms: C_1  and  C_14
REMARK    4  A    between atoms: C_3  and  O_4
REMARK    5  A    between atoms: C_6  and  O_8
REMARK    6  A    between atoms: C_6  and  C_11
REMARK    7  A    between atoms: C_11  and  O_12
REMARK    8  A    between atoms: C_14  and  C_16
REMARK    9  A    between atoms: C_16  and  O_17
REMARK                            x       y       z     vdW  Elec       q    Type
REMARK                         _______ _______ _______ _____ _____    ______ ____
ROOT
ATOM      1  C   UNL     1      37.849 -24.102 -14.296  0.00  0.00    +0.145 C 
ENDROOT
BRANCH   1   3
ATOM      2  O   UNL     1      35.939 -23.780 -15.766  0.00  0.00    -0.250 OA
ATOM      3  C   UNL     1      37.126 -23.593 -15.534  0.00  0.00    +0.317 C 
BRANCH   3   4
ATOM      4  O   UNL     1      37.945 -22.886 -16.352  0.00  0.00    -0.480 OA
ATOM      5  H   UNL     1      38.778 -22.591 -16.038  0.00  0.00    +0.295 HD
ENDBRANCH   3   4
ENDBRANCH   1   3
BRANCH   1   6
ATOM      6  C   UNL     1      38.203 -25.609 -14.419  0.00  0.00    +0.187 C 
ATOM      7  C   UNL     1      37.525 -26.472 -13.347  0.00  0.00    +0.041 C 
BRANCH   6   8
ATOM      8  O   UNL     1      37.793 -26.092 -15.698  0.00  0.00    -0.376 OA
ATOM      9  H   UNL     1      38.205 -25.556 -16.394  0.00  0.00    +0.211 HD
ENDBRANCH   6   8
BRANCH   6  11
ATOM     10  O   UNL     1      40.290 -26.869 -14.584  0.00  0.00    -0.248 OA
ATOM     11  C   UNL     1      39.712 -25.816 -14.349  0.00  0.00    +0.339 C 
BRANCH  11  12
ATOM     12  O   UNL     1      40.358 -24.680 -13.986  0.00  0.00    -0.479 OA
ATOM     13  H   UNL     1      39.870 -23.895 -13.824  0.00  0.00    +0.295 HD
ENDBRANCH  11  12
ENDBRANCH   6  11
ENDBRANCH   1   6
BRANCH   1  14
ATOM     14  C   UNL     1      37.018 -23.740 -13.043  0.00  0.00    +0.123 C 
BRANCH  14  16
ATOM     15  O   UNL     1      39.023 -23.359 -11.706  0.00  0.00    -0.250 OA
ATOM     16  C   UNL     1      37.838 -23.143 -11.918  0.00  0.00    +0.314 C 
BRANCH  16  17
ATOM     17  O   UNL     1      37.100 -22.285 -11.166  0.00  0.00    -0.480 OA
ATOM     18  H   UNL     1      37.206 -22.267 -10.235  0.00  0.00    +0.295 HD
ENDBRANCH  16  17
ENDBRANCH  14  16
ENDBRANCH   1  14
TORSDOF 9
ENDMDL
MODEL 4
REMARK VINA RESULT:      -6.6      1.726      3.415
REMARK  Name = 5459784
REMARK  9 active torsions:
REMARK  status: ('A' for Active; 'I' for Inactive)
REMARK    1  A    between atoms: C_1  and  C_3
REMARK    2  A    between atoms: C_1  and  C_6
REMARK    3  A    between atoms: C_1  and  C_14
REMARK    4  A    between atoms: C_3  and  O_4
REMARK    5  A    between atoms: C_6  and  O_8
REMARK    6  A    between atoms: C_6  and  C_11
REMARK    7  A    between atoms: C_11  and  O_12
REMARK    8  A    between atoms: C_14  and  C_16
REMARK    9  A    between atoms: C_16  and  O_17
REMARK                            x       y       z     vdW  Elec       q    Type
REMARK                         _______ _______ _______ _____ _____    ______ ____
ROOT
ATOM      1  C   UNL     1      36.295 -24.655 -13.516  0.00  0.00    +0.145 C 
ENDROOT
BRANCH   1   3
ATOM      2  O   UNL     1      35.810 -23.625 -11.366  0.00  0.00    -0.250 OA
ATOM      3  C   UNL     1      35.447 -24.339 -12.291  0.00  0.00    +0.317 C 
BRANCH   3   4
ATOM      4  O   UNL     1      34.228 -24.929 -12.347  0.00  0.00    -0.480 OA
ATOM      5  H   UNL     1      33.562 -24.574 -12.904  0.00  0.00    +0.295 HD
ENDBRANCH   3   4
ENDBRANCH   1   3
BRANCH   1   6
ATOM      6  C   UNL     1      37.295 -25.810 -13.237  0.00  0.00    +0.187 C 
ATOM      7  C   UNL     1      38.720 -25.312 -12.960  0.00  0.00    +0.041 C 
BRANCH   6   8
ATOM      8  O   UNL     1      36.860 -26.554 -12.100  0.00  0.00    -0.376 OA
ATOM      9  H   UNL     1      36.149 -27.160 -12.363  0.00  0.00    +0.211 HD
ENDBRANCH   6   8
BRANCH   6  11
ATOM     10  O   UNL     1      38.322 -27.369 -14.813  0.00  0.00    -0.248 OA
ATOM     11  C   UNL     1      37.324 -26.791 -14.403  0.00  0.00    +0.339 C 
BRANCH  11  12
ATOM     12  O   UNL     1      36.094 -26.954 -14.953  0.00  0.00    -0.479 OA
ATOM     13  H   UNL     1      35.338 -26.606 -14.520  0.00  0.00    +0.295 HD
ENDBRANCH  11  12
ENDBRANCH   6  11
ENDBRANCH   1   6
BRANCH   1  14
ATOM     14  C   UNL     1      36.949 -23.349 -14.024  0.00  0.00    +0.123 C 
BRANCH  14  16
ATOM     15  O   UNL     1      36.196 -23.198 -16.340  0.00  0.00    -0.250 OA
ATOM     16  C   UNL     1      37.107 -23.292 -15.529  0.00  0.00    +0.314 C 
BRANCH  16  17
ATOM     17  O   UNL     1      38.416 -23.319 -15.893  0.00  0.00    -0.480 OA
ATOM     18  H   UNL     1      38.734 -22.731 -16.548  0.00  0.00    +0.295 HD
ENDBRANCH  16  17
ENDBRANCH  14  16
ENDBRANCH   1  14
TORSDOF 9
ENDMDL
MODEL 5
REMARK VINA RESULT:      -6.4      1.807      3.222
REMARK  Name = 5459784
REMARK  9 active torsions:
REMARK  status: ('A' for Active; 'I' for Inactive)
REMARK    1  A    between atoms: C_1  and  C_3
REMARK    2  A    between atoms: C_1  and  C_6
REMARK    3  A    between atoms: C_1  and  C_14
REMARK    4  A    between atoms: C_3  and  O_4
REMARK    5  A    between atoms: C_6  and  O_8
REMARK    6  A    between atoms: C_6  and  C_11
REMARK    7  A    between atoms: C_11  and  O_12
REMARK    8  A    between atoms: C_14  and  C_16
REMARK    9  A    between atoms: C_16  and  O_17
REMARK                            x       y       z     vdW  Elec       q    Type
REMARK                         _______ _______ _______ _____ _____    ______ ____
ROOT
ATOM      1  C   UNL     1      36.987 -24.890 -13.978  0.00  0.00    +0.145 C 
ENDROOT
BRANCH   1   3
ATOM      2  O   UNL     1      35.227 -24.803 -15.654  0.00  0.00    -0.250 OA
ATOM      3  C   UNL     1      35.984 -25.472 -14.964  0.00  0.00    +0.317 C 
BRANCH   3   4
ATOM      4  O   UNL     1      36.035 -26.826 -15.007  0.00  0.00    -0.480 OA
ATOM      5  H   UNL     1      35.550 -27.333 -14.385  0.00  0.00    +0.295 HD
ENDBRANCH   3   4
ENDBRANCH   1   3
BRANCH   1   6
ATOM      6  C   UNL     1      36.358 -23.754 -13.126  0.00  0.00    +0.187 C 
ATOM      7  C   UNL     1      37.363 -23.099 -12.169  0.00  0.00    +0.041 C 
BRANCH   6   8
ATOM      8  O   UNL     1      35.844 -22.740 -13.988  0.00  0.00    -0.376 OA
ATOM      9  H   UNL     1      35.158 -22.236 -13.523  0.00  0.00    +0.211 HD
ENDBRANCH   6   8
BRANCH   6  11
ATOM     10  O   UNL     1      35.241 -25.046 -11.378  0.00  0.00    -0.248 OA
ATOM     11  C   UNL     1      35.169 -24.275 -12.326  0.00  0.00    +0.339 C 
BRANCH  11  12
ATOM     12  O   UNL     1      33.995 -23.782 -12.794  0.00  0.00    -0.479 OA
ATOM     13  H   UNL     1      33.488 -24.281 -13.404  0.00  0.00    +0.295 HD
ENDBRANCH  11  12
ENDBRANCH   6  11
ENDBRANCH   1   6
BRANCH   1  14
ATOM     14  C   UNL     1      38.267 -24.483 -14.744  0.00  0.00    +0.123 C 
BRANCH  14  16
ATOM     15  O   UNL     1      40.569 -25.003 -14.121  0.00  0.00    -0.250 OA
ATOM     16  C   UNL     1      39.456 -25.378 -14.464  0.00  0.00    +0.314 C 
BRANCH  16  17
ATOM     17  O   UNL     1      39.133 -26.691 -14.604  0.00  0.00    -0.480 OA
ATOM     18  H   UNL     1      39.685 -27.260 -15.104  0.00  0.00    +0.295 HD
ENDBRANCH  16  17
ENDBRANCH  14  16
ENDBRANCH   1  14
TORSDOF 9
ENDMDL
MODEL 6
REMARK VINA RESULT:      -6.4      1.821      3.978
REMARK  Name = 5459784
REMARK  9 active torsions:
REMARK  status: ('A' for Active; 'I' for Inactive)
REMARK    1  A    between atoms: C_1  and  C_3
REMARK    2  A    between atoms: C_1  and  C_6
REMARK    3  A    between atoms: C_1  and  C_14
REMARK    4  A    between atoms: C_3  and  O_4
REMARK    5  A    between atoms: C_6  and  O_8
REMARK    6  A    between atoms: C_6  and  C_11
REMARK    7  A    between atoms: C_11  and  O_12
REMARK    8  A    between atoms: C_14  and  C_16
REMARK    9  A    between atoms: C_16  and  O_17
REMARK                            x       y       z     vdW  Elec       q    Type
REMARK                         _______ _______ _______ _____ _____    ______ ____
ROOT
ATOM      1  C   UNL     1      37.263 -24.646 -13.175  0.00  0.00    +0.145 C 
ENDROOT
BRANCH   1   3
ATOM      2  O   UNL     1      39.691 -24.789 -13.191  0.00  0.00    -0.250 OA
ATOM      3  C   UNL     1      38.674 -24.290 -12.728  0.00  0.00    +0.317 C 
BRANCH   3   4
ATOM      4  O   UNL     1      38.680 -23.337 -11.763  0.00  0.00    -0.480 OA
ATOM      5  H   UNL     1      38.752 -22.433 -12.000  0.00  0.00    +0.295 HD
ENDBRANCH   3   4
ENDBRANCH   1   3
BRANCH   1   6
ATOM      6  C   UNL     1      37.125 -24.600 -14.721  0.00  0.00    +0.187 C 
ATOM      7  C   UNL     1      35.846 -23.891 -15.186  0.00  0.00    +0.041 C 
BRANCH   6   8
ATOM      8  O   UNL     1      38.241 -23.910 -15.280  0.00  0.00    -0.376 OA
ATOM      9  H   UNL     1      38.909 -24.553 -15.567  0.00  0.00    +0.211 HD
ENDBRANCH   6   8
BRANCH   6  11
ATOM     10  O   UNL     1      36.178 -26.642 -15.674  0.00  0.00    -0.248 OA
ATOM     11  C   UNL     1      37.158 -26.008 -15.306  0.00  0.00    +0.339 C 
BRANCH  11  12
ATOM     12  O   UNL     1      38.424 -26.494 -15.373  0.00  0.00    -0.479 OA
ATOM     13  H   UNL     1      38.993 -26.419 -14.632  0.00  0.00    +0.295 HD
ENDBRANCH  11  12
ENDBRANCH   6  11
ENDBRANCH   1   6
BRANCH   1  14
ATOM     14  C   UNL     1      36.255 -23.752 -12.415  0.00  0.00    +0.123 C 
BRANCH  14  16
ATOM     15  O   UNL     1      35.369 -24.915 -10.461  0.00  0.00    -0.250 OA
ATOM     16  C   UNL     1      35.232 -24.532 -11.614  0.00  0.00    +0.314 C 
BRANCH  16  17
ATOM     17  O   UNL     1      34.093 -24.736 -12.327  0.00  0.00    -0.480 OA
ATOM     18  H   UNL     1      34.019 -24.402 -13.199  0.00  0.00    +0.295 HD
ENDBRANCH  16  17
ENDBRANCH  14  16
ENDBRANCH   1  14
TORSDOF 9
ENDMDL
MODEL 7
REMARK VINA RESULT:      -6.3      1.391      4.062
REMARK  Name = 5459784
REMARK  9 active torsions:
REMARK  status: ('A' for Active; 'I' for Inactive)
REMARK    1  A    between atoms: C_1  and  C_3
REMARK    2  A    between atoms: C_1  and  C_6
REMARK    3  A    between atoms: C_1  and  C_14
REMARK    4  A    between atoms: C_3  and  O_4
REMARK    5  A    between atoms: C_6  and  O_8
REMARK    6  A    between atoms: C_6  and  C_11
REMARK    7  A    between atoms: C_11  and  O_12
REMARK    8  A    between atoms: C_14  and  C_16
REMARK    9  A    between atoms: C_16  and  O_17
REMARK                            x       y       z     vdW  Elec       q    Type
REMARK                         _______ _______ _______ _____ _____    ______ ____
ROOT
ATOM      1  C   UNL     1      37.495 -25.041 -14.972  0.00  0.00    +0.145 C 
ENDROOT
BRANCH   1   3
ATOM      2  O   UNL     1      36.799 -27.145 -15.974  0.00  0.00    -0.250 OA
ATOM      3  C   UNL     1      36.519 -26.162 -15.301  0.00  0.00    +0.317 C 
BRANCH   3   4
ATOM      4  O   UNL     1      35.299 -25.957 -14.746  0.00  0.00    -0.480 OA
ATOM      5  H   UNL     1      34.526 -26.045 -15.269  0.00  0.00    +0.295 HD
ENDBRANCH   3   4
ENDBRANCH   1   3
BRANCH   1   6
ATOM      6  C   UNL     1      38.405 -25.410 -13.768  0.00  0.00    +0.187 C 
ATOM      7  C   UNL     1      38.337 -24.382 -12.631  0.00  0.00    +0.041 C 
BRANCH   6   8
ATOM      8  O   UNL     1      38.010 -26.677 -13.243  0.00  0.00    -0.376 OA
ATOM      9  H   UNL     1      38.646 -26.959 -12.566  0.00  0.00    +0.211 HD
ENDBRANCH   6   8
BRANCH   6  11
ATOM     10  O   UNL     1      40.720 -24.710 -14.115  0.00  0.00    -0.248 OA
ATOM     11  C   UNL     1      39.854 -25.568 -14.216  0.00  0.00    +0.339 C 
BRANCH  11  12
ATOM     12  O   UNL     1      40.082 -26.792 -14.755  0.00  0.00    -0.479 OA
ATOM     13  H   UNL     1      40.858 -27.267 -14.528  0.00  0.00    +0.295 HD
ENDBRANCH  11  12
ENDBRANCH   6  11
ENDBRANCH   1   6
BRANCH   1  14
ATOM     14  C   UNL     1      36.707 -23.722 -14.799  0.00  0.00    +0.123 C 
BRANCH  14  16
ATOM     15  O   UNL     1      37.863 -21.978 -16.054  0.00  0.00    -0.250 OA
ATOM     16  C   UNL     1      36.912 -22.736 -15.930  0.00  0.00    +0.314 C 
BRANCH  16  17
ATOM     17  O   UNL     1      35.908 -22.813 -16.843  0.00  0.00    -0.480 OA
ATOM     18  H   UNL     1      36.093 -23.077 -17.723  0.00  0.00    +0.295 HD
ENDBRANCH  16  17
ENDBRANCH  14  16
ENDBRANCH   1  14
TORSDOF 9
ENDMDL
MODEL 8
REMARK VINA RESULT:      -6.2      2.230      3.330
REMARK  Name = 5459784
REMARK  9 active torsions:
REMARK  status: ('A' for Active; 'I' for Inactive)
REMARK    1  A    between atoms: C_1  and  C_3
REMARK    2  A    between atoms: C_1  and  C_6
REMARK    3  A    between atoms: C_1  and  C_14
REMARK    4  A    between atoms: C_3  and  O_4
REMARK    5  A    between atoms: C_6  and  O_8
REMARK    6  A    between atoms: C_6  and  C_11
REMARK    7  A    between atoms: C_11  and  O_12
REMARK    8  A    between atoms: C_14  and  C_16
REMARK    9  A    between atoms: C_16  and  O_17
REMARK                            x       y       z     vdW  Elec       q    Type
REMARK                         _______ _______ _______ _____ _____    ______ ____
ROOT
ATOM      1  C   UNL     1      36.493 -25.053 -13.067  0.00  0.00    +0.145 C 
ENDROOT
BRANCH   1   3
ATOM      2  O   UNL     1      35.312 -25.114 -10.942  0.00  0.00    -0.250 OA
ATOM      3  C   UNL     1      35.277 -24.966 -12.156  0.00  0.00    +0.317 C 
BRANCH   3   4
ATOM      4  O   UNL     1      34.142 -24.685 -12.843  0.00  0.00    -0.480 OA
ATOM      5  H   UNL     1      34.083 -24.894 -13.755  0.00  0.00    +0.295 HD
ENDBRANCH   3   4
ENDBRANCH   1   3
BRANCH   1   6
ATOM      6  C   UNL     1      37.229 -23.690 -13.170  0.00  0.00    +0.187 C 
ATOM      7  C   UNL     1      37.332 -23.173 -14.611  0.00  0.00    +0.041 C 
BRANCH   6   8
ATOM      8  O   UNL     1      36.533 -22.712 -12.399  0.00  0.00    -0.376 OA
ATOM      9  H   UNL     1      36.236 -21.993 -12.980  0.00  0.00    +0.211 HD
ENDBRANCH   6   8
BRANCH   6  11
ATOM     10  O   UNL     1      39.018 -23.169 -11.588  0.00  0.00    -0.248 OA
ATOM     11  C   UNL     1      38.628 -23.786 -12.571  0.00  0.00    +0.339 C 
BRANCH  11  12
ATOM     12  O   UNL     1      39.413 -24.648 -13.265  0.00  0.00    -0.479 OA
ATOM     13  H   UNL     1      39.909 -25.301 -12.810  0.00  0.00    +0.295 HD
ENDBRANCH  11  12
ENDBRANCH   6  11
ENDBRANCH   1   6
BRANCH   1  14
ATOM     14  C   UNL     1      36.062 -25.653 -14.426  0.00  0.00    +0.123 C 
BRANCH  14  16
ATOM     15  O   UNL     1      38.068 -27.042 -14.439  0.00  0.00    -0.250 OA
ATOM     16  C   UNL     1      37.048 -26.653 -14.992  0.00  0.00    +0.314 C 
BRANCH  16  17
ATOM     17  O   UNL     1      36.646 -27.116 -16.205  0.00  0.00    -0.480 OA
ATOM     18  H   UNL     1      36.844 -27.995 -16.461  0.00  0.00    +0.295 HD
ENDBRANCH  16  17
ENDBRANCH  14  16
ENDBRANCH   1  14
TORSDOF 9
ENDMDL
MODEL 9
REMARK VINA RESULT:      -6.2      1.384      2.298
REMARK  Name = 5459784
REMARK  9 active torsions:
REMARK  status: ('A' for Active; 'I' for Inactive)
REMARK    1  A    between atoms: C_1  and  C_3
REMARK    2  A    between atoms: C_1  and  C_6
REMARK    3  A    between atoms: C_1  and  C_14
REMARK    4  A    between atoms: C_3  and  O_4
REMARK    5  A    between atoms: C_6  and  O_8
REMARK    6  A    between atoms: C_6  and  C_11
REMARK    7  A    between atoms: C_11  and  O_12
REMARK    8  A    between atoms: C_14  and  C_16
REMARK    9  A    between atoms: C_16  and  O_17
REMARK                            x       y       z     vdW  Elec       q    Type
REMARK                         _______ _______ _______ _____ _____    ______ ____
ROOT
ATOM      1  C   UNL     1      38.388 -24.486 -13.552  0.00  0.00    +0.145 C 
ENDROOT
BRANCH   1   3
ATOM      2  O   UNL     1      38.047 -22.709 -11.927  0.00  0.00    -0.250 OA
ATOM      3  C   UNL     1      38.031 -23.903 -12.192  0.00  0.00    +0.317 C 
BRANCH   3   4
ATOM      4  O   UNL     1      37.672 -24.862 -11.302  0.00  0.00    -0.480 OA
ATOM      5  H   UNL     1      38.314 -25.461 -10.976  0.00  0.00    +0.295 HD
ENDBRANCH   3   4
ENDBRANCH   1   3
BRANCH   1   6
ATOM      6  C   UNL     1      37.119 -24.784 -14.396  0.00  0.00    +0.187 C 
ATOM      7  C   UNL     1      35.841 -24.199 -13.781  0.00  0.00    +0.041 C 
BRANCH   6   8
ATOM      8  O   UNL     1      37.274 -24.231 -15.702  0.00  0.00    -0.376 OA
ATOM      9  H   UNL     1      38.213 -24.056 -15.871  0.00  0.00    +0.211 HD
ENDBRANCH   6   8
BRANCH   6  11
ATOM     10  O   UNL     1      37.065 -26.880 -15.652  0.00  0.00    -0.248 OA
ATOM     11  C   UNL     1      36.940 -26.286 -14.589  0.00  0.00    +0.339 C 
BRANCH  11  12
ATOM     12  O   UNL     1      36.617 -26.906 -13.426  0.00  0.00    -0.479 OA
ATOM     13  H   UNL     1      36.788 -27.822 -13.320  0.00  0.00    +0.295 HD
ENDBRANCH  11  12
ENDBRANCH   6  11
ENDBRANCH   1   6
BRANCH   1  14
ATOM     14  C   UNL     1      39.322 -25.702 -13.349  0.00  0.00    +0.123 C 
BRANCH  14  16
ATOM     15  O   UNL     1      40.791 -26.782 -14.970  0.00  0.00    -0.250 OA
ATOM     16  C   UNL     1      40.449 -25.780 -14.358  0.00  0.00    +0.314 C 
BRANCH  16  17
ATOM     17  O   UNL     1      41.034 -24.568 -14.544  0.00  0.00    -0.480 OA
ATOM     18  H   UNL     1      41.871 -24.510 -14.961  0.00  0.00    +0.295 HD
ENDBRANCH  16  17
ENDBRANCH  14  16
ENDBRANCH   1  14
TORSDOF 9
ENDMDL
