MODEL 1
REMARK VINA RESULT:      -8.1      0.000      0.000
REMARK  Name = 644020
REMARK  0 active torsions:
REMARK  status: ('A' for Active; 'I' for Inactive)
REMARK                            x       y       z     vdW  Elec       q    Type
REMARK                         _______ _______ _______ _____ _____    ______ ____
ROOT
ATOM      1  N   UNL     1      31.671  -9.478 -22.203  0.00  0.00    +0.388 N 
ATOM      2  N   UNL     1      31.255  -6.615 -22.324  0.00  0.00    +0.388 N 
ATOM      3  C   UNL     1      33.289  -7.729 -21.372  0.00  0.00    -0.040 C 
ATOM      4  C   UNL     1      32.844  -7.905 -23.788  0.00  0.00    -0.040 C 
ATOM      5  C   UNL     1      32.655  -9.136 -21.155  0.00  0.00    -0.060 C 
ATOM      6  C   UNL     1      31.786  -6.765 -23.694  0.00  0.00    -0.060 C 
ATOM      7  C   UNL     1      33.952  -7.707 -22.752  0.00  0.00    -0.008 C 
ATOM      8  C   UNL     1      32.216  -9.301 -23.559  0.00  0.00    -0.079 C 
ATOM      9  C   UNL     1      32.298  -6.542 -21.296  0.00  0.00    -0.079 C 
ATOM     10  C   UNL     1      32.015  -9.260 -19.760  0.00  0.00    -0.021 C 
ATOM     11  C   UNL     1      32.333  -5.437 -24.261  0.00  0.00    -0.021 C 
ATOM     12  C   UNL     1      31.142 -10.838 -22.034  0.00  0.00    -0.077 C 
ATOM     13  C   UNL     1      30.272  -5.534 -22.221  0.00  0.00    -0.077 C 
ATOM     14  C   UNL     1      31.442 -10.657 -19.539  0.00  0.00    -0.004 C 
ATOM     15  C   UNL     1      31.293  -4.324 -24.177  0.00  0.00    -0.004 C 
ATOM     16  C   UNL     1      30.483 -11.017 -20.667  0.00  0.00    -0.023 C 
ATOM     17  C   UNL     1      30.766  -4.188 -22.754  0.00  0.00    -0.023 C 
ATOM     18  H   UNL     1      30.897  -8.823 -22.092  0.00  0.00    -0.080 HD
ATOM     19  H   UNL     1      30.751  -7.480 -22.127  0.00  0.00    -0.080 HD
ENDROOT
TORSDOF 0
ENDMDL
MODEL 2
REMARK VINA RESULT:      -7.4      0.971      5.116
REMARK  Name = 644020
REMARK  0 active torsions:
REMARK  status: ('A' for Active; 'I' for Inactive)
REMARK                            x       y       z     vdW  Elec       q    Type
REMARK                         _______ _______ _______ _____ _____    ______ ____
ROOT
ATOM      1  N   UNL     1      31.610  -6.249 -22.532  0.00  0.00    +0.388 N 
ATOM      2  N   UNL     1      31.672  -9.118 -22.145  0.00  0.00    +0.388 N 
ATOM      3  C   UNL     1      33.697  -7.665 -22.413  0.00  0.00    -0.040 C 
ATOM      4  C   UNL     1      32.297  -7.414 -20.403  0.00  0.00    -0.040 C 
ATOM      5  C   UNL     1      32.975  -6.447 -23.066  0.00  0.00    -0.060 C 
ATOM      6  C   UNL     1      31.575  -8.758 -20.716  0.00  0.00    -0.060 C 
ATOM      7  C   UNL     1      33.744  -7.443 -20.899  0.00  0.00    -0.008 C 
ATOM      8  C   UNL     1      31.587  -6.206 -21.062  0.00  0.00    -0.079 C 
ATOM      9  C   UNL     1      33.036  -9.039 -22.678  0.00  0.00    -0.079 C 
ATOM     10  C   UNL     1      32.937  -6.566 -24.600  0.00  0.00    -0.021 C 
ATOM     11  C   UNL     1      32.064  -9.892 -19.789  0.00  0.00    -0.021 C 
ATOM     12  C   UNL     1      30.972  -5.051 -23.094  0.00  0.00    -0.077 C 
ATOM     13  C   UNL     1      31.010 -10.390 -22.446  0.00  0.00    -0.077 C 
ATOM     14  C   UNL     1      32.274  -5.345 -25.230  0.00  0.00    -0.004 C 
ATOM     15  C   UNL     1      31.350 -11.206 -20.090  0.00  0.00    -0.004 C 
ATOM     16  C   UNL     1      30.897  -5.119 -24.619  0.00  0.00    -0.023 C 
ATOM     17  C   UNL     1      31.469 -11.556 -21.569  0.00  0.00    -0.023 C 
ATOM     18  H   UNL     1      31.069  -7.062 -22.827  0.00  0.00    -0.080 HD
ATOM     19  H   UNL     1      31.151  -8.399 -22.646  0.00  0.00    -0.080 HD
ENDROOT
TORSDOF 0
ENDMDL
MODEL 3
REMARK VINA RESULT:      -6.5      1.611      3.286
REMARK  Name = 644020
REMARK  0 active torsions:
REMARK  status: ('A' for Active; 'I' for Inactive)
REMARK                            x       y       z     vdW  Elec       q    Type
REMARK                         _______ _______ _______ _____ _____    ______ ____
ROOT
ATOM      1  N   UNL     1      32.040  -8.622 -20.880  0.00  0.00    +0.388 N 
ATOM      2  N   UNL     1      33.577  -8.454 -23.328  0.00  0.00    +0.388 N 
ATOM      3  C   UNL     1      31.141  -9.029 -23.203  0.00  0.00    -0.040 C 
ATOM      4  C   UNL     1      31.873  -6.763 -22.576  0.00  0.00    -0.040 C 
ATOM      5  C   UNL     1      31.116  -9.435 -21.699  0.00  0.00    -0.060 C 
ATOM      6  C   UNL     1      33.266  -7.013 -23.226  0.00  0.00    -0.060 C 
ATOM      7  C   UNL     1      30.780  -7.545 -23.308  0.00  0.00    -0.008 C 
ATOM      8  C   UNL     1      31.844  -7.178 -21.085  0.00  0.00    -0.079 C 
ATOM      9  C   UNL     1      32.495  -9.247 -23.920  0.00  0.00    -0.079 C 
ATOM     10  C   UNL     1      31.413 -10.934 -21.510  0.00  0.00    -0.021 C 
ATOM     11  C   UNL     1      33.396  -6.287 -24.583  0.00  0.00    -0.021 C 
ATOM     12  C   UNL     1      31.947  -8.958 -19.453  0.00  0.00    -0.077 C 
ATOM     13  C   UNL     1      34.879  -8.700 -23.955  0.00  0.00    -0.077 C 
ATOM     14  C   UNL     1      31.335 -11.330 -20.039  0.00  0.00    -0.004 C 
ATOM     15  C   UNL     1      34.764  -6.525 -25.214  0.00  0.00    -0.004 C 
ATOM     16  C   UNL     1      32.243 -10.436 -19.204  0.00  0.00    -0.023 C 
ATOM     17  C   UNL     1      35.058  -8.017 -25.311  0.00  0.00    -0.023 C 
ATOM     18  H   UNL     1      32.981  -8.856 -21.198  0.00  0.00    -0.080 HD
ATOM     19  H   UNL     1      33.654  -8.787 -22.367  0.00  0.00    -0.080 HD
ENDROOT
TORSDOF 0
ENDMDL
MODEL 4
REMARK VINA RESULT:      -6.4     16.270     17.956
REMARK  Name = 644020
REMARK  0 active torsions:
REMARK  status: ('A' for Active; 'I' for Inactive)
REMARK                            x       y       z     vdW  Elec       q    Type
REMARK                         _______ _______ _______ _____ _____    ______ ____
ROOT
ATOM      1  N   UNL     1      29.774 -24.475 -15.578  0.00  0.00    +0.388 N 
ATOM      2  N   UNL     1      32.530 -23.589 -15.605  0.00  0.00    +0.388 N 
ATOM      3  C   UNL     1      30.745 -22.672 -14.104  0.00  0.00    -0.040 C 
ATOM      4  C   UNL     1      31.487 -25.000 -13.803  0.00  0.00    -0.040 C 
ATOM      5  C   UNL     1      29.522 -23.170 -14.931  0.00  0.00    -0.060 C 
ATOM      6  C   UNL     1      32.733 -24.739 -14.700  0.00  0.00    -0.060 C 
ATOM      7  C   UNL     1      31.079 -23.732 -13.051  0.00  0.00    -0.008 C 
ATOM      8  C   UNL     1      30.268 -25.483 -14.627  0.00  0.00    -0.079 C 
ATOM      9  C   UNL     1      32.025 -22.391 -14.927  0.00  0.00    -0.079 C 
ATOM     10  C   UNL     1      29.084 -22.131 -15.979  0.00  0.00    -0.021 C 
ATOM     11  C   UNL     1      34.019 -24.603 -13.857  0.00  0.00    -0.021 C 
ATOM     12  C   UNL     1      28.587 -24.973 -16.286  0.00  0.00    -0.077 C 
ATOM     13  C   UNL     1      33.704 -23.324 -16.442  0.00  0.00    -0.077 C 
ATOM     14  C   UNL     1      27.856 -22.607 -16.748  0.00  0.00    -0.004 C 
ATOM     15  C   UNL     1      35.240 -24.356 -14.737  0.00  0.00    -0.004 C 
ATOM     16  C   UNL     1      28.112 -23.983 -17.349  0.00  0.00    -0.023 C 
ATOM     17  C   UNL     1      35.006 -23.164 -15.656  0.00  0.00    -0.023 C 
ATOM     18  H   UNL     1      30.508 -24.314 -16.268  0.00  0.00    -0.080 HD
ATOM     19  H   UNL     1      31.783 -23.867 -16.241  0.00  0.00    -0.080 HD
ENDROOT
TORSDOF 0
ENDMDL
MODEL 5
REMARK VINA RESULT:      -6.4     17.119     18.908
REMARK  Name = 644020
REMARK  0 active torsions:
REMARK  status: ('A' for Active; 'I' for Inactive)
REMARK                            x       y       z     vdW  Elec       q    Type
REMARK                         _______ _______ _______ _____ _____    ______ ____
ROOT
ATOM      1  N   UNL     1      35.731 -25.350 -14.874  0.00  0.00    +0.388 N 
ATOM      2  N   UNL     1      33.049 -24.678 -14.015  0.00  0.00    +0.388 N 
ATOM      3  C   UNL     1      35.092 -23.309 -13.532  0.00  0.00    -0.040 C 
ATOM      4  C   UNL     1      34.307 -23.515 -15.857  0.00  0.00    -0.040 C 
ATOM      5  C   UNL     1      36.142 -24.432 -13.789  0.00  0.00    -0.060 C 
ATOM      6  C   UNL     1      32.945 -24.088 -15.365  0.00  0.00    -0.060 C 
ATOM      7  C   UNL     1      34.887 -22.534 -14.836  0.00  0.00    -0.008 C 
ATOM      8  C   UNL     1      35.354 -24.629 -16.100  0.00  0.00    -0.079 C 
ATOM      9  C   UNL     1      33.710 -23.802 -13.042  0.00  0.00    -0.079 C 
ATOM     10  C   UNL     1      36.450 -25.226 -12.507  0.00  0.00    -0.021 C 
ATOM     11  C   UNL     1      31.819 -23.036 -15.462  0.00  0.00    -0.021 C 
ATOM     12  C   UNL     1      36.765 -26.353 -15.162  0.00  0.00    -0.077 C 
ATOM     13  C   UNL     1      31.768 -25.205 -13.536  0.00  0.00    -0.077 C 
ATOM     14  C   UNL     1      37.515 -26.288 -12.759  0.00  0.00    -0.004 C 
ATOM     15  C   UNL     1      30.484 -23.602 -14.989  0.00  0.00    -0.004 C 
ATOM     16  C   UNL     1      37.104 -27.180 -13.923  0.00  0.00    -0.023 C 
ATOM     17  C   UNL     1      30.618 -24.199 -13.593  0.00  0.00    -0.023 C 
ATOM     18  H   UNL     1      34.903 -25.839 -14.534  0.00  0.00    -0.080 HD
ATOM     19  H   UNL     1      33.671 -25.481 -14.112  0.00  0.00    -0.080 HD
ENDROOT
TORSDOF 0
ENDMDL
MODEL 6
REMARK VINA RESULT:      -6.4      1.679      5.423
REMARK  Name = 644020
REMARK  0 active torsions:
REMARK  status: ('A' for Active; 'I' for Inactive)
REMARK                            x       y       z     vdW  Elec       q    Type
REMARK                         _______ _______ _______ _____ _____    ______ ____
ROOT
ATOM      1  N   UNL     1      32.197  -6.757 -24.200  0.00  0.00    +0.388 N 
ATOM      2  N   UNL     1      32.803  -9.558 -23.788  0.00  0.00    +0.388 N 
ATOM      3  C   UNL     1      34.093  -7.652 -22.795  0.00  0.00    -0.040 C 
ATOM      4  C   UNL     1      31.772  -8.038 -22.069  0.00  0.00    -0.040 C 
ATOM      5  C   UNL     1      33.600  -6.551 -23.781  0.00  0.00    -0.060 C 
ATOM      6  C   UNL     1      31.782  -9.450 -22.726  0.00  0.00    -0.060 C 
ATOM      7  C   UNL     1      33.169  -7.656 -21.574  0.00  0.00    -0.008 C 
ATOM      8  C   UNL     1      31.294  -6.942 -23.052  0.00  0.00    -0.079 C 
ATOM      9  C   UNL     1      34.129  -9.086 -23.376  0.00  0.00    -0.079 C 
ATOM     10  C   UNL     1      34.514  -6.442 -25.014  0.00  0.00    -0.021 C 
ATOM     11  C   UNL     1      31.915 -10.566 -21.667  0.00  0.00    -0.021 C 
ATOM     12  C   UNL     1      31.718  -5.669 -25.062  0.00  0.00    -0.077 C 
ATOM     13  C   UNL     1      32.832 -10.889 -24.400  0.00  0.00    -0.077 C 
ATOM     14  C   UNL     1      34.051  -5.328 -25.947  0.00  0.00    -0.004 C 
ATOM     15  C   UNL     1      31.915 -11.949 -22.311  0.00  0.00    -0.004 C 
ATOM     16  C   UNL     1      32.585  -5.522 -26.312  0.00  0.00    -0.023 C 
ATOM     17  C   UNL     1      32.979 -12.035 -23.398  0.00  0.00    -0.023 C 
ATOM     18  H   UNL     1      32.187  -7.620 -24.744  0.00  0.00    -0.080 HD
ATOM     19  H   UNL     1      32.509  -8.912 -24.520  0.00  0.00    -0.080 HD
ENDROOT
TORSDOF 0
ENDMDL
MODEL 7
REMARK VINA RESULT:      -6.2      8.610     11.827
REMARK  Name = 644020
REMARK  0 active torsions:
REMARK  status: ('A' for Active; 'I' for Inactive)
REMARK                            x       y       z     vdW  Elec       q    Type
REMARK                         _______ _______ _______ _____ _____    ______ ____
ROOT
ATOM      1  N   UNL     1      34.724 -16.526 -22.847  0.00  0.00    +0.388 N 
ATOM      2  N   UNL     1      33.757 -19.055 -21.819  0.00  0.00    +0.388 N 
ATOM      3  C   UNL     1      35.344 -18.803 -23.743  0.00  0.00    -0.040 C 
ATOM      4  C   UNL     1      36.083 -18.157 -21.484  0.00  0.00    -0.040 C 
ATOM      5  C   UNL     1      35.024 -17.312 -24.063  0.00  0.00    -0.060 C 
ATOM      6  C   UNL     1      34.864 -18.894 -20.855  0.00  0.00    -0.060 C 
ATOM      7  C   UNL     1      36.530 -18.845 -22.776  0.00  0.00    -0.008 C 
ATOM      8  C   UNL     1      35.761 -16.678 -21.814  0.00  0.00    -0.079 C 
ATOM      9  C   UNL     1      34.180 -19.604 -23.112  0.00  0.00    -0.079 C 
ATOM     10  C   UNL     1      33.875 -17.184 -25.079  0.00  0.00    -0.021 C 
ATOM     11  C   UNL     1      35.283 -20.235 -20.213  0.00  0.00    -0.021 C 
ATOM     12  C   UNL     1      34.505 -15.107 -23.154  0.00  0.00    -0.077 C 
ATOM     13  C   UNL     1      32.612 -19.763 -21.242  0.00  0.00    -0.077 C 
ATOM     14  C   UNL     1      33.605 -15.722 -25.424  0.00  0.00    -0.004 C 
ATOM     15  C   UNL     1      34.090 -20.952 -19.589  0.00  0.00    -0.004 C 
ATOM     16  C   UNL     1      33.365 -14.918 -24.153  0.00  0.00    -0.023 C 
ATOM     17  C   UNL     1      32.966 -21.108 -20.606  0.00  0.00    -0.023 C 
ATOM     18  H   UNL     1      33.854 -16.905 -22.472  0.00  0.00    -0.080 HD
ATOM     19  H   UNL     1      33.434 -18.110 -22.028  0.00  0.00    -0.080 HD
ENDROOT
TORSDOF 0
ENDMDL
MODEL 8
REMARK VINA RESULT:      -6.2     10.134     12.004
REMARK  Name = 644020
REMARK  0 active torsions:
REMARK  status: ('A' for Active; 'I' for Inactive)
REMARK                            x       y       z     vdW  Elec       q    Type
REMARK                         _______ _______ _______ _____ _____    ______ ____
ROOT
ATOM      1  N   UNL     1      35.586 -19.925 -20.614  0.00  0.00    +0.388 N 
ATOM      2  N   UNL     1      34.566 -19.075 -23.187  0.00  0.00    +0.388 N 
ATOM      3  C   UNL     1      33.450 -18.633 -20.986  0.00  0.00    -0.040 C 
ATOM      4  C   UNL     1      35.609 -17.555 -21.475  0.00  0.00    -0.040 C 
ATOM      5  C   UNL     1      34.188 -19.737 -20.170  0.00  0.00    -0.060 C 
ATOM      6  C   UNL     1      35.477 -17.930 -22.980  0.00  0.00    -0.060 C 
ATOM      7  C   UNL     1      34.233 -17.325 -20.846  0.00  0.00    -0.008 C 
ATOM      8  C   UNL     1      36.331 -18.657 -20.662  0.00  0.00    -0.079 C 
ATOM      9  C   UNL     1      33.281 -18.934 -22.495  0.00  0.00    -0.079 C 
ATOM     10  C   UNL     1      33.430 -21.076 -20.213  0.00  0.00    -0.021 C 
ATOM     11  C   UNL     1      35.085 -16.706 -23.837  0.00  0.00    -0.021 C 
ATOM     12  C   UNL     1      36.295 -20.908 -19.784  0.00  0.00    -0.077 C 
ATOM     13  C   UNL     1      34.421 -19.425 -24.602  0.00  0.00    -0.077 C 
ATOM     14  C   UNL     1      34.134 -22.135 -19.370  0.00  0.00    -0.004 C 
ATOM     15  C   UNL     1      34.964 -17.073 -25.313  0.00  0.00    -0.004 C 
ATOM     16  C   UNL     1      35.590 -22.264 -19.797  0.00  0.00    -0.023 C 
ATOM     17  C   UNL     1      34.017 -18.252 -25.497  0.00  0.00    -0.023 C 
ATOM     18  H   UNL     1      35.536 -20.292 -21.564  0.00  0.00    -0.080 HD
ATOM     19  H   UNL     1      35.020 -19.872 -22.740  0.00  0.00    -0.080 HD
ENDROOT
TORSDOF 0
ENDMDL
MODEL 9
REMARK VINA RESULT:      -6.0      4.254      7.470
REMARK  Name = 644020
REMARK  0 active torsions:
REMARK  status: ('A' for Active; 'I' for Inactive)
REMARK                            x       y       z     vdW  Elec       q    Type
REMARK                         _______ _______ _______ _____ _____    ______ ____
ROOT
ATOM      1  N   UNL     1      33.724 -11.641 -23.717  0.00  0.00    +0.388 N 
ATOM      2  N   UNL     1      34.076 -13.935 -21.985  0.00  0.00    +0.388 N 
ATOM      3  C   UNL     1      31.898 -13.233 -23.008  0.00  0.00    -0.040 C 
ATOM      4  C   UNL     1      33.704 -14.048 -24.470  0.00  0.00    -0.040 C 
ATOM      5  C   UNL     1      32.301 -11.763 -23.332  0.00  0.00    -0.060 C 
ATOM      6  C   UNL     1      34.474 -14.608 -23.238  0.00  0.00    -0.060 C 
ATOM      7  C   UNL     1      32.192 -14.096 -24.238  0.00  0.00    -0.008 C 
ATOM      8  C   UNL     1      34.095 -12.583 -24.784  0.00  0.00    -0.079 C 
ATOM      9  C   UNL     1      32.623 -13.862 -21.794  0.00  0.00    -0.079 C 
ATOM     10  C   UNL     1      31.982 -10.816 -22.161  0.00  0.00    -0.021 C 
ATOM     11  C   UNL     1      34.351 -16.145 -23.144  0.00  0.00    -0.021 C 
ATOM     12  C   UNL     1      34.070 -10.266 -24.099  0.00  0.00    -0.077 C 
ATOM     13  C   UNL     1      34.782 -14.467 -20.817  0.00  0.00    -0.077 C 
ATOM     14  C   UNL     1      32.333  -9.373 -22.508  0.00  0.00    -0.004 C 
ATOM     15  C   UNL     1      35.113 -16.693 -21.942  0.00  0.00    -0.004 C 
ATOM     16  C   UNL     1      33.783  -9.280 -22.967  0.00  0.00    -0.023 C 
ATOM     17  C   UNL     1      34.680 -15.985 -20.664  0.00  0.00    -0.023 C 
ATOM     18  H   UNL     1      34.264 -11.884 -22.887  0.00  0.00    -0.080 HD
ATOM     19  H   UNL     1      34.378 -12.966 -22.085  0.00  0.00    -0.080 HD
ENDROOT
TORSDOF 0
ENDMDL
