MODEL 1
REMARK VINA RESULT:      -8.7      0.000      0.000
REMARK  Name = 5479529
REMARK  9 active torsions:
REMARK  status: ('A' for Active; 'I' for Inactive)
REMARK    1  A    between atoms: CA_5  and  N_11
REMARK    2  A    between atoms: CA_7  and  C_24
REMARK    3  A    between atoms: C_8  and  C_27
REMARK    4  A    between atoms: C_12  and  C_15
REMARK    5  A    between atoms: N_14  and  O_21
REMARK    6  A    between atoms: C_15  and  C_17
REMARK    7  A    between atoms: C_24  and  O_25
REMARK    8  A    between atoms: C_27  and  O_28
REMARK    9  A    between atoms: O_28  and  C_31
REMARK                            x       y       z     vdW  Elec       q    Type
REMARK                         _______ _______ _______ _____ _____    ______ ____
ROOT
ATOM      1  S   UNL     1      37.140 -22.141 -16.132  0.00  0.00    -0.114 S 
ATOM      2  O   UNL     1      32.930 -24.104 -16.321  0.00  0.00    -0.273 OA
ATOM      3  N   UNL     1      34.646 -22.601 -16.918  0.00  0.00    -0.242 N 
ATOM      4  C   UNL     1      35.367 -21.915 -15.862  0.00  0.00    +0.155 C 
ATOM      5  CA  UNL     1      34.689 -22.904 -14.888  0.00  0.00    +0.179 C 
ATOM      6  C   UNL     1      33.851 -23.347 -16.120  0.00  0.00    +0.251 C 
ATOM      7  CA  UNL     1      34.872 -22.398 -18.242  0.00  0.00    +0.127 C 
ATOM      8  C   UNL     1      35.984 -21.759 -18.680  0.00  0.00    +0.030 C 
ATOM      9  C   UNL     1      37.112 -21.308 -17.755  0.00  0.00    +0.086 C 
ENDROOT
BRANCH   5  11
ATOM     10  O   UNL     1      36.529 -22.765 -12.591  0.00  0.00    -0.268 OA
ATOM     11  N   UNL     1      35.493 -23.981 -14.311  0.00  0.00    -0.291 N 
ATOM     12  C   UNL     1      36.327 -23.791 -13.222  0.00  0.00    +0.270 C 
ATOM     13  H   UNL     1      35.439 -24.878 -14.712  0.00  0.00    +0.150 HD
BRANCH  12  15
ATOM     14  N   UNL     1      36.582 -25.777 -11.832  0.00  0.00    -0.075 NA
ATOM     15  C   UNL     1      37.043 -25.044 -12.800  0.00  0.00    +0.207 C 
BRANCH  15  17
ATOM     16  O   UNL     1      39.415 -24.751 -13.168  0.00  0.00    -0.449 OA
ATOM     17  C   UNL     1      38.271 -25.400 -13.511  0.00  0.00    +0.171 C 
ATOM     18  C   UNL     1      38.514 -26.310 -14.513  0.00  0.00    +0.043 C 
ATOM     19  C   UNL     1      39.896 -26.215 -14.804  0.00  0.00    +0.044 C 
ATOM     20  C   UNL     1      40.399 -25.253 -13.959  0.00  0.00    +0.180 C 
ENDBRANCH  15  17
BRANCH  14  21
ATOM     21  O   UNL     1      35.402 -25.242 -11.296  0.00  0.00    -0.373 OA
ATOM     22  C   UNL     1      35.720 -24.620 -10.062  0.00  0.00    +0.288 C 
ENDBRANCH  14  21
ENDBRANCH  12  15
ENDBRANCH   5  11
BRANCH   7  24
ATOM     23  OXT UNL     1      33.961 -24.070 -19.664  0.00  0.00    -0.244 OA
ATOM     24  C   UNL     1      33.889 -22.958 -19.180  0.00  0.00    +0.352 C 
BRANCH  24  25
ATOM     25  O   UNL     1      32.918 -22.052 -19.405  0.00  0.00    -0.476 OA
ATOM     26  H   UNL     1      32.080 -22.152 -18.996  0.00  0.00    +0.295 HD
ENDBRANCH  24  25
ENDBRANCH   7  24
BRANCH   8  27
ATOM     27  C   UNL     1      36.266 -21.423 -20.124  0.00  0.00    +0.235 C 
BRANCH  27  28
ATOM     28  O   UNL     1      36.339 -20.021 -20.273  0.00  0.00    -0.430 OA
BRANCH  28  31
ATOM     29  O   UNL     1      34.223 -19.989 -21.180  0.00  0.00    -0.227 OA
ATOM     30  N   UNL     1      35.417 -18.045 -20.887  0.00  0.00    -0.295 N 
ATOM     31  C   UNL     1      35.238 -19.404 -20.812  0.00  0.00    +0.399 C 
ATOM     32  H   UNL     1      36.259 -17.642 -20.573  0.00  0.00    +0.148 HD
ATOM     33  H   UNL     1      34.705 -17.474 -21.255  0.00  0.00    +0.148 HD
ENDBRANCH  28  31
ENDBRANCH  27  28
ENDBRANCH   8  27
TORSDOF 9
ENDMDL
MODEL 2
REMARK VINA RESULT:      -8.6     10.457     15.124
REMARK  Name = 5479529
REMARK  9 active torsions:
REMARK  status: ('A' for Active; 'I' for Inactive)
REMARK    1  A    between atoms: CA_5  and  N_11
REMARK    2  A    between atoms: CA_7  and  C_24
REMARK    3  A    between atoms: C_8  and  C_27
REMARK    4  A    between atoms: C_12  and  C_15
REMARK    5  A    between atoms: N_14  and  O_21
REMARK    6  A    between atoms: C_15  and  C_17
REMARK    7  A    between atoms: C_24  and  O_25
REMARK    8  A    between atoms: C_27  and  O_28
REMARK    9  A    between atoms: O_28  and  C_31
REMARK                            x       y       z     vdW  Elec       q    Type
REMARK                         _______ _______ _______ _____ _____    ______ ____
ROOT
ATOM      1  S   UNL     1      33.685 -12.155 -24.249  0.00  0.00    -0.114 S 
ATOM      2  O   UNL     1      31.946 -12.478 -19.949  0.00  0.00    -0.273 OA
ATOM      3  N   UNL     1      32.691 -13.256 -22.047  0.00  0.00    -0.242 N 
ATOM      4  C   UNL     1      32.242 -12.568 -23.243  0.00  0.00    +0.155 C 
ATOM      5  CA  UNL     1      31.725 -11.462 -22.296  0.00  0.00    +0.179 C 
ATOM      6  C   UNL     1      32.077 -12.453 -21.151  0.00  0.00    +0.251 C 
ATOM      7  CA  UNL     1      33.487 -14.356 -22.063  0.00  0.00    +0.127 C 
ATOM      8  C   UNL     1      34.162 -14.724 -23.179  0.00  0.00    +0.030 C 
ATOM      9  C   UNL     1      34.173 -13.900 -24.464  0.00  0.00    +0.086 C 
ENDROOT
BRANCH   5  11
ATOM     10  O   UNL     1      30.870  -8.803 -23.235  0.00  0.00    -0.268 OA
ATOM     11  N   UNL     1      32.462 -10.201 -22.224  0.00  0.00    -0.291 N 
ATOM     12  C   UNL     1      31.951  -9.007 -22.704  0.00  0.00    +0.270 C 
ATOM     13  H   UNL     1      33.359 -10.200 -21.818  0.00  0.00    +0.150 HD
BRANCH  12  15
ATOM     14  N   UNL     1      33.281  -7.503 -21.321  0.00  0.00    -0.075 NA
ATOM     15  C   UNL     1      32.884  -7.844 -22.510  0.00  0.00    +0.207 C 
BRANCH  15  17
ATOM     16  O   UNL     1      32.445  -6.234 -24.261  0.00  0.00    -0.449 OA
ATOM     17  C   UNL     1      33.318  -7.112 -23.700  0.00  0.00    +0.171 C 
ATOM     18  C   UNL     1      34.499  -7.137 -24.405  0.00  0.00    +0.043 C 
ATOM     19  C   UNL     1      34.342  -6.214 -25.467  0.00  0.00    +0.044 C 
ATOM     20  C   UNL     1      33.076  -5.692 -25.335  0.00  0.00    +0.180 C 
ENDBRANCH  15  17
BRANCH  14  21
ATOM     21  O   UNL     1      32.737  -8.338 -20.335  0.00  0.00    -0.373 OA
ATOM     22  C   UNL     1      31.933  -7.542 -19.479  0.00  0.00    +0.288 C 
ENDBRANCH  14  21
ENDBRANCH  12  15
ENDBRANCH   5  11
BRANCH   7  24
ATOM     23  OXT UNL     1      34.672 -15.177 -20.174  0.00  0.00    -0.244 OA
ATOM     24  C   UNL     1      33.634 -15.092 -20.799  0.00  0.00    +0.352 C 
BRANCH  24  25
ATOM     25  O   UNL     1      32.451 -15.641 -20.460  0.00  0.00    -0.476 OA
ATOM     26  H   UNL     1      32.424 -16.363 -19.864  0.00  0.00    +0.295 HD
ENDBRANCH  24  25
ENDBRANCH   7  24
BRANCH   8  27
ATOM     27  C   UNL     1      34.999 -15.974 -23.300  0.00  0.00    +0.235 C 
BRANCH  27  28
ATOM     28  O   UNL     1      34.181 -17.047 -23.718  0.00  0.00    -0.430 OA
BRANCH  28  31
ATOM     29  O   UNL     1      34.758 -17.025 -25.946  0.00  0.00    -0.227 OA
ATOM     30  N   UNL     1      34.518 -19.006 -24.803  0.00  0.00    -0.295 N 
ATOM     31  C   UNL     1      34.507 -17.637 -24.913  0.00  0.00    +0.399 C 
ATOM     32  H   UNL     1      34.307 -19.432 -23.941  0.00  0.00    +0.148 HD
ATOM     33  H   UNL     1      34.736 -19.561 -25.586  0.00  0.00    +0.148 HD
ENDBRANCH  28  31
ENDBRANCH  27  28
ENDBRANCH   8  27
TORSDOF 9
ENDMDL
MODEL 3
REMARK VINA RESULT:      -8.5      4.466      8.194
REMARK  Name = 5479529
REMARK  9 active torsions:
REMARK  status: ('A' for Active; 'I' for Inactive)
REMARK    1  A    between atoms: CA_5  and  N_11
REMARK    2  A    between atoms: CA_7  and  C_24
REMARK    3  A    between atoms: C_8  and  C_27
REMARK    4  A    between atoms: C_12  and  C_15
REMARK    5  A    between atoms: N_14  and  O_21
REMARK    6  A    between atoms: C_15  and  C_17
REMARK    7  A    between atoms: C_24  and  O_25
REMARK    8  A    between atoms: C_27  and  O_28
REMARK    9  A    between atoms: O_28  and  C_31
REMARK                            x       y       z     vdW  Elec       q    Type
REMARK                         _______ _______ _______ _____ _____    ______ ____
ROOT
ATOM      1  S   UNL     1      34.941 -19.410 -23.400  0.00  0.00    -0.114 S 
ATOM      2  O   UNL     1      35.023 -15.959 -20.287  0.00  0.00    -0.273 OA
ATOM      3  N   UNL     1      35.061 -16.942 -22.430  0.00  0.00    -0.242 N 
ATOM      4  C   UNL     1      35.921 -18.089 -22.653  0.00  0.00    +0.155 C 
ATOM      5  CA  UNL     1      36.088 -18.141 -21.119  0.00  0.00    +0.179 C 
ATOM      6  C   UNL     1      35.331 -16.783 -21.116  0.00  0.00    +0.251 C 
ATOM      7  CA  UNL     1      34.301 -16.368 -23.399  0.00  0.00    +0.127 C 
ATOM      8  C   UNL     1      34.062 -16.998 -24.575  0.00  0.00    +0.030 C 
ATOM      9  C   UNL     1      34.527 -18.420 -24.876  0.00  0.00    +0.086 C 
ENDROOT
BRANCH   5  11
ATOM     10  O   UNL     1      37.097 -20.817 -20.406  0.00  0.00    -0.268 OA
ATOM     11  N   UNL     1      35.399 -19.196 -20.374  0.00  0.00    -0.291 N 
ATOM     12  C   UNL     1      35.982 -20.421 -20.100  0.00  0.00    +0.270 C 
ATOM     13  H   UNL     1      34.483 -19.028 -20.055  0.00  0.00    +0.150 HD
BRANCH  12  15
ATOM     14  N   UNL     1      33.878 -21.590 -19.714  0.00  0.00    -0.075 NA
ATOM     15  C   UNL     1      35.088 -21.338 -19.313  0.00  0.00    +0.207 C 
BRANCH  15  17
ATOM     16  O   UNL     1      34.832 -22.785 -17.391  0.00  0.00    -0.449 OA
ATOM     17  C   UNL     1      35.624 -21.926 -18.085  0.00  0.00    +0.171 C 
ATOM     18  C   UNL     1      36.839 -21.773 -17.457  0.00  0.00    +0.043 C 
ATOM     19  C   UNL     1      36.790 -22.591 -16.303  0.00  0.00    +0.044 C 
ATOM     20  C   UNL     1      35.549 -23.186 -16.309  0.00  0.00    +0.180 C 
ENDBRANCH  15  17
BRANCH  14  21
ATOM     21  O   UNL     1      33.579 -20.916 -20.907  0.00  0.00    -0.373 OA
ATOM     22  C   UNL     1      32.471 -20.063 -20.665  0.00  0.00    +0.288 C 
ENDBRANCH  14  21
ENDBRANCH  12  15
ENDBRANCH   5  11
BRANCH   7  24
ATOM     23  OXT UNL     1      32.646 -14.920 -22.498  0.00  0.00    -0.244 OA
ATOM     24  C   UNL     1      33.698 -15.065 -23.089  0.00  0.00    +0.352 C 
BRANCH  24  25
ATOM     25  O   UNL     1      34.490 -14.081 -23.559  0.00  0.00    -0.476 OA
ATOM     26  H   UNL     1      34.471 -13.860 -24.469  0.00  0.00    +0.295 HD
ENDBRANCH  24  25
ENDBRANCH   7  24
BRANCH   8  27
ATOM     27  C   UNL     1      33.298 -16.395 -25.729  0.00  0.00    +0.235 C 
BRANCH  27  28
ATOM     28  O   UNL     1      34.089 -15.399 -26.344  0.00  0.00    -0.430 OA
BRANCH  28  31
ATOM     29  O   UNL     1      33.786 -13.651 -27.811  0.00  0.00    -0.227 OA
ATOM     30  N   UNL     1      32.290 -14.043 -26.109  0.00  0.00    -0.295 N 
ATOM     31  C   UNL     1      33.422 -14.308 -26.841  0.00  0.00    +0.399 C 
ATOM     32  H   UNL     1      32.057 -14.612 -25.340  0.00  0.00    +0.148 HD
ATOM     33  H   UNL     1      31.712 -13.284 -26.353  0.00  0.00    +0.148 HD
ENDBRANCH  28  31
ENDBRANCH  27  28
ENDBRANCH   8  27
TORSDOF 9
ENDMDL
MODEL 4
REMARK VINA RESULT:      -8.4      9.469     14.369
REMARK  Name = 5479529
REMARK  9 active torsions:
REMARK  status: ('A' for Active; 'I' for Inactive)
REMARK    1  A    between atoms: CA_5  and  N_11
REMARK    2  A    between atoms: CA_7  and  C_24
REMARK    3  A    between atoms: C_8  and  C_27
REMARK    4  A    between atoms: C_12  and  C_15
REMARK    5  A    between atoms: N_14  and  O_21
REMARK    6  A    between atoms: C_15  and  C_17
REMARK    7  A    between atoms: C_24  and  O_25
REMARK    8  A    between atoms: C_27  and  O_28
REMARK    9  A    between atoms: O_28  and  C_31
REMARK                            x       y       z     vdW  Elec       q    Type
REMARK                         _______ _______ _______ _____ _____    ______ ____
ROOT
ATOM      1  S   UNL     1      33.570 -13.286 -24.573  0.00  0.00    -0.114 S 
ATOM      2  O   UNL     1      32.544 -13.603 -20.050  0.00  0.00    -0.273 OA
ATOM      3  N   UNL     1      32.988 -14.388 -22.229  0.00  0.00    -0.242 N 
ATOM      4  C   UNL     1      32.324 -13.745 -23.348  0.00  0.00    +0.155 C 
ATOM      5  CA  UNL     1      31.909 -12.645 -22.346  0.00  0.00    +0.179 C 
ATOM      6  C   UNL     1      32.483 -13.596 -21.257  0.00  0.00    +0.251 C 
ATOM      7  CA  UNL     1      33.824 -15.451 -22.357  0.00  0.00    +0.127 C 
ATOM      8  C   UNL     1      34.332 -15.809 -23.561  0.00  0.00    +0.030 C 
ATOM      9  C   UNL     1      34.102 -15.011 -24.841  0.00  0.00    +0.086 C 
ENDROOT
BRANCH   5  11
ATOM     10  O   UNL     1      30.733 -10.006 -22.923  0.00  0.00    -0.268 OA
ATOM     11  N   UNL     1      32.587 -11.350 -22.406  0.00  0.00    -0.291 N 
ATOM     12  C   UNL     1      31.920 -10.170 -22.690  0.00  0.00    +0.270 C 
ATOM     13  H   UNL     1      33.556 -11.316 -22.238  0.00  0.00    +0.150 HD
BRANCH  12  15
ATOM     14  N   UNL     1      33.811  -8.877 -23.522  0.00  0.00    -0.075 NA
ATOM     15  C   UNL     1      32.822  -8.967 -22.686  0.00  0.00    +0.207 C 
BRANCH  15  17
ATOM     16  O   UNL     1      32.045  -6.738 -22.161  0.00  0.00    -0.449 OA
ATOM     17  C   UNL     1      32.550  -7.914 -21.706  0.00  0.00    +0.171 C 
ATOM     18  C   UNL     1      32.713  -7.876 -20.341  0.00  0.00    +0.043 C 
ATOM     19  C   UNL     1      32.279  -6.593 -19.930  0.00  0.00    +0.044 C 
ATOM     20  C   UNL     1      31.882  -5.939 -21.073  0.00  0.00    +0.180 C 
ENDBRANCH  15  17
BRANCH  14  21
ATOM     21  O   UNL     1      33.884  -9.999 -24.359  0.00  0.00    -0.373 OA
ATOM     22  C   UNL     1      35.173 -10.023 -24.953  0.00  0.00    +0.288 C 
ENDBRANCH  14  21
ENDBRANCH  12  15
ENDBRANCH   5  11
BRANCH   7  24
ATOM     23  OXT UNL     1      35.051 -15.763 -20.346  0.00  0.00    -0.244 OA
ATOM     24  C   UNL     1      34.203 -16.154 -21.123  0.00  0.00    +0.352 C 
BRANCH  24  25
ATOM     25  O   UNL     1      33.467 -17.276 -21.003  0.00  0.00    -0.476 OA
ATOM     26  H   UNL     1      33.035 -17.468 -20.193  0.00  0.00    +0.295 HD
ENDBRANCH  24  25
ENDBRANCH   7  24
BRANCH   8  27
ATOM     27  C   UNL     1      35.200 -17.022 -23.797  0.00  0.00    +0.235 C 
BRANCH  27  28
ATOM     28  O   UNL     1      34.444 -18.017 -24.454  0.00  0.00    -0.430 OA
BRANCH  28  31
ATOM     29  O   UNL     1      34.892 -20.226 -24.924  0.00  0.00    -0.227 OA
ATOM     30  N   UNL     1      34.778 -19.475 -22.753  0.00  0.00    -0.295 N 
ATOM     31  C   UNL     1      34.719 -19.318 -24.116  0.00  0.00    +0.399 C 
ATOM     32  H   UNL     1      34.630 -18.701 -22.162  0.00  0.00    +0.148 HD
ATOM     33  H   UNL     1      34.969 -20.360 -22.367  0.00  0.00    +0.148 HD
ENDBRANCH  28  31
ENDBRANCH  27  28
ENDBRANCH   8  27
TORSDOF 9
ENDMDL
MODEL 5
REMARK VINA RESULT:      -7.8      2.510      7.915
REMARK  Name = 5479529
REMARK  9 active torsions:
REMARK  status: ('A' for Active; 'I' for Inactive)
REMARK    1  A    between atoms: CA_5  and  N_11
REMARK    2  A    between atoms: CA_7  and  C_24
REMARK    3  A    between atoms: C_8  and  C_27
REMARK    4  A    between atoms: C_12  and  C_15
REMARK    5  A    between atoms: N_14  and  O_21
REMARK    6  A    between atoms: C_15  and  C_17
REMARK    7  A    between atoms: C_24  and  O_25
REMARK    8  A    between atoms: C_27  and  O_28
REMARK    9  A    between atoms: O_28  and  C_31
REMARK                            x       y       z     vdW  Elec       q    Type
REMARK                         _______ _______ _______ _____ _____    ______ ____
ROOT
ATOM      1  S   UNL     1      35.578 -23.829 -15.929  0.00  0.00    -0.114 S 
ATOM      2  O   UNL     1      31.207 -22.487 -16.766  0.00  0.00    -0.273 OA
ATOM      3  N   UNL     1      32.935 -23.698 -15.715  0.00  0.00    -0.242 N 
ATOM      4  C   UNL     1      33.952 -24.320 -16.543  0.00  0.00    +0.155 C 
ATOM      5  CA  UNL     1      33.377 -23.485 -17.708  0.00  0.00    +0.179 C 
ATOM      6  C   UNL     1      32.240 -23.112 -16.714  0.00  0.00    +0.251 C 
ATOM      7  CA  UNL     1      32.894 -23.807 -14.361  0.00  0.00    +0.127 C 
ATOM      8  C   UNL     1      33.959 -24.258 -13.655  0.00  0.00    +0.030 C 
ATOM      9  C   UNL     1      35.310 -24.583 -14.289  0.00  0.00    +0.086 C 
ENDROOT
BRANCH   5  11
ATOM     10  O   UNL     1      34.860 -23.207 -20.238  0.00  0.00    -0.268 OA
ATOM     11  N   UNL     1      34.138 -22.330 -18.185  0.00  0.00    -0.291 N 
ATOM     12  C   UNL     1      34.798 -22.320 -19.402  0.00  0.00    +0.270 C 
ATOM     13  H   UNL     1      34.183 -21.527 -17.618  0.00  0.00    +0.150 HD
BRANCH  12  15
ATOM     14  N   UNL     1      36.598 -20.713 -19.057  0.00  0.00    -0.075 NA
ATOM     15  C   UNL     1      35.502 -21.021 -19.681  0.00  0.00    +0.207 C 
BRANCH  15  17
ATOM     16  O   UNL     1      35.744 -19.399 -21.459  0.00  0.00    -0.449 OA
ATOM     17  C   UNL     1      34.906 -20.122 -20.670  0.00  0.00    +0.171 C 
ATOM     18  C   UNL     1      33.594 -19.847 -20.978  0.00  0.00    +0.043 C 
ATOM     19  C   UNL     1      33.627 -18.894 -22.024  0.00  0.00    +0.044 C 
ATOM     20  C   UNL     1      34.957 -18.655 -22.281  0.00  0.00    +0.180 C 
ENDBRANCH  15  17
BRANCH  14  21
ATOM     21  O   UNL     1      36.978 -21.716 -18.155  0.00  0.00    -0.373 OA
ATOM     22  C   UNL     1      37.379 -21.093 -16.945  0.00  0.00    +0.288 C 
ENDBRANCH  14  21
ENDBRANCH  12  15
ENDBRANCH   5  11
BRANCH   7  24
ATOM     23  OXT UNL     1      30.851 -24.094 -13.182  0.00  0.00    -0.244 OA
ATOM     24  C   UNL     1      31.667 -23.352 -13.693  0.00  0.00    +0.352 C 
BRANCH  24  25
ATOM     25  O   UNL     1      31.603 -22.007 -13.740  0.00  0.00    -0.476 OA
ATOM     26  H   UNL     1      32.341 -21.514 -14.042  0.00  0.00    +0.295 HD
ENDBRANCH  24  25
ENDBRANCH   7  24
BRANCH   8  27
ATOM     27  C   UNL     1      33.964 -24.484 -12.163  0.00  0.00    +0.235 C 
BRANCH  27  28
ATOM     28  O   UNL     1      34.886 -23.601 -11.559  0.00  0.00    -0.430 OA
BRANCH  28  31
ATOM     29  O   UNL     1      35.413 -24.910  -9.741  0.00  0.00    -0.227 OA
ATOM     30  N   UNL     1      37.038 -23.733 -10.864  0.00  0.00    -0.295 N 
ATOM     31  C   UNL     1      35.748 -24.148 -10.643  0.00  0.00    +0.399 C 
ATOM     32  H   UNL     1      37.236 -23.119 -11.609  0.00  0.00    +0.148 HD
ATOM     33  H   UNL     1      37.764 -24.048 -10.280  0.00  0.00    +0.148 HD
ENDBRANCH  28  31
ENDBRANCH  27  28
ENDBRANCH   8  27
TORSDOF 9
ENDMDL
MODEL 6
REMARK VINA RESULT:      -7.8      2.561      7.504
REMARK  Name = 5479529
REMARK  9 active torsions:
REMARK  status: ('A' for Active; 'I' for Inactive)
REMARK    1  A    between atoms: CA_5  and  N_11
REMARK    2  A    between atoms: CA_7  and  C_24
REMARK    3  A    between atoms: C_8  and  C_27
REMARK    4  A    between atoms: C_12  and  C_15
REMARK    5  A    between atoms: N_14  and  O_21
REMARK    6  A    between atoms: C_15  and  C_17
REMARK    7  A    between atoms: C_24  and  O_25
REMARK    8  A    between atoms: C_27  and  O_28
REMARK    9  A    between atoms: O_28  and  C_31
REMARK                            x       y       z     vdW  Elec       q    Type
REMARK                         _______ _______ _______ _____ _____    ______ ____
ROOT
ATOM      1  S   UNL     1      35.593 -25.040 -15.674  0.00  0.00    -0.114 S 
ATOM      2  O   UNL     1      33.588 -23.094 -11.958  0.00  0.00    -0.273 OA
ATOM      3  N   UNL     1      35.151 -24.413 -13.132  0.00  0.00    -0.242 N 
ATOM      4  C   UNL     1      34.664 -25.326 -14.150  0.00  0.00    +0.155 C 
ATOM      5  CA  UNL     1      33.311 -24.593 -14.023  0.00  0.00    +0.179 C 
ATOM      6  C   UNL     1      33.956 -23.875 -12.804  0.00  0.00    +0.251 C 
ATOM      7  CA  UNL     1      36.458 -24.301 -12.781  0.00  0.00    +0.127 C 
ATOM      8  C   UNL     1      37.445 -24.818 -13.553  0.00  0.00    +0.030 C 
ATOM      9  C   UNL     1      37.193 -25.471 -14.911  0.00  0.00    +0.086 C 
ENDROOT
BRANCH   5  11
ATOM     10  O   UNL     1      30.984 -24.816 -15.818  0.00  0.00    -0.268 OA
ATOM     11  N   UNL     1      32.905 -23.680 -15.091  0.00  0.00    -0.291 N 
ATOM     12  C   UNL     1      31.783 -23.894 -15.873  0.00  0.00    +0.270 C 
ATOM     13  H   UNL     1      33.453 -22.879 -15.262  0.00  0.00    +0.150 HD
BRANCH  12  15
ATOM     14  N   UNL     1      30.435 -22.174 -16.953  0.00  0.00    -0.075 NA
ATOM     15  C   UNL     1      31.562 -22.816 -16.898  0.00  0.00    +0.207 C 
BRANCH  15  17
ATOM     16  O   UNL     1      32.465 -21.541 -18.746  0.00  0.00    -0.449 OA
ATOM     17  C   UNL     1      32.655 -22.526 -17.828  0.00  0.00    +0.171 C 
ATOM     18  C   UNL     1      33.905 -23.083 -17.968  0.00  0.00    +0.043 C 
ATOM     19  C   UNL     1      34.523 -22.395 -19.039  0.00  0.00    +0.044 C 
ATOM     20  C   UNL     1      33.607 -21.468 -19.478  0.00  0.00    +0.180 C 
ENDBRANCH  15  17
BRANCH  14  21
ATOM     21  O   UNL     1      29.537 -22.621 -15.974  0.00  0.00    -0.373 OA
ATOM     22  C   UNL     1      28.231 -22.587 -16.525  0.00  0.00    +0.288 C 
ENDBRANCH  14  21
ENDBRANCH  12  15
ENDBRANCH   5  11
BRANCH   7  24
ATOM     23  OXT UNL     1      37.267 -22.434 -11.552  0.00  0.00    -0.244 OA
ATOM     24  C   UNL     1      36.759 -23.538 -11.561  0.00  0.00    +0.352 C 
BRANCH  24  25
ATOM     25  O   UNL     1      36.383 -24.252 -10.483  0.00  0.00    -0.476 OA
ATOM     26  H   UNL     1      36.995 -24.826 -10.064  0.00  0.00    +0.295 HD
ENDBRANCH  24  25
ENDBRANCH   7  24
BRANCH   8  27
ATOM     27  C   UNL     1      38.910 -24.806 -13.193  0.00  0.00    +0.235 C 
BRANCH  27  28
ATOM     28  O   UNL     1      39.679 -24.636 -14.365  0.00  0.00    -0.430 OA
BRANCH  28  31
ATOM     29  O   UNL     1      40.638 -25.971 -15.978  0.00  0.00    -0.227 OA
ATOM     30  N   UNL     1      40.753 -26.534 -13.751  0.00  0.00    -0.295 N 
ATOM     31  C   UNL     1      40.379 -25.733 -14.802  0.00  0.00    +0.399 C 
ATOM     32  H   UNL     1      40.511 -26.282 -12.830  0.00  0.00    +0.148 HD
ATOM     33  H   UNL     1      41.263 -27.359 -13.918  0.00  0.00    +0.148 HD
ENDBRANCH  28  31
ENDBRANCH  27  28
ENDBRANCH   8  27
TORSDOF 9
ENDMDL
MODEL 7
REMARK VINA RESULT:      -7.6      3.157      8.189
REMARK  Name = 5479529
REMARK  9 active torsions:
REMARK  status: ('A' for Active; 'I' for Inactive)
REMARK    1  A    between atoms: CA_5  and  N_11
REMARK    2  A    between atoms: CA_7  and  C_24
REMARK    3  A    between atoms: C_8  and  C_27
REMARK    4  A    between atoms: C_12  and  C_15
REMARK    5  A    between atoms: N_14  and  O_21
REMARK    6  A    between atoms: C_15  and  C_17
REMARK    7  A    between atoms: C_24  and  O_25
REMARK    8  A    between atoms: C_27  and  O_28
REMARK    9  A    between atoms: O_28  and  C_31
REMARK                            x       y       z     vdW  Elec       q    Type
REMARK                         _______ _______ _______ _____ _____    ______ ____
ROOT
ATOM      1  S   UNL     1      35.133 -25.030 -15.562  0.00  0.00    -0.114 S 
ATOM      2  O   UNL     1      33.556 -23.198 -11.591  0.00  0.00    -0.273 OA
ATOM      3  N   UNL     1      35.018 -24.419 -12.981  0.00  0.00    -0.242 N 
ATOM      4  C   UNL     1      34.452 -25.367 -13.923  0.00  0.00    +0.155 C 
ATOM      5  CA  UNL     1      33.086 -24.723 -13.602  0.00  0.00    +0.179 C 
ATOM      6  C   UNL     1      33.850 -23.958 -12.483  0.00  0.00    +0.251 C 
ATOM      7  CA  UNL     1      36.352 -24.220 -12.819  0.00  0.00    +0.127 C 
ATOM      8  C   UNL     1      37.250 -24.677 -13.726  0.00  0.00    +0.030 C 
ATOM      9  C   UNL     1      36.851 -25.351 -15.036  0.00  0.00    +0.086 C 
ENDROOT
BRANCH   5  11
ATOM     10  O   UNL     1      30.765 -25.276 -15.332  0.00  0.00    -0.268 OA
ATOM     11  N   UNL     1      32.474 -23.843 -14.597  0.00  0.00    -0.291 N 
ATOM     12  C   UNL     1      31.378 -24.220 -15.355  0.00  0.00    +0.270 C 
ATOM     13  H   UNL     1      32.857 -22.947 -14.735  0.00  0.00    +0.150 HD
BRANCH  12  15
ATOM     14  N   UNL     1      31.751 -22.595 -17.134  0.00  0.00    -0.075 NA
ATOM     15  C   UNL     1      30.919 -23.147 -16.303  0.00  0.00    +0.207 C 
BRANCH  15  17
ATOM     16  O   UNL     1      28.816 -22.709 -17.416  0.00  0.00    -0.449 OA
ATOM     17  C   UNL     1      29.512 -22.745 -16.249  0.00  0.00    +0.171 C 
ATOM     18  C   UNL     1      28.710 -22.376 -15.195  0.00  0.00    +0.043 C 
ATOM     19  C   UNL     1      27.438 -22.096 -15.749  0.00  0.00    +0.044 C 
ATOM     20  C   UNL     1      27.554 -22.314 -17.102  0.00  0.00    +0.180 C 
ENDBRANCH  15  17
BRANCH  14  21
ATOM     21  O   UNL     1      33.040 -23.130 -17.005  0.00  0.00    -0.373 OA
ATOM     22  C   UNL     1      33.799 -22.728 -18.135  0.00  0.00    +0.288 C 
ENDBRANCH  14  21
ENDBRANCH  12  15
ENDBRANCH   5  11
BRANCH   7  24
ATOM     23  OXT UNL     1      37.306 -22.344 -11.717  0.00  0.00    -0.244 OA
ATOM     24  C   UNL     1      36.773 -23.433 -11.651  0.00  0.00    +0.352 C 
BRANCH  24  25
ATOM     25  O   UNL     1      36.473 -24.108 -10.525  0.00  0.00    -0.476 OA
ATOM     26  H   UNL     1      36.649 -23.724  -9.688  0.00  0.00    +0.295 HD
ENDBRANCH  24  25
ENDBRANCH   7  24
BRANCH   8  27
ATOM     27  C   UNL     1      38.748 -24.568 -13.578  0.00  0.00    +0.235 C 
BRANCH  27  28
ATOM     28  O   UNL     1      39.313 -25.862 -13.570  0.00  0.00    -0.430 OA
BRANCH  28  31
ATOM     29  O   UNL     1      41.334 -26.800 -14.149  0.00  0.00    -0.227 OA
ATOM     30  N   UNL     1      40.254 -25.346 -15.565  0.00  0.00    -0.295 N 
ATOM     31  C   UNL     1      40.383 -26.068 -14.404  0.00  0.00    +0.399 C 
ATOM     32  H   UNL     1      39.463 -24.776 -15.704  0.00  0.00    +0.148 HD
ATOM     33  H   UNL     1      40.951 -25.397 -16.257  0.00  0.00    +0.148 HD
ENDBRANCH  28  31
ENDBRANCH  27  28
ENDBRANCH   8  27
TORSDOF 9
ENDMDL
MODEL 8
REMARK VINA RESULT:      -7.5      3.062      6.049
REMARK  Name = 5479529
REMARK  9 active torsions:
REMARK  status: ('A' for Active; 'I' for Inactive)
REMARK    1  A    between atoms: CA_5  and  N_11
REMARK    2  A    between atoms: CA_7  and  C_24
REMARK    3  A    between atoms: C_8  and  C_27
REMARK    4  A    between atoms: C_12  and  C_15
REMARK    5  A    between atoms: N_14  and  O_21
REMARK    6  A    between atoms: C_15  and  C_17
REMARK    7  A    between atoms: C_24  and  O_25
REMARK    8  A    between atoms: C_27  and  O_28
REMARK    9  A    between atoms: O_28  and  C_31
REMARK                            x       y       z     vdW  Elec       q    Type
REMARK                         _______ _______ _______ _____ _____    ______ ____
ROOT
ATOM      1  S   UNL     1      32.662 -20.494 -20.005  0.00  0.00    -0.114 S 
ATOM      2  O   UNL     1      37.036 -21.760 -19.070  0.00  0.00    -0.273 OA
ATOM      3  N   UNL     1      35.277 -20.818 -20.326  0.00  0.00    -0.242 N 
ATOM      4  C   UNL     1      34.042 -21.567 -20.463  0.00  0.00    +0.155 C 
ATOM      5  CA  UNL     1      34.591 -22.490 -19.353  0.00  0.00    +0.179 C 
ATOM      6  C   UNL     1      35.917 -21.695 -19.522  0.00  0.00    +0.251 C 
ATOM      7  CA  UNL     1      35.500 -19.616 -20.918  0.00  0.00    +0.127 C 
ATOM      8  C   UNL     1      34.485 -18.886 -21.441  0.00  0.00    +0.030 C 
ATOM      9  C   UNL     1      33.017 -19.288 -21.326  0.00  0.00    +0.086 C 
ENDROOT
BRANCH   5  11
ATOM     10  O   UNL     1      33.556 -24.664 -17.655  0.00  0.00    -0.268 OA
ATOM     11  N   UNL     1      34.018 -22.391 -18.011  0.00  0.00    -0.291 N 
ATOM     12  C   UNL     1      33.562 -23.493 -17.308  0.00  0.00    +0.270 C 
ATOM     13  H   UNL     1      33.953 -21.503 -17.589  0.00  0.00    +0.150 HD
BRANCH  12  15
ATOM     14  N   UNL     1      33.827 -23.006 -14.935  0.00  0.00    -0.075 NA
ATOM     15  C   UNL     1      33.026 -23.146 -15.947  0.00  0.00    +0.207 C 
BRANCH  15  17
ATOM     16  O   UNL     1      30.857 -22.714 -16.926  0.00  0.00    -0.449 OA
ATOM     17  C   UNL     1      31.579 -22.981 -15.806  0.00  0.00    +0.171 C 
ATOM     18  C   UNL     1      30.757 -23.045 -14.705  0.00  0.00    +0.043 C 
ATOM     19  C   UNL     1      29.446 -22.802 -15.179  0.00  0.00    +0.044 C 
ATOM     20  C   UNL     1      29.560 -22.607 -16.536  0.00  0.00    +0.180 C 
ENDBRANCH  15  17
BRANCH  14  21
ATOM     21  O   UNL     1      35.164 -23.216 -15.301  0.00  0.00    -0.373 OA
ATOM     22  C   UNL     1      35.739 -24.122 -14.373  0.00  0.00    +0.288 C 
ENDBRANCH  14  21
ENDBRANCH  12  15
ENDBRANCH   5  11
BRANCH   7  24
ATOM     23  OXT UNL     1      37.499 -18.787 -21.902  0.00  0.00    -0.244 OA
ATOM     24  C   UNL     1      36.882 -19.114 -20.908  0.00  0.00    +0.352 C 
BRANCH  24  25
ATOM     25  O   UNL     1      37.335 -19.077 -19.640  0.00  0.00    -0.476 OA
ATOM     26  H   UNL     1      36.729 -19.106 -18.925  0.00  0.00    +0.295 HD
ENDBRANCH  24  25
ENDBRANCH   7  24
BRANCH   8  27
ATOM     27  C   UNL     1      34.661 -17.584 -22.184  0.00  0.00    +0.235 C 
BRANCH  27  28
ATOM     28  O   UNL     1      34.760 -17.845 -23.568  0.00  0.00    -0.430 OA
BRANCH  28  31
ATOM     29  O   UNL     1      34.825 -16.805 -25.621  0.00  0.00    -0.227 OA
ATOM     30  N   UNL     1      34.833 -15.583 -23.673  0.00  0.00    -0.295 N 
ATOM     31  C   UNL     1      34.808 -16.751 -24.396  0.00  0.00    +0.399 C 
ATOM     32  H   UNL     1      34.816 -15.614 -22.689  0.00  0.00    +0.148 HD
ATOM     33  H   UNL     1      34.868 -14.717 -24.139  0.00  0.00    +0.148 HD
ENDBRANCH  28  31
ENDBRANCH  27  28
ENDBRANCH   8  27
TORSDOF 9
ENDMDL
MODEL 9
REMARK VINA RESULT:      -7.3     10.705     14.992
REMARK  Name = 5479529
REMARK  9 active torsions:
REMARK  status: ('A' for Active; 'I' for Inactive)
REMARK    1  A    between atoms: CA_5  and  N_11
REMARK    2  A    between atoms: CA_7  and  C_24
REMARK    3  A    between atoms: C_8  and  C_27
REMARK    4  A    between atoms: C_12  and  C_15
REMARK    5  A    between atoms: N_14  and  O_21
REMARK    6  A    between atoms: C_15  and  C_17
REMARK    7  A    between atoms: C_24  and  O_25
REMARK    8  A    between atoms: C_27  and  O_28
REMARK    9  A    between atoms: O_28  and  C_31
REMARK                            x       y       z     vdW  Elec       q    Type
REMARK                         _______ _______ _______ _____ _____    ______ ____
ROOT
ATOM      1  S   UNL     1      31.964 -10.825 -22.279  0.00  0.00    -0.114 S 
ATOM      2  O   UNL     1      35.498 -10.152 -25.224  0.00  0.00    -0.273 OA
ATOM      3  N   UNL     1      33.563  -9.588 -24.000  0.00  0.00    -0.242 N 
ATOM      4  C   UNL     1      32.449 -10.518 -23.992  0.00  0.00    +0.155 C 
ATOM      5  CA  UNL     1      33.422 -11.538 -24.624  0.00  0.00    +0.179 C 
ATOM      6  C   UNL     1      34.403 -10.338 -24.746  0.00  0.00    +0.251 C 
ATOM      7  CA  UNL     1      33.544  -8.382 -23.374  0.00  0.00    +0.127 C 
ATOM      8  C   UNL     1      32.598  -8.079 -22.453  0.00  0.00    +0.030 C 
ATOM      9  C   UNL     1      31.549  -9.076 -21.967  0.00  0.00    +0.086 C 
ENDROOT
BRANCH   5  11
ATOM     10  O   UNL     1      32.181 -14.158 -24.099  0.00  0.00    -0.268 OA
ATOM     11  N   UNL     1      33.933 -12.627 -23.792  0.00  0.00    -0.291 N 
ATOM     12  C   UNL     1      33.252 -13.821 -23.621  0.00  0.00    +0.270 C 
ATOM     13  H   UNL     1      34.796 -12.507 -23.333  0.00  0.00    +0.150 HD
BRANCH  12  15
ATOM     14  N   UNL     1      34.132 -14.546 -21.466  0.00  0.00    -0.075 NA
ATOM     15  C   UNL     1      33.977 -14.793 -22.732  0.00  0.00    +0.207 C 
BRANCH  15  17
ATOM     16  O   UNL     1      34.327 -16.183 -24.680  0.00  0.00    -0.449 OA
ATOM     17  C   UNL     1      34.505 -16.013 -23.343  0.00  0.00    +0.171 C 
ATOM     18  C   UNL     1      35.181 -17.083 -22.805  0.00  0.00    +0.043 C 
ATOM     19  C   UNL     1      35.437 -17.967 -23.881  0.00  0.00    +0.044 C 
ATOM     20  C   UNL     1      34.898 -17.374 -24.999  0.00  0.00    +0.180 C 
ENDBRANCH  15  17
BRANCH  14  21
ATOM     21  O   UNL     1      33.553 -13.321 -21.104  0.00  0.00    -0.373 OA
ATOM     22  C   UNL     1      32.476 -13.587 -20.221  0.00  0.00    +0.288 C 
ENDBRANCH  14  21
ENDBRANCH  12  15
ENDBRANCH   5  11
BRANCH   7  24
ATOM     23  OXT UNL     1      34.610  -6.662 -24.620  0.00  0.00    -0.244 OA
ATOM     24  C   UNL     1      34.632  -7.448 -23.693  0.00  0.00    +0.352 C 
BRANCH  24  25
ATOM     25  O   UNL     1      35.633  -7.606 -22.806  0.00  0.00    -0.476 OA
ATOM     26  H   UNL     1      36.517  -7.426 -23.060  0.00  0.00    +0.295 HD
ENDBRANCH  24  25
ENDBRANCH   7  24
BRANCH   8  27
ATOM     27  C   UNL     1      32.461  -6.737 -21.776  0.00  0.00    +0.235 C 
BRANCH  27  28
ATOM     28  O   UNL     1      31.169  -6.220 -22.018  0.00  0.00    -0.430 OA
BRANCH  28  31
ATOM     29  O   UNL     1      31.579  -5.035 -23.949  0.00  0.00    -0.227 OA
ATOM     30  N   UNL     1      30.405  -4.096 -22.209  0.00  0.00    -0.295 N 
ATOM     31  C   UNL     1      31.094  -5.112 -22.825  0.00  0.00    +0.399 C 
ATOM     32  H   UNL     1      30.042  -4.227 -21.303  0.00  0.00    +0.148 HD
ATOM     33  H   UNL     1      30.274  -3.238 -22.673  0.00  0.00    +0.148 HD
ENDBRANCH  28  31
ENDBRANCH  27  28
ENDBRANCH   8  27
TORSDOF 9
ENDMDL
