MODEL 1
REMARK VINA RESULT:      -8.2      0.000      0.000
REMARK  Name = 3698
REMARK  2 active torsions:
REMARK  status: ('A' for Active; 'I' for Inactive)
REMARK    1  A    between atoms: C_3  and  C_10
REMARK    2  A    between atoms: C_6  and  N_15
REMARK                            x       y       z     vdW  Elec       q    Type
REMARK                         _______ _______ _______ _____ _____    ______ ____
ROOT
ATOM      1  O   UNL     1      35.307 -22.513 -18.208  0.00  0.00    -0.268 OA
ATOM      2  N   UNL     1      36.288 -20.911 -19.534  0.00  0.00    -0.278 N 
ATOM      3  C   UNL     1      35.013 -19.581 -21.019  0.00  0.00    +0.016 C 
ATOM      4  C   UNL     1      33.828 -20.291 -20.567  0.00  0.00    +0.020 C 
ATOM      5  C   UNL     1      36.194 -19.922 -20.479  0.00  0.00    +0.064 C 
ATOM      6  C   UNL     1      33.869 -21.267 -19.643  0.00  0.00    +0.096 C 
ATOM      7  C   UNL     1      35.205 -21.630 -19.057  0.00  0.00    +0.263 C 
ATOM      8  H   UNL     1      37.179 -21.123 -19.172  0.00  0.00    +0.155 HD
ENDROOT
BRANCH   3  10
ATOM      9  N   UNL     1      34.891 -16.462 -23.935  0.00  0.00    -0.242 NA
ATOM     10  C   UNL     1      34.970 -18.503 -22.027  0.00  0.00    +0.004 C 
ATOM     11  C   UNL     1      34.955 -17.172 -21.624  0.00  0.00    +0.021 C 
ATOM     12  C   UNL     1      34.944 -18.815 -23.382  0.00  0.00    +0.021 C 
ATOM     13  C   UNL     1      34.916 -16.198 -22.610  0.00  0.00    +0.099 C 
ATOM     14  C   UNL     1      34.905 -17.768 -24.287  0.00  0.00    +0.099 C 
ENDBRANCH   3  10
BRANCH   6  15
ATOM     15  N   UNL     1      32.790 -21.965 -19.185  0.00  0.00    -0.353 N 
ATOM     16  H   UNL     1      32.428 -22.713 -19.713  0.00  0.00    +0.142 HD
ATOM     17  H   UNL     1      32.376 -21.721 -18.326  0.00  0.00    +0.142 HD
ENDBRANCH   6  15
TORSDOF 2
ENDMDL
MODEL 2
REMARK VINA RESULT:      -8.1      2.628      5.518
REMARK  Name = 3698
REMARK  2 active torsions:
REMARK  status: ('A' for Active; 'I' for Inactive)
REMARK    1  A    between atoms: C_3  and  C_10
REMARK    2  A    between atoms: C_6  and  N_15
REMARK                            x       y       z     vdW  Elec       q    Type
REMARK                         _______ _______ _______ _____ _____    ______ ____
ROOT
ATOM      1  O   UNL     1      35.079 -15.434 -23.751  0.00  0.00    -0.268 OA
ATOM      2  N   UNL     1      35.099 -16.488 -21.708  0.00  0.00    -0.278 N 
ATOM      3  C   UNL     1      34.847 -18.834 -21.520  0.00  0.00    +0.016 C 
ATOM      4  C   UNL     1      34.743 -18.893 -22.969  0.00  0.00    +0.020 C 
ATOM      5  C   UNL     1      35.022 -17.630 -20.952  0.00  0.00    +0.064 C 
ATOM      6  C   UNL     1      34.813 -17.803 -23.752  0.00  0.00    +0.096 C 
ATOM      7  C   UNL     1      35.007 -16.468 -23.089  0.00  0.00    +0.263 C 
ATOM      8  H   UNL     1      35.226 -15.631 -21.240  0.00  0.00    +0.155 HD
ENDROOT
BRANCH   3  10
ATOM      9  N   UNL     1      34.654 -22.295 -19.026  0.00  0.00    -0.242 NA
ATOM     10  C   UNL     1      34.780 -20.031 -20.659  0.00  0.00    +0.004 C 
ATOM     11  C   UNL     1      35.950 -20.652 -20.237  0.00  0.00    +0.021 C 
ATOM     12  C   UNL     1      33.547 -20.540 -20.266  0.00  0.00    +0.021 C 
ATOM     13  C   UNL     1      35.833 -21.772 -19.428  0.00  0.00    +0.099 C 
ATOM     14  C   UNL     1      33.538 -21.663 -19.457  0.00  0.00    +0.099 C 
ENDBRANCH   3  10
BRANCH   6  15
ATOM     15  N   UNL     1      34.720 -17.801 -25.113  0.00  0.00    -0.353 N 
ATOM     16  H   UNL     1      35.296 -17.206 -25.645  0.00  0.00    +0.142 HD
ATOM     17  H   UNL     1      34.077 -18.396 -25.562  0.00  0.00    +0.142 HD
ENDBRANCH   6  15
TORSDOF 2
ENDMDL
MODEL 3
REMARK VINA RESULT:      -8.0      1.016      1.673
REMARK  Name = 3698
REMARK  2 active torsions:
REMARK  status: ('A' for Active; 'I' for Inactive)
REMARK    1  A    between atoms: C_3  and  C_10
REMARK    2  A    between atoms: C_6  and  N_15
REMARK                            x       y       z     vdW  Elec       q    Type
REMARK                         _______ _______ _______ _____ _____    ______ ____
ROOT
ATOM      1  O   UNL     1      35.390 -22.355 -19.254  0.00  0.00    -0.268 OA
ATOM      2  N   UNL     1      36.322 -20.444 -20.128  0.00  0.00    -0.278 N 
ATOM      3  C   UNL     1      34.992 -18.762 -21.128  0.00  0.00    +0.016 C 
ATOM      4  C   UNL     1      33.823 -19.576 -20.837  0.00  0.00    +0.020 C 
ATOM      5  C   UNL     1      36.194 -19.233 -20.758  0.00  0.00    +0.064 C 
ATOM      6  C   UNL     1      33.898 -20.769 -20.222  0.00  0.00    +0.096 C 
ATOM      7  C   UNL     1      35.257 -21.272 -19.820  0.00  0.00    +0.263 C 
ATOM      8  H   UNL     1      37.227 -20.743 -19.879  0.00  0.00    +0.155 HD
ENDROOT
BRANCH   3  10
ATOM      9  N   UNL     1      34.755 -14.960 -23.061  0.00  0.00    -0.242 NA
ATOM     10  C   UNL     1      34.911 -17.448 -21.795  0.00  0.00    +0.004 C 
ATOM     11  C   UNL     1      35.058 -17.357 -23.175  0.00  0.00    +0.021 C 
ATOM     12  C   UNL     1      34.687 -16.297 -21.048  0.00  0.00    +0.021 C 
ATOM     13  C   UNL     1      34.972 -16.100 -23.754  0.00  0.00    +0.099 C 
ATOM     14  C   UNL     1      34.618 -15.089 -21.721  0.00  0.00    +0.099 C 
ENDBRANCH   3  10
BRANCH   6  15
ATOM     15  N   UNL     1      32.836 -21.572 -19.927  0.00  0.00    -0.353 N 
ATOM     16  H   UNL     1      31.918 -21.250 -20.079  0.00  0.00    +0.142 HD
ATOM     17  H   UNL     1      32.989 -22.474 -19.562  0.00  0.00    +0.142 HD
ENDBRANCH   6  15
TORSDOF 2
ENDMDL
MODEL 4
REMARK VINA RESULT:      -8.0      0.903      2.200
REMARK  Name = 3698
REMARK  2 active torsions:
REMARK  status: ('A' for Active; 'I' for Inactive)
REMARK    1  A    between atoms: C_3  and  C_10
REMARK    2  A    between atoms: C_6  and  N_15
REMARK                            x       y       z     vdW  Elec       q    Type
REMARK                         _______ _______ _______ _____ _____    ______ ____
ROOT
ATOM      1  O   UNL     1      33.284 -22.661 -18.523  0.00  0.00    -0.268 OA
ATOM      2  N   UNL     1      32.659 -21.066 -20.056  0.00  0.00    -0.278 N 
ATOM      3  C   UNL     1      34.250 -19.658 -21.098  0.00  0.00    +0.016 C 
ATOM      4  C   UNL     1      35.285 -20.337 -20.335  0.00  0.00    +0.020 C 
ATOM      5  C   UNL     1      32.979 -20.055 -20.926  0.00  0.00    +0.064 C 
ATOM      6  C   UNL     1      35.021 -21.333 -19.472  0.00  0.00    +0.096 C 
ATOM      7  C   UNL     1      33.589 -21.756 -19.297  0.00  0.00    +0.263 C 
ATOM      8  H   UNL     1      31.711 -21.316 -19.966  0.00  0.00    +0.155 HD
ENDROOT
BRANCH   3  10
ATOM      9  N   UNL     1      35.080 -16.509 -23.863  0.00  0.00    -0.242 NA
ATOM     10  C   UNL     1      34.538 -18.569 -22.053  0.00  0.00    +0.004 C 
ATOM     11  C   UNL     1      34.715 -18.855 -23.403  0.00  0.00    +0.021 C 
ATOM     12  C   UNL     1      34.632 -17.256 -21.607  0.00  0.00    +0.021 C 
ATOM     13  C   UNL     1      34.981 -17.797 -24.259  0.00  0.00    +0.099 C 
ATOM     14  C   UNL     1      34.902 -16.271 -22.543  0.00  0.00    +0.099 C 
ENDBRANCH   3  10
BRANCH   6  15
ATOM     15  N   UNL     1      35.951 -22.002 -18.732  0.00  0.00    -0.353 N 
ATOM     16  H   UNL     1      36.658 -22.519 -19.181  0.00  0.00    +0.142 HD
ATOM     17  H   UNL     1      35.914 -21.965 -17.749  0.00  0.00    +0.142 HD
ENDBRANCH   6  15
TORSDOF 2
ENDMDL
MODEL 5
REMARK VINA RESULT:      -7.9      2.867      5.744
REMARK  Name = 3698
REMARK  2 active torsions:
REMARK  status: ('A' for Active; 'I' for Inactive)
REMARK    1  A    between atoms: C_3  and  C_10
REMARK    2  A    between atoms: C_6  and  N_15
REMARK                            x       y       z     vdW  Elec       q    Type
REMARK                         _______ _______ _______ _____ _____    ______ ____
ROOT
ATOM      1  O   UNL     1      34.590 -16.267 -25.862  0.00  0.00    -0.268 OA
ATOM      2  N   UNL     1      34.567 -18.371 -24.936  0.00  0.00    -0.278 N 
ATOM      3  C   UNL     1      34.592 -18.694 -22.592  0.00  0.00    +0.016 C 
ATOM      4  C   UNL     1      34.617 -17.249 -22.438  0.00  0.00    +0.020 C 
ATOM      5  C   UNL     1      34.567 -19.193 -23.838  0.00  0.00    +0.064 C 
ATOM      6  C   UNL     1      34.617 -16.403 -23.483  0.00  0.00    +0.096 C 
ATOM      7  C   UNL     1      34.591 -16.989 -24.867  0.00  0.00    +0.263 C 
ATOM      8  H   UNL     1      34.550 -18.790 -25.827  0.00  0.00    +0.155 HD
ENDROOT
BRANCH   3  10
ATOM      9  N   UNL     1      34.563 -21.390 -19.279  0.00  0.00    -0.242 NA
ATOM     10  C   UNL     1      34.583 -19.625 -21.446  0.00  0.00    +0.004 C 
ATOM     11  C   UNL     1      33.376 -20.027 -20.885  0.00  0.00    +0.021 C 
ATOM     12  C   UNL     1      35.780 -20.103 -20.925  0.00  0.00    +0.021 C 
ATOM     13  C   UNL     1      33.421 -20.904 -19.812  0.00  0.00    +0.099 C 
ATOM     14  C   UNL     1      35.717 -20.975 -19.851  0.00  0.00    +0.099 C 
ENDBRANCH   3  10
BRANCH   6  15
ATOM     15  N   UNL     1      34.641 -15.042 -23.396  0.00  0.00    -0.353 N 
ATOM     16  H   UNL     1      35.489 -14.575 -23.214  0.00  0.00    +0.142 HD
ATOM     17  H   UNL     1      33.810 -14.527 -23.515  0.00  0.00    +0.142 HD
ENDBRANCH   6  15
TORSDOF 2
ENDMDL
MODEL 6
REMARK VINA RESULT:      -7.4      5.041      7.135
REMARK  Name = 3698
REMARK  2 active torsions:
REMARK  status: ('A' for Active; 'I' for Inactive)
REMARK    1  A    between atoms: C_3  and  C_10
REMARK    2  A    between atoms: C_6  and  N_15
REMARK                            x       y       z     vdW  Elec       q    Type
REMARK                         _______ _______ _______ _____ _____    ______ ____
ROOT
ATOM      1  O   UNL     1      34.647 -17.696 -25.628  0.00  0.00    -0.268 OA
ATOM      2  N   UNL     1      33.491 -15.717 -25.805  0.00  0.00    -0.278 N 
ATOM      3  C   UNL     1      33.573 -14.076 -24.103  0.00  0.00    +0.016 C 
ATOM      4  C   UNL     1      34.462 -14.955 -23.361  0.00  0.00    +0.020 C 
ATOM      5  C   UNL     1      33.126 -14.497 -25.297  0.00  0.00    +0.064 C 
ATOM      6  C   UNL     1      34.847 -16.160 -23.817  0.00  0.00    +0.096 C 
ATOM      7  C   UNL     1      34.330 -16.606 -25.157  0.00  0.00    +0.263 C 
ATOM      8  H   UNL     1      33.133 -15.978 -26.685  0.00  0.00    +0.155 HD
ENDROOT
BRANCH   3  10
ATOM      9  N   UNL     1      32.363 -10.238 -22.673  0.00  0.00    -0.242 NA
ATOM     10  C   UNL     1      33.156 -12.750 -23.607  0.00  0.00    +0.004 C 
ATOM     11  C   UNL     1      33.696 -11.596 -24.164  0.00  0.00    +0.021 C 
ATOM     12  C   UNL     1      32.220 -12.650 -22.584  0.00  0.00    +0.021 C 
ATOM     13  C   UNL     1      33.270 -10.375 -23.665  0.00  0.00    +0.099 C 
ATOM     14  C   UNL     1      31.861 -11.383 -22.156  0.00  0.00    +0.099 C 
ENDBRANCH   3  10
BRANCH   6  15
ATOM     15  N   UNL     1      35.676 -17.023 -23.163  0.00  0.00    -0.353 N 
ATOM     16  H   UNL     1      36.462 -16.679 -22.679  0.00  0.00    +0.142 HD
ATOM     17  H   UNL     1      35.488 -17.989 -23.175  0.00  0.00    +0.142 HD
ENDBRANCH   6  15
TORSDOF 2
ENDMDL
MODEL 7
REMARK VINA RESULT:      -7.3      5.606      8.057
REMARK  Name = 3698
REMARK  2 active torsions:
REMARK  status: ('A' for Active; 'I' for Inactive)
REMARK    1  A    between atoms: C_3  and  C_10
REMARK    2  A    between atoms: C_6  and  N_15
REMARK                            x       y       z     vdW  Elec       q    Type
REMARK                         _______ _______ _______ _____ _____    ______ ____
ROOT
ATOM      1  O   UNL     1      35.417 -25.010 -10.660  0.00  0.00    -0.268 OA
ATOM      2  N   UNL     1      34.473 -24.736 -12.739  0.00  0.00    -0.278 N 
ATOM      3  C   UNL     1      35.566 -23.515 -14.445  0.00  0.00    +0.016 C 
ATOM      4  C   UNL     1      36.659 -23.281 -13.516  0.00  0.00    +0.020 C 
ATOM      5  C   UNL     1      34.519 -24.236 -14.015  0.00  0.00    +0.064 C 
ATOM      6  C   UNL     1      36.661 -23.751 -12.256  0.00  0.00    +0.096 C 
ATOM      7  C   UNL     1      35.474 -24.553 -11.800  0.00  0.00    +0.263 C 
ATOM      8  H   UNL     1      33.681 -25.257 -12.474  0.00  0.00    +0.155 HD
ENDROOT
BRANCH   3  10
ATOM      9  N   UNL     1      35.564 -22.044 -18.455  0.00  0.00    -0.242 NA
ATOM     10  C   UNL     1      35.566 -23.007 -15.832  0.00  0.00    +0.004 C 
ATOM     11  C   UNL     1      34.430 -23.140 -16.622  0.00  0.00    +0.021 C 
ATOM     12  C   UNL     1      36.701 -22.394 -16.351  0.00  0.00    +0.021 C 
ATOM     13  C   UNL     1      34.480 -22.645 -17.916  0.00  0.00    +0.099 C 
ATOM     14  C   UNL     1      36.649 -21.934 -17.656  0.00  0.00    +0.099 C 
ENDBRANCH   3  10
BRANCH   6  15
ATOM     15  N   UNL     1      37.657 -23.560 -11.345  0.00  0.00    -0.353 N 
ATOM     16  H   UNL     1      38.403 -24.200 -11.289  0.00  0.00    +0.142 HD
ATOM     17  H   UNL     1      37.630 -22.781 -10.743  0.00  0.00    +0.142 HD
ENDBRANCH   6  15
TORSDOF 2
ENDMDL
MODEL 8
REMARK VINA RESULT:      -7.3      3.082      5.848
REMARK  Name = 3698
REMARK  2 active torsions:
REMARK  status: ('A' for Active; 'I' for Inactive)
REMARK    1  A    between atoms: C_3  and  C_10
REMARK    2  A    between atoms: C_6  and  N_15
REMARK                            x       y       z     vdW  Elec       q    Type
REMARK                         _______ _______ _______ _____ _____    ______ ____
ROOT
ATOM      1  O   UNL     1      34.096 -13.819 -23.831  0.00  0.00    -0.268 OA
ATOM      2  N   UNL     1      34.490 -15.038 -21.922  0.00  0.00    -0.278 N 
ATOM      3  C   UNL     1      34.794 -17.383 -21.989  0.00  0.00    +0.016 C 
ATOM      4  C   UNL     1      34.612 -17.320 -23.430  0.00  0.00    +0.020 C 
ATOM      5  C   UNL     1      34.727 -16.235 -21.297  0.00  0.00    +0.064 C 
ATOM      6  C   UNL     1      34.378 -16.171 -24.088  0.00  0.00    +0.096 C 
ATOM      7  C   UNL     1      34.306 -14.901 -23.287  0.00  0.00    +0.263 C 
ATOM      8  H   UNL     1      34.449 -14.226 -21.366  0.00  0.00    +0.155 HD
ENDROOT
BRANCH   3  10
ATOM      9  N   UNL     1      35.562 -21.025 -19.894  0.00  0.00    -0.242 NA
ATOM     10  C   UNL     1      35.059 -18.643 -21.266  0.00  0.00    +0.004 C 
ATOM     11  C   UNL     1      36.366 -19.011 -20.964  0.00  0.00    +0.021 C 
ATOM     12  C   UNL     1      34.004 -19.463 -20.883  0.00  0.00    +0.021 C 
ATOM     13  C   UNL     1      36.561 -20.202 -20.282  0.00  0.00    +0.099 C 
ATOM     14  C   UNL     1      34.306 -20.633 -20.206  0.00  0.00    +0.099 C 
ENDBRANCH   3  10
BRANCH   6  15
ATOM     15  N   UNL     1      34.199 -16.056 -25.435  0.00  0.00    -0.353 N 
ATOM     16  H   UNL     1      33.336 -15.742 -25.791  0.00  0.00    +0.142 HD
ATOM     17  H   UNL     1      34.932 -16.287 -26.050  0.00  0.00    +0.142 HD
ENDBRANCH   6  15
TORSDOF 2
ENDMDL
MODEL 9
REMARK VINA RESULT:      -7.2      3.243      5.838
REMARK  Name = 3698
REMARK  2 active torsions:
REMARK  status: ('A' for Active; 'I' for Inactive)
REMARK    1  A    between atoms: C_3  and  C_10
REMARK    2  A    between atoms: C_6  and  N_15
REMARK                            x       y       z     vdW  Elec       q    Type
REMARK                         _______ _______ _______ _____ _____    ______ ____
ROOT
ATOM      1  O   UNL     1      34.039 -13.550 -23.636  0.00  0.00    -0.268 OA
ATOM      2  N   UNL     1      34.915 -15.676 -23.601  0.00  0.00    -0.278 N 
ATOM      3  C   UNL     1      34.486 -17.164 -21.813  0.00  0.00    +0.016 C 
ATOM      4  C   UNL     1      33.680 -16.122 -21.198  0.00  0.00    +0.020 C 
ATOM      5  C   UNL     1      35.069 -16.895 -22.992  0.00  0.00    +0.064 C 
ATOM      6  C   UNL     1      33.501 -14.913 -21.756  0.00  0.00    +0.096 C 
ATOM      7  C   UNL     1      34.166 -14.637 -23.075  0.00  0.00    +0.263 C 
ATOM      8  H   UNL     1      35.366 -15.530 -24.464  0.00  0.00    +0.155 HD
ENDROOT
BRANCH   3  10
ATOM      9  N   UNL     1      35.040 -21.020 -20.061  0.00  0.00    -0.242 NA
ATOM     10  C   UNL     1      34.678 -18.497 -21.206  0.00  0.00    +0.004 C 
ATOM     11  C   UNL     1      33.576 -19.283 -20.888  0.00  0.00    +0.021 C 
ATOM     12  C   UNL     1      35.960 -18.970 -20.952  0.00  0.00    +0.021 C 
ATOM     13  C   UNL     1      33.810 -20.527 -20.322  0.00  0.00    +0.099 C 
ATOM     14  C   UNL     1      36.087 -20.226 -20.383  0.00  0.00    +0.099 C 
ENDBRANCH   3  10
BRANCH   6  15
ATOM     15  N   UNL     1      32.758 -13.901 -21.222  0.00  0.00    -0.353 N 
ATOM     16  H   UNL     1      31.963 -13.569 -21.699  0.00  0.00    +0.142 HD
ATOM     17  H   UNL     1      33.018 -13.503 -20.360  0.00  0.00    +0.142 HD
ENDBRANCH   6  15
TORSDOF 2
ENDMDL
