MODEL 1
REMARK VINA RESULT:      -5.1      0.000      0.000
REMARK  Name = 68791
REMARK  0 active torsions:
REMARK  status: ('A' for Active; 'I' for Inactive)
REMARK                            x       y       z     vdW  Elec       q    Type
REMARK                         _______ _______ _______ _____ _____    ______ ____
ROOT
ATOM      1  O   UNL     1      41.967 -17.594 -17.161  0.00  0.00    -0.193 OA
ATOM      2  N   UNL     1      42.093 -15.301 -17.494  0.00  0.00    -0.217 N 
ATOM      3  N   UNL     1      40.989 -16.118 -15.659  0.00  0.00    -0.309 NA
ATOM      4  N   UNL     1      40.514 -14.017 -14.555  0.00  0.00    -0.334 N 
ATOM      5  C   UNL     1      41.745 -14.192 -16.636  0.00  0.00    +0.172 C 
ATOM      6  C   UNL     1      41.228 -14.296 -18.018  0.00  0.00    +0.133 C 
ATOM      7  C   UNL     1      41.024 -14.829 -15.517  0.00  0.00    +0.189 C 
ATOM      8  C   UNL     1      41.686 -16.451 -16.817  0.00  0.00    +0.270 C 
ATOM      9  H   UNL     1      40.027 -14.405 -13.791  0.00  0.00    +0.144 HD
ATOM     10  H   UNL     1      40.630 -13.042 -14.620  0.00  0.00    +0.144 HD
ENDROOT
TORSDOF 0
ENDMDL
MODEL 2
REMARK VINA RESULT:      -5.1     10.543     11.473
REMARK  Name = 68791
REMARK  0 active torsions:
REMARK  status: ('A' for Active; 'I' for Inactive)
REMARK                            x       y       z     vdW  Elec       q    Type
REMARK                         _______ _______ _______ _____ _____    ______ ____
ROOT
ATOM      1  O   UNL     1      40.912 -25.785 -14.352  0.00  0.00    -0.193 OA
ATOM      2  N   UNL     1      39.021 -25.290 -13.102  0.00  0.00    -0.217 N 
ATOM      3  N   UNL     1      38.819 -26.547 -15.008  0.00  0.00    -0.309 NA
ATOM      4  N   UNL     1      36.469 -27.101 -14.831  0.00  0.00    -0.334 N 
ATOM      5  C   UNL     1      37.666 -25.788 -13.183  0.00  0.00    +0.172 C 
ATOM      6  C   UNL     1      37.962 -24.338 -13.183  0.00  0.00    +0.133 C 
ATOM      7  C   UNL     1      37.650 -26.549 -14.447  0.00  0.00    +0.189 C 
ATOM      8  C   UNL     1      39.699 -25.847 -14.187  0.00  0.00    +0.270 C 
ATOM      9  H   UNL     1      36.417 -27.618 -15.668  0.00  0.00    +0.144 HD
ATOM     10  H   UNL     1      35.666 -26.986 -14.273  0.00  0.00    +0.144 HD
ENDROOT
TORSDOF 0
ENDMDL
MODEL 3
REMARK VINA RESULT:      -5.0     11.184     11.726
REMARK  Name = 68791
REMARK  0 active torsions:
REMARK  status: ('A' for Active; 'I' for Inactive)
REMARK                            x       y       z     vdW  Elec       q    Type
REMARK                         _______ _______ _______ _____ _____    ______ ____
ROOT
ATOM      1  O   UNL     1      36.156 -26.834 -15.761  0.00  0.00    -0.193 OA
ATOM      2  N   UNL     1      36.815 -25.403 -14.057  0.00  0.00    -0.217 N 
ATOM      3  N   UNL     1      38.348 -26.828 -14.993  0.00  0.00    -0.309 NA
ATOM      4  N   UNL     1      40.326 -26.039 -13.844  0.00  0.00    -0.334 N 
ATOM      5  C   UNL     1      38.123 -25.074 -13.539  0.00  0.00    +0.172 C 
ATOM      6  C   UNL     1      37.027 -25.518 -12.651  0.00  0.00    +0.133 C 
ATOM      7  C   UNL     1      39.011 -26.062 -14.184  0.00  0.00    +0.189 C 
ATOM      8  C   UNL     1      37.018 -26.417 -14.995  0.00  0.00    +0.270 C 
ATOM      9  H   UNL     1      40.951 -26.682 -14.252  0.00  0.00    +0.144 HD
ATOM     10  H   UNL     1      40.655 -25.381 -13.189  0.00  0.00    +0.144 HD
ENDROOT
TORSDOF 0
ENDMDL
MODEL 4
REMARK VINA RESULT:      -5.0     10.867     11.888
REMARK  Name = 68791
REMARK  0 active torsions:
REMARK  status: ('A' for Active; 'I' for Inactive)
REMARK                            x       y       z     vdW  Elec       q    Type
REMARK                         _______ _______ _______ _____ _____    ______ ____
ROOT
ATOM      1  O   UNL     1      35.299 -24.898 -10.581  0.00  0.00    -0.193 OA
ATOM      2  N   UNL     1      35.665 -24.195 -12.762  0.00  0.00    -0.217 N 
ATOM      3  N   UNL     1      36.821 -25.999 -11.947  0.00  0.00    -0.309 NA
ATOM      4  N   UNL     1      37.944 -26.662 -13.986  0.00  0.00    -0.334 N 
ATOM      5  C   UNL     1      36.395 -24.803 -13.851  0.00  0.00    +0.172 C 
ATOM      6  C   UNL     1      36.649 -23.408 -13.430  0.00  0.00    +0.133 C 
ATOM      7  C   UNL     1      37.112 -25.921 -13.209  0.00  0.00    +0.189 C 
ATOM      8  C   UNL     1      35.892 -25.006 -11.649  0.00  0.00    +0.270 C 
ATOM      9  H   UNL     1      38.441 -27.418 -13.594  0.00  0.00    +0.144 HD
ATOM     10  H   UNL     1      38.052 -26.445 -14.940  0.00  0.00    +0.144 HD
ENDROOT
TORSDOF 0
ENDMDL
MODEL 5
REMARK VINA RESULT:      -5.0     11.006     11.640
REMARK  Name = 68791
REMARK  0 active torsions:
REMARK  status: ('A' for Active; 'I' for Inactive)
REMARK                            x       y       z     vdW  Elec       q    Type
REMARK                         _______ _______ _______ _____ _____    ______ ____
ROOT
ATOM      1  O   UNL     1      36.717 -27.261 -16.092  0.00  0.00    -0.193 OA
ATOM      2  N   UNL     1      37.182 -26.594 -13.918  0.00  0.00    -0.217 N 
ATOM      3  N   UNL     1      36.051 -25.175 -15.318  0.00  0.00    -0.309 NA
ATOM      4  N   UNL     1      35.547 -23.420 -13.729  0.00  0.00    -0.334 N 
ATOM      5  C   UNL     1      36.726 -25.458 -13.150  0.00  0.00    +0.172 C 
ATOM      6  C   UNL     1      38.164 -25.773 -13.289  0.00  0.00    +0.133 C 
ATOM      7  C   UNL     1      36.045 -24.613 -14.149  0.00  0.00    +0.189 C 
ATOM      8  C   UNL     1      36.676 -26.413 -15.206  0.00  0.00    +0.270 C 
ATOM      9  H   UNL     1      35.085 -22.828 -14.365  0.00  0.00    +0.144 HD
ATOM     10  H   UNL     1      35.648 -23.149 -12.788  0.00  0.00    +0.144 HD
ENDROOT
TORSDOF 0
ENDMDL
MODEL 6
REMARK VINA RESULT:      -4.9     10.838     11.660
REMARK  Name = 68791
REMARK  0 active torsions:
REMARK  status: ('A' for Active; 'I' for Inactive)
REMARK                            x       y       z     vdW  Elec       q    Type
REMARK                         _______ _______ _______ _____ _____    ______ ____
ROOT
ATOM      1  O   UNL     1      37.858 -24.702 -11.198  0.00  0.00    -0.193 OA
ATOM      2  N   UNL     1      38.687 -24.820 -13.362  0.00  0.00    -0.217 N 
ATOM      3  N   UNL     1      36.897 -26.121 -12.765  0.00  0.00    -0.309 NA
ATOM      4  N   UNL     1      36.389 -27.059 -14.937  0.00  0.00    -0.334 N 
ATOM      5  C   UNL     1      38.169 -25.461 -14.549  0.00  0.00    +0.172 C 
ATOM      6  C   UNL     1      39.550 -25.701 -14.078  0.00  0.00    +0.133 C 
ATOM      7  C   UNL     1      37.052 -26.281 -14.043  0.00  0.00    +0.189 C 
ATOM      8  C   UNL     1      37.831 -25.188 -12.323  0.00  0.00    +0.270 C 
ATOM      9  H   UNL     1      35.637 -27.621 -14.639  0.00  0.00    +0.144 HD
ATOM     10  H   UNL     1      36.659 -27.062 -15.884  0.00  0.00    +0.144 HD
ENDROOT
TORSDOF 0
ENDMDL
MODEL 7
REMARK VINA RESULT:      -4.9     10.422     10.881
REMARK  Name = 68791
REMARK  0 active torsions:
REMARK  status: ('A' for Active; 'I' for Inactive)
REMARK                            x       y       z     vdW  Elec       q    Type
REMARK                         _______ _______ _______ _____ _____    ______ ____
ROOT
ATOM      1  O   UNL     1      40.405 -25.897 -15.514  0.00  0.00    -0.193 OA
ATOM      2  N   UNL     1      38.172 -25.921 -14.881  0.00  0.00    -0.217 N 
ATOM      3  N   UNL     1      39.732 -24.983 -13.487  0.00  0.00    -0.309 NA
ATOM      4  N   UNL     1      38.232 -24.101 -11.805  0.00  0.00    -0.334 N 
ATOM      5  C   UNL     1      37.482 -25.269 -13.792  0.00  0.00    +0.172 C 
ATOM      6  C   UNL     1      37.361 -26.724 -14.027  0.00  0.00    +0.133 C 
ATOM      7  C   UNL     1      38.574 -24.734 -12.957  0.00  0.00    +0.189 C 
ATOM      8  C   UNL     1      39.528 -25.647 -14.694  0.00  0.00    +0.270 C 
ATOM      9  H   UNL     1      38.932 -23.729 -11.220  0.00  0.00    +0.144 HD
ATOM     10  H   UNL     1      37.284 -24.014 -11.553  0.00  0.00    +0.144 HD
ENDROOT
TORSDOF 0
ENDMDL
MODEL 8
REMARK VINA RESULT:      -4.9     10.564     11.284
REMARK  Name = 68791
REMARK  0 active torsions:
REMARK  status: ('A' for Active; 'I' for Inactive)
REMARK                            x       y       z     vdW  Elec       q    Type
REMARK                         _______ _______ _______ _____ _____    ______ ____
ROOT
ATOM      1  O   UNL     1      37.841 -24.650 -11.338  0.00  0.00    -0.193 OA
ATOM      2  N   UNL     1      37.261 -25.949 -13.171  0.00  0.00    -0.217 N 
ATOM      3  N   UNL     1      39.138 -24.637 -13.265  0.00  0.00    -0.309 NA
ATOM      4  N   UNL     1      39.986 -25.369 -15.410  0.00  0.00    -0.334 N 
ATOM      5  C   UNL     1      37.979 -26.261 -14.385  0.00  0.00    +0.172 C 
ATOM      6  C   UNL     1      36.600 -25.725 -14.415  0.00  0.00    +0.133 C 
ATOM      7  C   UNL     1      39.137 -25.348 -14.349  0.00  0.00    +0.189 C 
ATOM      8  C   UNL     1      38.047 -25.020 -12.488  0.00  0.00    +0.270 C 
ATOM      9  H   UNL     1      40.771 -24.774 -15.423  0.00  0.00    +0.144 HD
ATOM     10  H   UNL     1      39.817 -25.977 -16.165  0.00  0.00    +0.144 HD
ENDROOT
TORSDOF 0
ENDMDL
MODEL 9
REMARK VINA RESULT:      -4.9      9.643     10.482
REMARK  Name = 68791
REMARK  0 active torsions:
REMARK  status: ('A' for Active; 'I' for Inactive)
REMARK                            x       y       z     vdW  Elec       q    Type
REMARK                         _______ _______ _______ _____ _____    ______ ____
ROOT
ATOM      1  O   UNL     1      40.923 -26.368 -13.954  0.00  0.00    -0.193 OA
ATOM      2  N   UNL     1      38.815 -25.740 -13.215  0.00  0.00    -0.217 N 
ATOM      3  N   UNL     1      39.698 -24.752 -15.086  0.00  0.00    -0.309 NA
ATOM      4  N   UNL     1      37.773 -23.443 -15.748  0.00  0.00    -0.334 N 
ATOM      5  C   UNL     1      37.794 -24.921 -13.828  0.00  0.00    +0.172 C 
ATOM      6  C   UNL     1      38.279 -24.659 -12.455  0.00  0.00    +0.133 C 
ATOM      7  C   UNL     1      38.477 -24.324 -14.991  0.00  0.00    +0.189 C 
ATOM      8  C   UNL     1      39.922 -25.668 -14.062  0.00  0.00    +0.270 C 
ATOM      9  H   UNL     1      38.194 -23.023 -16.534  0.00  0.00    +0.144 HD
ATOM     10  H   UNL     1      36.843 -23.224 -15.513  0.00  0.00    +0.144 HD
ENDROOT
TORSDOF 0
ENDMDL
