MODEL 1
REMARK VINA RESULT:      -6.7      0.000      0.000
REMARK  Name = 7408452
REMARK  2 active torsions:
REMARK  status: ('A' for Active; 'I' for Inactive)
REMARK    1  A    between atoms: CA_7  and  C_13
REMARK    2  A    between atoms: C_13  and  O_14
REMARK                            x       y       z     vdW  Elec       q    Type
REMARK                         _______ _______ _______ _____ _____    ______ ____
ROOT
ATOM      1  N   UNL     1      35.785 -18.286 -20.591  0.00  0.00    +0.393 N 
ATOM      2  C   UNL     1      34.336 -19.569 -21.932  0.00  0.00    -0.021 C 
ATOM      3  C   UNL     1      35.704 -19.603 -21.247  0.00  0.00    -0.061 C 
ATOM      4  C   UNL     1      34.279 -18.139 -22.471  0.00  0.00    -0.013 C 
ATOM      5  C   UNL     1      33.162 -19.851 -20.981  0.00  0.00    -0.002 C 
ATOM      6  C   UNL     1      35.886 -20.779 -20.288  0.00  0.00    -0.021 C 
ATOM      7  CA  UNL     1      35.217 -17.342 -21.566  0.00  0.00    +0.040 C 
ATOM      8  C   UNL     1      33.393 -21.109 -20.152  0.00  0.00    -0.000 C 
ATOM      9  C   UNL     1      34.694 -21.014 -19.364  0.00  0.00    -0.002 C 
ATOM     10  H1  UNL     1      36.754 -18.048 -20.383  0.00  0.00    -0.084 HD
ATOM     11  H2  UNL     1      35.283 -18.269 -19.702  0.00  0.00    -0.084 HD
ENDROOT
BRANCH   7  13
ATOM     12  OXT UNL     1      35.053 -15.462 -20.063  0.00  0.00    -0.253 OA
ATOM     13  C   UNL     1      34.511 -16.266 -20.808  0.00  0.00    +0.293 C 
BRANCH  13  14
ATOM     14  O   UNL     1      33.179 -16.301 -21.054  0.00  0.00    -0.482 OA
ATOM     15  H   UNL     1      32.860 -16.164 -21.924  0.00  0.00    +0.295 HD
ENDBRANCH  13  14
ENDBRANCH   7  13
TORSDOF 2
ENDMDL
MODEL 2
REMARK VINA RESULT:      -6.7      7.980      9.039
REMARK  Name = 7408452
REMARK  2 active torsions:
REMARK  status: ('A' for Active; 'I' for Inactive)
REMARK    1  A    between atoms: CA_7  and  C_13
REMARK    2  A    between atoms: C_13  and  O_14
REMARK                            x       y       z     vdW  Elec       q    Type
REMARK                         _______ _______ _______ _____ _____    ______ ____
ROOT
ATOM      1  N   UNL     1      29.594 -22.405 -16.618  0.00  0.00    +0.393 N 
ATOM      2  C   UNL     1      29.630 -24.654 -15.922  0.00  0.00    -0.021 C 
ATOM      3  C   UNL     1      30.524 -23.539 -16.468  0.00  0.00    -0.061 C 
ATOM      4  C   UNL     1      28.348 -24.469 -16.736  0.00  0.00    -0.013 C 
ATOM      5  C   UNL     1      29.352 -24.542 -14.415  0.00  0.00    -0.002 C 
ATOM      6  C   UNL     1      31.732 -23.229 -15.585  0.00  0.00    -0.021 C 
ATOM      7  CA  UNL     1      28.358 -22.998 -17.152  0.00  0.00    +0.040 C 
ATOM      8  C   UNL     1      30.634 -24.349 -13.615  0.00  0.00    -0.000 C 
ATOM      9  C   UNL     1      31.403 -23.124 -14.098  0.00  0.00    -0.002 C 
ATOM     10  H1  UNL     1      29.972 -21.716 -17.268  0.00  0.00    -0.084 HD
ATOM     11  H2  UNL     1      29.437 -21.918 -15.736  0.00  0.00    -0.084 HD
ENDROOT
BRANCH   7  13
ATOM     12  OXT UNL     1      26.643 -22.479 -15.537  0.00  0.00    -0.253 OA
ATOM     13  C   UNL     1      27.203 -22.233 -16.595  0.00  0.00    +0.293 C 
BRANCH  13  14
ATOM     14  O   UNL     1      26.854 -21.221 -17.427  0.00  0.00    -0.482 OA
ATOM     15  H   UNL     1      26.748 -20.354 -17.090  0.00  0.00    +0.295 HD
ENDBRANCH  13  14
ENDBRANCH   7  13
TORSDOF 2
ENDMDL
MODEL 3
REMARK VINA RESULT:      -6.5      9.426     10.599
REMARK  Name = 7408452
REMARK  2 active torsions:
REMARK  status: ('A' for Active; 'I' for Inactive)
REMARK    1  A    between atoms: CA_7  and  C_13
REMARK    2  A    between atoms: C_13  and  O_14
REMARK                            x       y       z     vdW  Elec       q    Type
REMARK                         _______ _______ _______ _____ _____    ______ ____
ROOT
ATOM      1  N   UNL     1      38.683 -25.458 -12.959  0.00  0.00    +0.393 N 
ATOM      2  C   UNL     1      36.752 -25.671 -14.290  0.00  0.00    -0.021 C 
ATOM      3  C   UNL     1      37.234 -25.705 -12.838  0.00  0.00    -0.061 C 
ATOM      4  C   UNL     1      37.870 -26.416 -15.020  0.00  0.00    -0.013 C 
ATOM      5  C   UNL     1      36.573 -24.251 -14.849  0.00  0.00    -0.002 C 
ATOM      6  C   UNL     1      36.517 -24.711 -11.926  0.00  0.00    -0.021 C 
ATOM      7  CA  UNL     1      39.102 -26.239 -14.133  0.00  0.00    +0.040 C 
ATOM      8  C   UNL     1      35.746 -23.374 -13.916  0.00  0.00    -0.000 C 
ATOM      9  C   UNL     1      36.368 -23.315 -12.526  0.00  0.00    -0.002 C 
ATOM     10  H1  UNL     1      39.171 -25.777 -12.123  0.00  0.00    -0.084 HD
ATOM     11  H2  UNL     1      38.896 -24.466 -13.061  0.00  0.00    -0.084 HD
ENDROOT
BRANCH   7  13
ATOM     12  OXT UNL     1      40.872 -24.608 -14.299  0.00  0.00    -0.253 OA
ATOM     13  C   UNL     1      40.201 -25.491 -14.814  0.00  0.00    +0.293 C 
BRANCH  13  14
ATOM     14  O   UNL     1      40.356 -25.922 -16.090  0.00  0.00    -0.482 OA
ATOM     15  H   UNL     1      40.333 -25.309 -16.797  0.00  0.00    +0.295 HD
ENDBRANCH  13  14
ENDBRANCH   7  13
TORSDOF 2
ENDMDL
MODEL 4
REMARK VINA RESULT:      -6.5      2.876      3.772
REMARK  Name = 7408452
REMARK  2 active torsions:
REMARK  status: ('A' for Active; 'I' for Inactive)
REMARK    1  A    between atoms: CA_7  and  C_13
REMARK    2  A    between atoms: C_13  and  O_14
REMARK                            x       y       z     vdW  Elec       q    Type
REMARK                         _______ _______ _______ _____ _____    ______ ____
ROOT
ATOM      1  N   UNL     1      34.246 -17.057 -21.559  0.00  0.00    +0.393 N 
ATOM      2  C   UNL     1      35.134 -15.998 -23.465  0.00  0.00    -0.021 C 
ATOM      3  C   UNL     1      35.418 -17.109 -22.451  0.00  0.00    -0.061 C 
ATOM      4  C   UNL     1      34.555 -14.893 -22.581  0.00  0.00    -0.013 C 
ATOM      5  C   UNL     1      34.142 -16.405 -24.566  0.00  0.00    -0.002 C 
ATOM      6  C   UNL     1      35.646 -18.480 -23.086  0.00  0.00    -0.021 C 
ATOM      7  CA  UNL     1      33.978 -15.623 -21.369  0.00  0.00    +0.040 C 
ATOM      8  C   UNL     1      34.525 -17.731 -25.213  0.00  0.00    -0.000 C 
ATOM      9  C   UNL     1      34.633 -18.838 -24.170  0.00  0.00    -0.002 C 
ATOM     10  H1  UNL     1      34.455 -17.505 -20.667  0.00  0.00    -0.084 HD
ATOM     11  H2  UNL     1      33.443 -17.550 -21.951  0.00  0.00    -0.084 HD
ENDROOT
BRANCH   7  13
ATOM     12  OXT UNL     1      31.762 -16.174 -20.593  0.00  0.00    -0.253 OA
ATOM     13  C   UNL     1      32.501 -15.445 -21.236  0.00  0.00    +0.293 C 
BRANCH  13  14
ATOM     14  O   UNL     1      32.085 -14.358 -21.933  0.00  0.00    -0.482 OA
ATOM     15  H   UNL     1      31.173 -14.151 -21.976  0.00  0.00    +0.295 HD
ENDBRANCH  13  14
ENDBRANCH   7  13
TORSDOF 2
ENDMDL
MODEL 5
REMARK VINA RESULT:      -6.5      8.177      9.988
REMARK  Name = 7408452
REMARK  2 active torsions:
REMARK  status: ('A' for Active; 'I' for Inactive)
REMARK    1  A    between atoms: CA_7  and  C_13
REMARK    2  A    between atoms: C_13  and  O_14
REMARK                            x       y       z     vdW  Elec       q    Type
REMARK                         _______ _______ _______ _____ _____    ______ ____
ROOT
ATOM      1  N   UNL     1      35.140 -23.597 -12.993  0.00  0.00    +0.393 N 
ATOM      2  C   UNL     1      36.609 -24.892 -14.302  0.00  0.00    -0.021 C 
ATOM      3  C   UNL     1      35.215 -24.260 -14.308  0.00  0.00    -0.061 C 
ATOM      4  C   UNL     1      36.719 -25.418 -12.871  0.00  0.00    -0.013 C 
ATOM      5  C   UNL     1      37.739 -23.899 -14.617  0.00  0.00    -0.002 C 
ATOM      6  C   UNL     1      34.970 -23.317 -15.485  0.00  0.00    -0.021 C 
ATOM      7  CA  UNL     1      35.767 -24.544 -12.057  0.00  0.00    +0.040 C 
ATOM      8  C   UNL     1      37.448 -23.088 -15.874  0.00  0.00    -0.000 C 
ATOM      9  C   UNL     1      36.120 -22.349 -15.754  0.00  0.00    -0.002 C 
ATOM     10  H1  UNL     1      34.169 -23.425 -12.734  0.00  0.00    -0.084 HD
ATOM     11  H2  UNL     1      35.608 -22.691 -12.994  0.00  0.00    -0.084 HD
ENDROOT
BRANCH   7  13
ATOM     12  OXT UNL     1      37.264 -22.850 -11.216  0.00  0.00    -0.253 OA
ATOM     13  C   UNL     1      36.467 -23.752 -11.003  0.00  0.00    +0.293 C 
BRANCH  13  14
ATOM     14  O   UNL     1      36.102 -24.171  -9.766  0.00  0.00    -0.482 OA
ATOM     15  H   UNL     1      36.383 -25.008  -9.454  0.00  0.00    +0.295 HD
ENDBRANCH  13  14
ENDBRANCH   7  13
TORSDOF 2
ENDMDL
MODEL 6
REMARK VINA RESULT:      -6.4      7.222      8.920
REMARK  Name = 7408452
REMARK  2 active torsions:
REMARK  status: ('A' for Active; 'I' for Inactive)
REMARK    1  A    between atoms: CA_7  and  C_13
REMARK    2  A    between atoms: C_13  and  O_14
REMARK                            x       y       z     vdW  Elec       q    Type
REMARK                         _______ _______ _______ _____ _____    ______ ____
ROOT
ATOM      1  N   UNL     1      37.800 -24.103 -15.449  0.00  0.00    +0.393 N 
ATOM      2  C   UNL     1      35.681 -23.219 -14.929  0.00  0.00    -0.021 C 
ATOM      3  C   UNL     1      37.132 -22.813 -15.196  0.00  0.00    -0.061 C 
ATOM      4  C   UNL     1      35.848 -24.481 -14.082  0.00  0.00    -0.013 C 
ATOM      5  C   UNL     1      34.875 -23.509 -16.205  0.00  0.00    -0.002 C 
ATOM      6  C   UNL     1      37.292 -21.806 -16.334  0.00  0.00    -0.021 C 
ATOM      7  CA  UNL     1      37.223 -25.028 -14.462  0.00  0.00    +0.040 C 
ATOM      8  C   UNL     1      35.011 -22.389 -17.229  0.00  0.00    -0.000 C 
ATOM      9  C   UNL     1      36.474 -22.141 -17.579  0.00  0.00    -0.002 C 
ATOM     10  H1  UNL     1      38.807 -24.017 -15.315  0.00  0.00    -0.084 HD
ATOM     11  H2  UNL     1      37.660 -24.426 -16.407  0.00  0.00    -0.084 HD
ENDROOT
BRANCH   7  13
ATOM     12  OXT UNL     1      36.291 -26.751 -15.870  0.00  0.00    -0.253 OA
ATOM     13  C   UNL     1      37.154 -26.383 -15.086  0.00  0.00    +0.293 C 
BRANCH  13  14
ATOM     14  O   UNL     1      38.182 -27.159 -14.662  0.00  0.00    -0.482 OA
ATOM     15  H   UNL     1      38.717 -26.877 -13.948  0.00  0.00    +0.295 HD
ENDBRANCH  13  14
ENDBRANCH   7  13
TORSDOF 2
ENDMDL
MODEL 7
REMARK VINA RESULT:      -6.3      9.291     10.426
REMARK  Name = 7408452
REMARK  2 active torsions:
REMARK  status: ('A' for Active; 'I' for Inactive)
REMARK    1  A    between atoms: CA_7  and  C_13
REMARK    2  A    between atoms: C_13  and  O_14
REMARK                            x       y       z     vdW  Elec       q    Type
REMARK                         _______ _______ _______ _____ _____    ______ ____
ROOT
ATOM      1  N   UNL     1      35.475 -25.440 -14.108  0.00  0.00    +0.393 N 
ATOM      2  C   UNL     1      36.856 -23.554 -13.820  0.00  0.00    -0.021 C 
ATOM      3  C   UNL     1      35.413 -24.038 -13.655  0.00  0.00    -0.061 C 
ATOM      4  C   UNL     1      37.263 -24.195 -15.147  0.00  0.00    -0.013 C 
ATOM      5  C   UNL     1      37.788 -23.994 -12.680  0.00  0.00    -0.002 C 
ATOM      6  C   UNL     1      34.864 -23.874 -12.238  0.00  0.00    -0.021 C 
ATOM      7  CA  UNL     1      36.357 -25.418 -15.285  0.00  0.00    +0.040 C 
ATOM      8  C   UNL     1      37.198 -23.681 -11.311  0.00  0.00    -0.000 C 
ATOM      9  C   UNL     1      35.828 -24.329 -11.144  0.00  0.00    -0.002 C 
ATOM     10  H1  UNL     1      34.546 -25.776 -14.361  0.00  0.00    -0.084 HD
ATOM     11  H2  UNL     1      35.822 -26.063 -13.378  0.00  0.00    -0.084 HD
ENDROOT
BRANCH   7  13
ATOM     12  OXT UNL     1      37.925 -27.057 -14.463  0.00  0.00    -0.253 OA
ATOM     13  C   UNL     1      37.120 -26.702 -15.311  0.00  0.00    +0.293 C 
BRANCH  13  14
ATOM     14  O   UNL     1      36.800 -27.427 -16.412  0.00  0.00    -0.482 OA
ATOM     15  H   UNL     1      35.917 -27.441 -16.722  0.00  0.00    +0.295 HD
ENDBRANCH  13  14
ENDBRANCH   7  13
TORSDOF 2
ENDMDL
MODEL 8
REMARK VINA RESULT:      -6.3      8.043      9.643
REMARK  Name = 7408452
REMARK  2 active torsions:
REMARK  status: ('A' for Active; 'I' for Inactive)
REMARK    1  A    between atoms: CA_7  and  C_13
REMARK    2  A    between atoms: C_13  and  O_14
REMARK                            x       y       z     vdW  Elec       q    Type
REMARK                         _______ _______ _______ _____ _____    ______ ____
ROOT
ATOM      1  N   UNL     1      37.516 -24.444 -15.333  0.00  0.00    +0.393 N 
ATOM      2  C   UNL     1      36.167 -23.286 -13.789  0.00  0.00    -0.021 C 
ATOM      3  C   UNL     1      36.969 -23.098 -15.079  0.00  0.00    -0.061 C 
ATOM      4  C   UNL     1      37.077 -24.204 -12.972  0.00  0.00    -0.013 C 
ATOM      5  C   UNL     1      34.786 -23.923 -14.008  0.00  0.00    -0.002 C 
ATOM      6  C   UNL     1      36.149 -22.539 -16.241  0.00  0.00    -0.021 C 
ATOM      7  CA  UNL     1      37.919 -24.944 -14.010  0.00  0.00    +0.040 C 
ATOM      8  C   UNL     1      34.004 -23.218 -15.109  0.00  0.00    -0.000 C 
ATOM      9  C   UNL     1      34.788 -23.208 -16.417  0.00  0.00    -0.002 C 
ATOM     10  H1  UNL     1      38.319 -24.392 -15.958  0.00  0.00    -0.084 HD
ATOM     11  H2  UNL     1      36.835 -25.055 -15.784  0.00  0.00    -0.084 HD
ENDROOT
BRANCH   7  13
ATOM     12  OXT UNL     1      38.219 -27.221 -14.750  0.00  0.00    -0.253 OA
ATOM     13  C   UNL     1      37.695 -26.421 -13.989  0.00  0.00    +0.293 C 
BRANCH  13  14
ATOM     14  O   UNL     1      36.823 -26.759 -13.007  0.00  0.00    -0.482 OA
ATOM     15  H   UNL     1      37.103 -27.307 -12.301  0.00  0.00    +0.295 HD
ENDBRANCH  13  14
ENDBRANCH   7  13
TORSDOF 2
ENDMDL
MODEL 9
REMARK VINA RESULT:      -6.2      2.298      4.269
REMARK  Name = 7408452
REMARK  2 active torsions:
REMARK  status: ('A' for Active; 'I' for Inactive)
REMARK    1  A    between atoms: CA_7  and  C_13
REMARK    2  A    between atoms: C_13  and  O_14
REMARK                            x       y       z     vdW  Elec       q    Type
REMARK                         _______ _______ _______ _____ _____    ______ ____
ROOT
ATOM      1  N   UNL     1      34.385 -19.348 -22.872  0.00  0.00    +0.393 N 
ATOM      2  C   UNL     1      35.923 -17.723 -22.141  0.00  0.00    -0.021 C 
ATOM      3  C   UNL     1      35.450 -18.470 -23.390  0.00  0.00    -0.061 C 
ATOM      4  C   UNL     1      35.916 -18.825 -21.082  0.00  0.00    -0.013 C 
ATOM      5  C   UNL     1      35.009 -16.556 -21.736  0.00  0.00    -0.002 C 
ATOM      6  C   UNL     1      34.992 -17.552 -24.523  0.00  0.00    -0.021 C 
ATOM      7  CA  UNL     1      34.897 -19.846 -21.586  0.00  0.00    +0.040 C 
ATOM      8  C   UNL     1      34.707 -15.636 -22.913  0.00  0.00    -0.000 C 
ATOM      9  C   UNL     1      34.084 -16.412 -24.068  0.00  0.00    -0.002 C 
ATOM     10  H1  UNL     1      34.215 -20.121 -23.515  0.00  0.00    -0.084 HD
ATOM     11  H2  UNL     1      33.498 -18.855 -22.768  0.00  0.00    -0.084 HD
ENDROOT
BRANCH   7  13
ATOM     12  OXT UNL     1      32.701 -19.361 -20.713  0.00  0.00    -0.253 OA
ATOM     13  C   UNL     1      33.736 -20.009 -20.661  0.00  0.00    +0.293 C 
BRANCH  13  14
ATOM     14  O   UNL     1      33.985 -20.977 -19.745  0.00  0.00    -0.482 OA
ATOM     15  H   UNL     1      34.799 -20.985 -19.282  0.00  0.00    +0.295 HD
ENDBRANCH  13  14
ENDBRANCH   7  13
TORSDOF 2
ENDMDL
