MODEL 1
REMARK VINA RESULT:     -10.6      0.000      0.000
REMARK  Name = 10915062
REMARK  5 active torsions:
REMARK  status: ('A' for Active; 'I' for Inactive)
REMARK    1  A    between atoms: N_1  and  C_18
REMARK    2  A    between atoms: C_3  and  C_27
REMARK    3  A    between atoms: C_5  and  N_7
REMARK    4  A    between atoms: N_8  and  C_12
REMARK    5  A    between atoms: C_21  and  N_24
REMARK                            x       y       z     vdW  Elec       q    Type
REMARK                         _______ _______ _______ _____ _____    ______ ____
ROOT
ATOM      1  N   UNL     1      34.800 -23.934 -14.916  0.00  0.00    -0.177 N 
ATOM      2  N   UNL     1      35.385 -24.409 -13.803  0.00  0.00    -0.177 NA
ATOM      3  C   UNL     1      36.643 -24.306 -14.132  0.00  0.00    +0.079 C 
ATOM      4  C   UNL     1      36.932 -23.802 -15.371  0.00  0.00    +0.048 C 
ATOM      5  C   UNL     1      35.683 -23.559 -15.886  0.00  0.00    +0.129 C 
ENDROOT
BRANCH   5   7
ATOM      6  O   UNL     1      36.707 -21.170 -17.295  0.00  0.00    -0.252 OA
ATOM      7  N   UNL     1      35.309 -23.048 -17.102  0.00  0.00    -0.255 N 
ATOM      8  N   UNL     1      35.182 -21.705 -18.981  0.00  0.00    -0.268 N 
ATOM      9  C   UNL     1      35.827 -21.894 -17.747  0.00  0.00    +0.309 C 
ATOM     10  H   UNL     1      34.601 -23.536 -17.581  0.00  0.00    +0.158 HD
ATOM     11  H   UNL     1      34.492 -22.368 -19.213  0.00  0.00    +0.156 HD
BRANCH   8  12
ATOM     12  C   UNL     1      35.399 -20.679 -19.930  0.00  0.00    +0.052 C 
ATOM     13  C   UNL     1      34.315 -20.130 -20.596  0.00  0.00    +0.015 C 
ATOM     14  C   UNL     1      36.691 -20.243 -20.174  0.00  0.00    +0.015 C 
ATOM     15  C   UNL     1      34.529 -19.118 -21.531  0.00  0.00    +0.001 C 
ATOM     16  C   UNL     1      36.905 -19.231 -21.110  0.00  0.00    +0.001 C 
ATOM     17  C   UNL     1      35.824 -18.669 -21.789  0.00  0.00    +0.000 C 
ENDBRANCH   8  12
ENDBRANCH   5   7
BRANCH   1  18
ATOM     18  C   UNL     1      33.408 -23.868 -14.988  0.00  0.00    +0.076 C 
ATOM     19  C   UNL     1      32.642 -24.469 -13.998  0.00  0.00    +0.031 C 
ATOM     20  C   UNL     1      32.808 -23.204 -16.050  0.00  0.00    +0.017 C 
ATOM     21  C   UNL     1      31.249 -24.404 -14.071  0.00  0.00    +0.043 C 
ATOM     22  C   UNL     1      31.417 -23.140 -16.124  0.00  0.00    +0.003 C 
ATOM     23  C   UNL     1      30.638 -23.740 -15.134  0.00  0.00    +0.014 C 
BRANCH  21  24
ATOM     24  N   UNL     1      30.461 -25.009 -13.071  0.00  0.00    -0.357 N 
ATOM     25  H   UNL     1      30.808 -25.783 -12.570  0.00  0.00    +0.142 HD
ATOM     26  H   UNL     1      29.564 -24.657 -12.871  0.00  0.00    +0.142 HD
ENDBRANCH  21  24
ENDBRANCH   1  18
BRANCH   3  27
ATOM     27  C   UNL     1      37.683 -24.763 -13.093  0.00  0.00    +0.037 C 
ATOM     28  C   UNL     1      37.212 -26.063 -12.402  0.00  0.00    +0.006 C 
ATOM     29  C   UNL     1      37.884 -23.668 -12.020  0.00  0.00    +0.006 C 
ATOM     30  C   UNL     1      39.075 -25.058 -13.698  0.00  0.00    +0.006 C 
ENDBRANCH   3  27
TORSDOF 5
ENDMDL
MODEL 2
REMARK VINA RESULT:     -10.4      1.901      4.844
REMARK  Name = 10915062
REMARK  5 active torsions:
REMARK  status: ('A' for Active; 'I' for Inactive)
REMARK    1  A    between atoms: N_1  and  C_18
REMARK    2  A    between atoms: C_3  and  C_27
REMARK    3  A    between atoms: C_5  and  N_7
REMARK    4  A    between atoms: N_8  and  C_12
REMARK    5  A    between atoms: C_21  and  N_24
REMARK                            x       y       z     vdW  Elec       q    Type
REMARK                         _______ _______ _______ _____ _____    ______ ____
ROOT
ATOM      1  N   UNL     1      33.724 -23.550 -16.165  0.00  0.00    -0.177 N 
ATOM      2  N   UNL     1      32.688 -23.984 -15.426  0.00  0.00    -0.177 NA
ATOM      3  C   UNL     1      31.687 -23.544 -16.138  0.00  0.00    +0.079 C 
ATOM      4  C   UNL     1      31.981 -22.856 -17.283  0.00  0.00    +0.048 C 
ATOM      5  C   UNL     1      33.354 -22.868 -17.287  0.00  0.00    +0.129 C 
ENDROOT
BRANCH   5   7
ATOM      6  O   UNL     1      32.909 -20.779 -19.331  0.00  0.00    -0.252 OA
ATOM      7  N   UNL     1      34.242 -22.336 -18.185  0.00  0.00    -0.255 N 
ATOM      8  N   UNL     1      35.161 -21.060 -19.882  0.00  0.00    -0.268 N 
ATOM      9  C   UNL     1      33.990 -21.331 -19.154  0.00  0.00    +0.309 C 
ATOM     10  H   UNL     1      35.160 -22.693 -18.154  0.00  0.00    +0.158 HD
ATOM     11  H   UNL     1      35.956 -21.583 -19.629  0.00  0.00    +0.156 HD
BRANCH   8  12
ATOM     12  C   UNL     1      35.340 -20.131 -20.933  0.00  0.00    +0.052 C 
ATOM     13  C   UNL     1      34.364 -20.014 -21.909  0.00  0.00    +0.015 C 
ATOM     14  C   UNL     1      36.488 -19.356 -20.964  0.00  0.00    +0.015 C 
ATOM     15  C   UNL     1      34.541 -19.097 -22.945  0.00  0.00    +0.001 C 
ATOM     16  C   UNL     1      36.665 -18.439 -22.001  0.00  0.00    +0.001 C 
ATOM     17  C   UNL     1      35.691 -18.310 -22.991  0.00  0.00    +0.000 C 
ENDBRANCH   8  12
ENDBRANCH   5   7
BRANCH   1  18
ATOM     18  C   UNL     1      35.029 -23.817 -15.746  0.00  0.00    +0.076 C 
ATOM     19  C   UNL     1      35.316 -25.030 -15.134  0.00  0.00    +0.031 C 
ATOM     20  C   UNL     1      36.020 -22.865 -15.947  0.00  0.00    +0.017 C 
ATOM     21  C   UNL     1      36.621 -25.296 -14.715  0.00  0.00    +0.043 C 
ATOM     22  C   UNL     1      37.323 -23.131 -15.527  0.00  0.00    +0.003 C 
ATOM     23  C   UNL     1      37.623 -24.346 -14.911  0.00  0.00    +0.014 C 
BRANCH  21  24
ATOM     24  N   UNL     1      36.925 -26.524 -14.094  0.00  0.00    -0.357 N 
ATOM     25  H   UNL     1      36.354 -26.864 -13.367  0.00  0.00    +0.142 HD
ATOM     26  H   UNL     1      37.708 -27.044 -14.387  0.00  0.00    +0.142 HD
ENDBRANCH  21  24
ENDBRANCH   1  18
BRANCH   3  27
ATOM     27  C   UNL     1      30.270 -23.840 -15.617  0.00  0.00    +0.037 C 
ATOM     28  C   UNL     1      30.055 -23.172 -14.239  0.00  0.00    +0.006 C 
ATOM     29  C   UNL     1      30.060 -25.365 -15.474  0.00  0.00    +0.006 C 
ATOM     30  C   UNL     1      29.146 -23.320 -16.544  0.00  0.00    +0.006 C 
ENDBRANCH   3  27
TORSDOF 5
ENDMDL
MODEL 3
REMARK VINA RESULT:     -10.0      2.109      7.192
REMARK  Name = 10915062
REMARK  5 active torsions:
REMARK  status: ('A' for Active; 'I' for Inactive)
REMARK    1  A    between atoms: N_1  and  C_18
REMARK    2  A    between atoms: C_3  and  C_27
REMARK    3  A    between atoms: C_5  and  N_7
REMARK    4  A    between atoms: N_8  and  C_12
REMARK    5  A    between atoms: C_21  and  N_24
REMARK                            x       y       z     vdW  Elec       q    Type
REMARK                         _______ _______ _______ _____ _____    ______ ____
ROOT
ATOM      1  N   UNL     1      32.748 -22.695 -17.177  0.00  0.00    -0.177 N 
ATOM      2  N   UNL     1      31.415 -22.853 -17.243  0.00  0.00    -0.177 NA
ATOM      3  C   UNL     1      31.179 -23.387 -16.076  0.00  0.00    +0.079 C 
ATOM      4  C   UNL     1      32.249 -23.592 -15.248  0.00  0.00    +0.048 C 
ATOM      5  C   UNL     1      33.296 -23.123 -16.003  0.00  0.00    +0.129 C 
ENDROOT
BRANCH   5   7
ATOM      6  O   UNL     1      35.114 -25.276 -15.109  0.00  0.00    -0.252 OA
ATOM      7  N   UNL     1      34.635 -23.059 -15.717  0.00  0.00    -0.255 N 
ATOM      8  N   UNL     1      36.786 -23.646 -15.102  0.00  0.00    -0.268 N 
ATOM      9  C   UNL     1      35.477 -24.119 -15.289  0.00  0.00    +0.309 C 
ATOM     10  H   UNL     1      35.061 -22.177 -15.820  0.00  0.00    +0.158 HD
ATOM     11  H   UNL     1      36.929 -22.689 -15.286  0.00  0.00    +0.156 HD
BRANCH   8  12
ATOM     12  C   UNL     1      37.925 -24.373 -14.683  0.00  0.00    +0.052 C 
ATOM     13  C   UNL     1      39.013 -24.480 -15.535  0.00  0.00    +0.015 C 
ATOM     14  C   UNL     1      37.930 -24.962 -13.429  0.00  0.00    +0.015 C 
ATOM     15  C   UNL     1      40.136 -25.197 -15.121  0.00  0.00    +0.001 C 
ATOM     16  C   UNL     1      39.053 -25.678 -13.015  0.00  0.00    +0.001 C 
ATOM     17  C   UNL     1      40.155 -25.796 -13.861  0.00  0.00    +0.000 C 
ENDBRANCH   8  12
ENDBRANCH   5   7
BRANCH   1  18
ATOM     18  C   UNL     1      33.430 -22.136 -18.258  0.00  0.00    +0.076 C 
ATOM     19  C   UNL     1      32.765 -21.266 -19.111  0.00  0.00    +0.031 C 
ATOM     20  C   UNL     1      34.765 -22.459 -18.465  0.00  0.00    +0.017 C 
ATOM     21  C   UNL     1      33.448 -20.708 -20.193  0.00  0.00    +0.043 C 
ATOM     22  C   UNL     1      35.447 -21.902 -19.547  0.00  0.00    +0.003 C 
ATOM     23  C   UNL     1      34.788 -21.026 -20.410  0.00  0.00    +0.014 C 
BRANCH  21  24
ATOM     24  N   UNL     1      32.783 -19.822 -21.066  0.00  0.00    -0.357 N 
ATOM     25  H   UNL     1      31.836 -19.597 -20.913  0.00  0.00    +0.142 HD
ATOM     26  H   UNL     1      33.265 -19.427 -21.828  0.00  0.00    +0.142 HD
ENDBRANCH  21  24
ENDBRANCH   1  18
BRANCH   3  27
ATOM     27  C   UNL     1      29.717 -23.735 -15.744  0.00  0.00    +0.037 C 
ATOM     28  C   UNL     1      29.038 -22.552 -15.015  0.00  0.00    +0.006 C 
ATOM     29  C   UNL     1      29.658 -24.985 -14.835  0.00  0.00    +0.006 C 
ATOM     30  C   UNL     1      28.855 -24.046 -16.990  0.00  0.00    +0.006 C 
ENDBRANCH   3  27
TORSDOF 5
ENDMDL
MODEL 4
REMARK VINA RESULT:      -9.8      7.036     12.591
REMARK  Name = 10915062
REMARK  5 active torsions:
REMARK  status: ('A' for Active; 'I' for Inactive)
REMARK    1  A    between atoms: N_1  and  C_18
REMARK    2  A    between atoms: C_3  and  C_27
REMARK    3  A    between atoms: C_5  and  N_7
REMARK    4  A    between atoms: N_8  and  C_12
REMARK    5  A    between atoms: C_21  and  N_24
REMARK                            x       y       z     vdW  Elec       q    Type
REMARK                         _______ _______ _______ _____ _____    ______ ____
ROOT
ATOM      1  N   UNL     1      32.613 -12.832 -22.901  0.00  0.00    -0.177 N 
ATOM      2  N   UNL     1      32.237 -11.615 -22.473  0.00  0.00    -0.177 NA
ATOM      3  C   UNL     1      32.046 -11.856 -21.205  0.00  0.00    +0.079 C 
ATOM      4  C   UNL     1      32.266 -13.133 -20.765  0.00  0.00    +0.048 C 
ATOM      5  C   UNL     1      32.645 -13.777 -21.917  0.00  0.00    +0.129 C 
ENDROOT
BRANCH   5   7
ATOM      6  O   UNL     1      34.236 -15.572 -20.189  0.00  0.00    -0.252 OA
ATOM      7  N   UNL     1      32.999 -15.084 -22.125  0.00  0.00    -0.255 N 
ATOM      8  N   UNL     1      33.910 -17.191 -21.840  0.00  0.00    -0.268 N 
ATOM      9  C   UNL     1      33.767 -15.916 -21.269  0.00  0.00    +0.309 C 
ATOM     10  H   UNL     1      32.686 -15.492 -22.965  0.00  0.00    +0.158 HD
ATOM     11  H   UNL     1      33.478 -17.323 -22.716  0.00  0.00    +0.156 HD
BRANCH   8  12
ATOM     12  C   UNL     1      34.598 -18.310 -21.316  0.00  0.00    +0.052 C 
ATOM     13  C   UNL     1      35.983 -18.295 -21.270  0.00  0.00    +0.015 C 
ATOM     14  C   UNL     1      33.873 -19.399 -20.858  0.00  0.00    +0.015 C 
ATOM     15  C   UNL     1      36.661 -19.399 -20.752  0.00  0.00    +0.001 C 
ATOM     16  C   UNL     1      34.552 -20.502 -20.340  0.00  0.00    +0.001 C 
ATOM     17  C   UNL     1      35.945 -20.502 -20.287  0.00  0.00    +0.000 C 
ENDBRANCH   8  12
ENDBRANCH   5   7
BRANCH   1  18
ATOM     18  C   UNL     1      32.923 -13.024 -24.248  0.00  0.00    +0.076 C 
ATOM     19  C   UNL     1      32.538 -14.199 -24.878  0.00  0.00    +0.031 C 
ATOM     20  C   UNL     1      33.614 -12.037 -24.938  0.00  0.00    +0.017 C 
ATOM     21  C   UNL     1      32.849 -14.391 -26.225  0.00  0.00    +0.043 C 
ATOM     22  C   UNL     1      33.926 -12.229 -26.284  0.00  0.00    +0.003 C 
ATOM     23  C   UNL     1      33.544 -13.406 -26.927  0.00  0.00    +0.014 C 
BRANCH  21  24
ATOM     24  N   UNL     1      32.462 -15.580 -26.876  0.00  0.00    -0.357 N 
ATOM     25  H   UNL     1      31.974 -16.278 -26.381  0.00  0.00    +0.142 HD
ATOM     26  H   UNL     1      32.680 -15.714 -27.827  0.00  0.00    +0.142 HD
ENDBRANCH  21  24
ENDBRANCH   1  18
BRANCH   3  27
ATOM     27  C   UNL     1      31.590 -10.678 -20.325  0.00  0.00    +0.037 C 
ATOM     28  C   UNL     1      30.085 -10.807 -19.997  0.00  0.00    +0.006 C 
ATOM     29  C   UNL     1      31.831  -9.338 -21.058  0.00  0.00    +0.006 C 
ATOM     30  C   UNL     1      32.336 -10.589 -18.973  0.00  0.00    +0.006 C 
ENDBRANCH   3  27
TORSDOF 5
ENDMDL
MODEL 5
REMARK VINA RESULT:      -9.8      2.433      5.861
REMARK  Name = 10915062
REMARK  5 active torsions:
REMARK  status: ('A' for Active; 'I' for Inactive)
REMARK    1  A    between atoms: N_1  and  C_18
REMARK    2  A    between atoms: C_3  and  C_27
REMARK    3  A    between atoms: C_5  and  N_7
REMARK    4  A    between atoms: N_8  and  C_12
REMARK    5  A    between atoms: C_21  and  N_24
REMARK                            x       y       z     vdW  Elec       q    Type
REMARK                         _______ _______ _______ _____ _____    ______ ____
ROOT
ATOM      1  N   UNL     1      35.172 -23.317 -15.249  0.00  0.00    -0.177 N 
ATOM      2  N   UNL     1      36.230 -23.327 -14.421  0.00  0.00    -0.177 NA
ATOM      3  C   UNL     1      35.704 -23.892 -13.369  0.00  0.00    +0.079 C 
ATOM      4  C   UNL     1      34.386 -24.252 -13.439  0.00  0.00    +0.048 C 
ATOM      5  C   UNL     1      34.042 -23.858 -14.708  0.00  0.00    +0.129 C 
ENDROOT
BRANCH   5   7
ATOM      6  O   UNL     1      31.546 -22.337 -14.270  0.00  0.00    -0.252 OA
ATOM      7  N   UNL     1      32.847 -23.952 -15.372  0.00  0.00    -0.255 N 
ATOM      8  N   UNL     1      30.657 -23.594 -16.026  0.00  0.00    -0.268 N 
ATOM      9  C   UNL     1      31.666 -23.201 -15.132  0.00  0.00    +0.309 C 
ATOM     10  H   UNL     1      32.802 -24.616 -16.098  0.00  0.00    +0.158 HD
ATOM     11  H   UNL     1      30.899 -24.304 -16.665  0.00  0.00    +0.156 HD
BRANCH   8  12
ATOM     12  C   UNL     1      29.336 -23.098 -16.124  0.00  0.00    +0.052 C 
ATOM     13  C   UNL     1      28.674 -23.166 -17.339  0.00  0.00    +0.015 C 
ATOM     14  C   UNL     1      28.730 -22.556 -15.002  0.00  0.00    +0.015 C 
ATOM     15  C   UNL     1      27.370 -22.677 -17.434  0.00  0.00    +0.001 C 
ATOM     16  C   UNL     1      27.427 -22.068 -15.097  0.00  0.00    +0.001 C 
ATOM     17  C   UNL     1      26.748 -22.128 -16.314  0.00  0.00    +0.000 C 
ENDBRANCH   8  12
ENDBRANCH   5   7
BRANCH   1  18
ATOM     18  C   UNL     1      35.305 -22.779 -16.531  0.00  0.00    +0.076 C 
ATOM     19  C   UNL     1      34.240 -22.856 -17.419  0.00  0.00    +0.031 C 
ATOM     20  C   UNL     1      36.500 -22.177 -16.899  0.00  0.00    +0.017 C 
ATOM     21  C   UNL     1      34.373 -22.319 -18.700  0.00  0.00    +0.043 C 
ATOM     22  C   UNL     1      36.634 -21.642 -18.180  0.00  0.00    +0.003 C 
ATOM     23  C   UNL     1      35.570 -21.713 -19.080  0.00  0.00    +0.014 C 
BRANCH  21  24
ATOM     24  N   UNL     1      33.299 -22.390 -19.610  0.00  0.00    -0.357 N 
ATOM     25  H   UNL     1      32.619 -21.677 -19.627  0.00  0.00    +0.142 HD
ATOM     26  H   UNL     1      33.227 -23.151 -20.229  0.00  0.00    +0.142 HD
ENDBRANCH  21  24
ENDBRANCH   1  18
BRANCH   3  27
ATOM     27  C   UNL     1      36.618 -24.095 -12.148  0.00  0.00    +0.037 C 
ATOM     28  C   UNL     1      35.770 -24.371 -10.884  0.00  0.00    +0.006 C 
ATOM     29  C   UNL     1      37.481 -22.835 -11.909  0.00  0.00    +0.006 C 
ATOM     30  C   UNL     1      37.596 -25.285 -12.297  0.00  0.00    +0.006 C 
ENDBRANCH   3  27
TORSDOF 5
ENDMDL
MODEL 6
REMARK VINA RESULT:      -9.6      7.177     12.792
REMARK  Name = 10915062
REMARK  5 active torsions:
REMARK  status: ('A' for Active; 'I' for Inactive)
REMARK    1  A    between atoms: N_1  and  C_18
REMARK    2  A    between atoms: C_3  and  C_27
REMARK    3  A    between atoms: C_5  and  N_7
REMARK    4  A    between atoms: N_8  and  C_12
REMARK    5  A    between atoms: C_21  and  N_24
REMARK                            x       y       z     vdW  Elec       q    Type
REMARK                         _______ _______ _______ _____ _____    ______ ____
ROOT
ATOM      1  N   UNL     1      32.674 -12.872 -22.965  0.00  0.00    -0.177 N 
ATOM      2  N   UNL     1      32.266 -11.664 -22.540  0.00  0.00    -0.177 NA
ATOM      3  C   UNL     1      32.034 -11.919 -21.281  0.00  0.00    +0.079 C 
ATOM      4  C   UNL     1      32.256 -13.197 -20.845  0.00  0.00    +0.048 C 
ATOM      5  C   UNL     1      32.684 -13.826 -21.989  0.00  0.00    +0.129 C 
ENDROOT
BRANCH   5   7
ATOM      6  O   UNL     1      34.244 -15.612 -20.224  0.00  0.00    -0.252 OA
ATOM      7  N   UNL     1      33.064 -15.126 -22.196  0.00  0.00    -0.255 N 
ATOM      8  N   UNL     1      33.995 -17.222 -21.897  0.00  0.00    -0.268 N 
ATOM      9  C   UNL     1      33.815 -15.954 -21.321  0.00  0.00    +0.309 C 
ATOM     10  H   UNL     1      32.784 -15.532 -23.048  0.00  0.00    +0.158 HD
ATOM     11  H   UNL     1      33.593 -17.353 -22.787  0.00  0.00    +0.156 HD
BRANCH   8  12
ATOM     12  C   UNL     1      34.682 -18.336 -21.360  0.00  0.00    +0.052 C 
ATOM     13  C   UNL     1      36.066 -18.320 -21.309  0.00  0.00    +0.015 C 
ATOM     14  C   UNL     1      33.956 -19.420 -20.893  0.00  0.00    +0.015 C 
ATOM     15  C   UNL     1      36.743 -19.418 -20.778  0.00  0.00    +0.001 C 
ATOM     16  C   UNL     1      34.633 -20.518 -20.362  0.00  0.00    +0.001 C 
ATOM     17  C   UNL     1      36.027 -20.516 -20.305  0.00  0.00    +0.000 C 
ENDBRANCH   8  12
ENDBRANCH   5   7
BRANCH   1  18
ATOM     18  C   UNL     1      33.033 -13.048 -24.302  0.00  0.00    +0.076 C 
ATOM     19  C   UNL     1      33.804 -12.082 -24.935  0.00  0.00    +0.031 C 
ATOM     20  C   UNL     1      32.614 -14.185 -24.980  0.00  0.00    +0.017 C 
ATOM     21  C   UNL     1      34.163 -12.257 -26.273  0.00  0.00    +0.043 C 
ATOM     22  C   UNL     1      32.972 -14.359 -26.316  0.00  0.00    +0.003 C 
ATOM     23  C   UNL     1      33.746 -13.395 -26.963  0.00  0.00    +0.014 C 
BRANCH  21  24
ATOM     24  N   UNL     1      34.946 -11.284 -26.926  0.00  0.00    -0.357 N 
ATOM     25  H   UNL     1      35.673 -11.560 -27.530  0.00  0.00    +0.142 HD
ATOM     26  H   UNL     1      34.765 -10.327 -26.780  0.00  0.00    +0.142 HD
ENDBRANCH  21  24
ENDBRANCH   1  18
BRANCH   3  27
ATOM     27  C   UNL     1      31.531 -10.756 -20.408  0.00  0.00    +0.037 C 
ATOM     28  C   UNL     1      30.015 -10.902 -20.145  0.00  0.00    +0.006 C 
ATOM     29  C   UNL     1      31.790  -9.405 -21.115  0.00  0.00    +0.006 C 
ATOM     30  C   UNL     1      32.219 -10.676 -19.025  0.00  0.00    +0.006 C 
ENDBRANCH   3  27
TORSDOF 5
ENDMDL
MODEL 7
REMARK VINA RESULT:      -9.3      2.514      6.301
REMARK  Name = 10915062
REMARK  5 active torsions:
REMARK  status: ('A' for Active; 'I' for Inactive)
REMARK    1  A    between atoms: N_1  and  C_18
REMARK    2  A    between atoms: C_3  and  C_27
REMARK    3  A    between atoms: C_5  and  N_7
REMARK    4  A    between atoms: N_8  and  C_12
REMARK    5  A    between atoms: C_21  and  N_24
REMARK                            x       y       z     vdW  Elec       q    Type
REMARK                         _______ _______ _______ _____ _____    ______ ____
ROOT
ATOM      1  N   UNL     1      35.039 -22.916 -16.958  0.00  0.00    -0.177 N 
ATOM      2  N   UNL     1      36.237 -23.085 -16.372  0.00  0.00    -0.177 NA
ATOM      3  C   UNL     1      35.904 -23.836 -15.359  0.00  0.00    +0.079 C 
ATOM      4  C   UNL     1      34.584 -24.175 -15.231  0.00  0.00    +0.048 C 
ATOM      5  C   UNL     1      34.016 -23.548 -16.313  0.00  0.00    +0.129 C 
ENDROOT
BRANCH   5   7
ATOM      6  O   UNL     1      31.634 -22.515 -14.899  0.00  0.00    -0.252 OA
ATOM      7  N   UNL     1      32.712 -23.512 -16.732  0.00  0.00    -0.255 N 
ATOM      8  N   UNL     1      30.427 -23.152 -16.795  0.00  0.00    -0.268 N 
ATOM      9  C   UNL     1      31.592 -23.006 -16.022  0.00  0.00    +0.309 C 
ATOM     10  H   UNL     1      32.531 -23.880 -17.628  0.00  0.00    +0.158 HD
ATOM     11  H   UNL     1      30.547 -23.566 -17.680  0.00  0.00    +0.156 HD
BRANCH   8  12
ATOM     12  C   UNL     1      29.105 -22.778 -16.459  0.00  0.00    +0.052 C 
ATOM     13  C   UNL     1      28.812 -22.417 -15.154  0.00  0.00    +0.015 C 
ATOM     14  C   UNL     1      28.130 -22.778 -17.443  0.00  0.00    +0.015 C 
ATOM     15  C   UNL     1      27.508 -22.048 -14.823  0.00  0.00    +0.001 C 
ATOM     16  C   UNL     1      26.826 -22.409 -17.113  0.00  0.00    +0.001 C 
ATOM     17  C   UNL     1      26.516 -22.044 -15.803  0.00  0.00    +0.000 C 
ENDBRANCH   8  12
ENDBRANCH   5   7
BRANCH   1  18
ATOM     18  C   UNL     1      34.941 -22.147 -18.119  0.00  0.00    +0.076 C 
ATOM     19  C   UNL     1      36.052 -21.449 -18.573  0.00  0.00    +0.031 C 
ATOM     20  C   UNL     1      33.734 -22.091 -18.802  0.00  0.00    +0.017 C 
ATOM     21  C   UNL     1      35.953 -20.679 -19.733  0.00  0.00    +0.043 C 
ATOM     22  C   UNL     1      33.635 -21.321 -19.961  0.00  0.00    +0.003 C 
ATOM     23  C   UNL     1      34.745 -20.615 -20.426  0.00  0.00    +0.014 C 
BRANCH  21  24
ATOM     24  N   UNL     1      37.075 -19.966 -20.204  0.00  0.00    -0.357 N 
ATOM     25  H   UNL     1      36.958 -19.080 -20.617  0.00  0.00    +0.142 HD
ATOM     26  H   UNL     1      37.976 -20.354 -20.119  0.00  0.00    +0.142 HD
ENDBRANCH  21  24
ENDBRANCH   1  18
BRANCH   3  27
ATOM     27  C   UNL     1      37.029 -24.268 -14.403  0.00  0.00    +0.037 C 
ATOM     28  C   UNL     1      36.799 -25.722 -13.928  0.00  0.00    +0.006 C 
ATOM     29  C   UNL     1      37.070 -23.337 -13.169  0.00  0.00    +0.006 C 
ATOM     30  C   UNL     1      38.437 -24.225 -15.043  0.00  0.00    +0.006 C 
ENDBRANCH   3  27
TORSDOF 5
ENDMDL
MODEL 8
REMARK VINA RESULT:      -9.1      8.185     12.189
REMARK  Name = 10915062
REMARK  5 active torsions:
REMARK  status: ('A' for Active; 'I' for Inactive)
REMARK    1  A    between atoms: N_1  and  C_18
REMARK    2  A    between atoms: C_3  and  C_27
REMARK    3  A    between atoms: C_5  and  N_7
REMARK    4  A    between atoms: N_8  and  C_12
REMARK    5  A    between atoms: C_21  and  N_24
REMARK                            x       y       z     vdW  Elec       q    Type
REMARK                         _______ _______ _______ _____ _____    ______ ____
ROOT
ATOM      1  N   UNL     1      33.717 -15.815 -23.580  0.00  0.00    -0.177 N 
ATOM      2  N   UNL     1      34.450 -16.934 -23.712  0.00  0.00    -0.177 NA
ATOM      3  C   UNL     1      34.331 -17.440 -22.515  0.00  0.00    +0.079 C 
ATOM      4  C   UNL     1      33.579 -16.745 -21.608  0.00  0.00    +0.048 C 
ATOM      5  C   UNL     1      33.175 -15.654 -22.339  0.00  0.00    +0.129 C 
ENDROOT
BRANCH   5   7
ATOM      6  O   UNL     1      33.989 -13.044 -21.214  0.00  0.00    -0.252 OA
ATOM      7  N   UNL     1      32.393 -14.588 -21.980  0.00  0.00    -0.255 N 
ATOM      8  N   UNL     1      31.714 -12.516 -21.206  0.00  0.00    -0.268 N 
ATOM      9  C   UNL     1      32.822 -13.347 -21.441  0.00  0.00    +0.309 C 
ATOM     10  H   UNL     1      31.422 -14.695 -22.109  0.00  0.00    +0.158 HD
ATOM     11  H   UNL     1      30.835 -12.894 -21.437  0.00  0.00    +0.156 HD
BRANCH   8  12
ATOM     12  C   UNL     1      31.704 -11.203 -20.679  0.00  0.00    +0.052 C 
ATOM     13  C   UNL     1      31.493 -11.019 -19.323  0.00  0.00    +0.015 C 
ATOM     14  C   UNL     1      31.906 -10.129 -21.530  0.00  0.00    +0.015 C 
ATOM     15  C   UNL     1      31.483  -9.724 -18.803  0.00  0.00    +0.001 C 
ATOM     16  C   UNL     1      31.897  -8.835 -21.010  0.00  0.00    +0.001 C 
ATOM     17  C   UNL     1      31.685  -8.633 -19.647  0.00  0.00    +0.000 C 
ENDBRANCH   8  12
ENDBRANCH   5   7
BRANCH   1  18
ATOM     18  C   UNL     1      33.577 -14.951 -24.667  0.00  0.00    +0.076 C 
ATOM     19  C   UNL     1      33.884 -13.605 -24.515  0.00  0.00    +0.031 C 
ATOM     20  C   UNL     1      33.132 -15.448 -25.884  0.00  0.00    +0.017 C 
ATOM     21  C   UNL     1      33.742 -12.741 -25.601  0.00  0.00    +0.043 C 
ATOM     22  C   UNL     1      32.989 -14.584 -26.970  0.00  0.00    +0.003 C 
ATOM     23  C   UNL     1      33.295 -13.231 -26.828  0.00  0.00    +0.014 C 
BRANCH  21  24
ATOM     24  N   UNL     1      34.052 -11.373 -25.459  0.00  0.00    -0.357 N 
ATOM     25  H   UNL     1      34.449 -10.876 -26.211  0.00  0.00    +0.142 HD
ATOM     26  H   UNL     1      33.869 -10.912 -24.608  0.00  0.00    +0.142 HD
ENDBRANCH  21  24
ENDBRANCH   1  18
BRANCH   3  27
ATOM     27  C   UNL     1      35.050 -18.773 -22.240  0.00  0.00    +0.037 C 
ATOM     28  C   UNL     1      35.268 -19.546 -23.561  0.00  0.00    +0.006 C 
ATOM     29  C   UNL     1      34.210 -19.645 -21.279  0.00  0.00    +0.006 C 
ATOM     30  C   UNL     1      36.442 -18.603 -21.588  0.00  0.00    +0.006 C 
ENDBRANCH   3  27
TORSDOF 5
ENDMDL
MODEL 9
REMARK VINA RESULT:      -8.9      8.859     14.421
REMARK  Name = 10915062
REMARK  5 active torsions:
REMARK  status: ('A' for Active; 'I' for Inactive)
REMARK    1  A    between atoms: N_1  and  C_18
REMARK    2  A    between atoms: C_3  and  C_27
REMARK    3  A    between atoms: C_5  and  N_7
REMARK    4  A    between atoms: N_8  and  C_12
REMARK    5  A    between atoms: C_21  and  N_24
REMARK                            x       y       z     vdW  Elec       q    Type
REMARK                         _______ _______ _______ _____ _____    ______ ____
ROOT
ATOM      1  N   UNL     1      33.319 -10.723 -23.676  0.00  0.00    -0.177 N 
ATOM      2  N   UNL     1      33.196  -9.454 -23.253  0.00  0.00    -0.177 NA
ATOM      3  C   UNL     1      32.541  -9.635 -22.139  0.00  0.00    +0.079 C 
ATOM      4  C   UNL     1      32.223 -10.921 -21.796  0.00  0.00    +0.048 C 
ATOM      5  C   UNL     1      32.751 -11.640 -22.840  0.00  0.00    +0.129 C 
ENDROOT
BRANCH   5   7
ATOM      6  O   UNL     1      34.670 -13.683 -21.899  0.00  0.00    -0.252 OA
ATOM      7  N   UNL     1      32.756 -12.991 -23.072  0.00  0.00    -0.255 N 
ATOM      8  N   UNL     1      33.353 -15.226 -23.057  0.00  0.00    -0.268 N 
ATOM      9  C   UNL     1      33.698 -13.943 -22.601  0.00  0.00    +0.309 C 
ATOM     10  H   UNL     1      32.023 -13.341 -23.629  0.00  0.00    +0.158 HD
ATOM     11  H   UNL     1      32.543 -15.282 -23.615  0.00  0.00    +0.156 HD
BRANCH   8  12
ATOM     12  C   UNL     1      34.024 -16.447 -22.816  0.00  0.00    +0.052 C 
ATOM     13  C   UNL     1      34.642 -17.102 -23.869  0.00  0.00    +0.015 C 
ATOM     14  C   UNL     1      34.051 -16.964 -21.531  0.00  0.00    +0.015 C 
ATOM     15  C   UNL     1      35.304 -18.306 -23.631  0.00  0.00    +0.001 C 
ATOM     16  C   UNL     1      34.714 -18.168 -21.293  0.00  0.00    +0.001 C 
ATOM     17  C   UNL     1      35.340 -18.839 -22.343  0.00  0.00    +0.000 C 
ENDBRANCH   8  12
ENDBRANCH   5   7
BRANCH   1  18
ATOM     18  C   UNL     1      33.981 -10.990 -24.875  0.00  0.00    +0.076 C 
ATOM     19  C   UNL     1      33.548 -12.037 -25.678  0.00  0.00    +0.031 C 
ATOM     20  C   UNL     1      35.064 -10.205 -25.248  0.00  0.00    +0.017 C 
ATOM     21  C   UNL     1      34.211 -12.304 -26.876  0.00  0.00    +0.043 C 
ATOM     22  C   UNL     1      35.727 -10.473 -26.445  0.00  0.00    +0.003 C 
ATOM     23  C   UNL     1      35.300 -11.522 -27.259  0.00  0.00    +0.014 C 
BRANCH  21  24
ATOM     24  N   UNL     1      33.780 -13.364 -27.700  0.00  0.00    -0.357 N 
ATOM     25  H   UNL     1      34.376 -13.720 -28.399  0.00  0.00    +0.142 HD
ATOM     26  H   UNL     1      32.883 -13.751 -27.576  0.00  0.00    +0.142 HD
ENDBRANCH  21  24
ENDBRANCH   1  18
BRANCH   3  27
ATOM     27  C   UNL     1      32.188  -8.382 -21.319  0.00  0.00    +0.037 C 
ATOM     28  C   UNL     1      31.617  -8.789 -19.940  0.00  0.00    +0.006 C 
ATOM     29  C   UNL     1      31.136  -7.531 -22.067  0.00  0.00    +0.006 C 
ATOM     30  C   UNL     1      33.398  -7.458 -21.045  0.00  0.00    +0.006 C 
ENDBRANCH   3  27
TORSDOF 5
ENDMDL
