MODEL 1
REMARK VINA RESULT:      -6.6      0.000      0.000
REMARK  Name = 7027
REMARK  5 active torsions:
REMARK  status: ('A' for Active; 'I' for Inactive)
REMARK    1  A    between atoms: C_3  and  O_8
REMARK    2  A    between atoms: C_4  and  O_10
REMARK    3  A    between atoms: C_5  and  C_14
REMARK    4  A    between atoms: C_6  and  O_12
REMARK    5  A    between atoms: C_14  and  O_15
REMARK                            x       y       z     vdW  Elec       q    Type
REMARK                         _______ _______ _______ _____ _____    ______ ____
ROOT
ATOM      1  O   UNL     1      39.067 -24.438 -13.003  0.00  0.00    -0.445 OA
ATOM      2  O   UNL     1      37.974 -23.220 -11.451  0.00  0.00    -0.247 OA
ATOM      3  C   UNL     1      37.924 -25.300 -15.015  0.00  0.00    +0.183 C 
ATOM      4  C   UNL     1      36.608 -24.826 -14.415  0.00  0.00    +0.179 C 
ATOM      5  C   UNL     1      38.919 -25.568 -13.891  0.00  0.00    +0.227 C 
ATOM      6  C   UNL     1      36.849 -23.608 -13.544  0.00  0.00    +0.239 C 
ATOM      7  C   UNL     1      37.979 -23.765 -12.551  0.00  0.00    +0.347 C 
ENDROOT
BRANCH   3   8
ATOM      8  O   UNL     1      37.677 -26.494 -15.752  0.00  0.00    -0.378 OA
ATOM      9  H   UNL     1      37.618 -26.284 -16.698  0.00  0.00    +0.211 HD
ENDBRANCH   3   8
BRANCH   4  10
ATOM     10  O   UNL     1      35.723 -24.449 -15.471  0.00  0.00    -0.379 OA
ATOM     11  H   UNL     1      36.210 -24.430 -16.310  0.00  0.00    +0.211 HD
ENDBRANCH   4  10
BRANCH   6  12
ATOM     12  O   UNL     1      35.665 -23.288 -12.825  0.00  0.00    -0.373 OA
ATOM     13  H   UNL     1      34.935 -23.154 -13.449  0.00  0.00    +0.211 HD
ENDBRANCH   6  12
BRANCH   5  14
ATOM     14  C   UNL     1      40.311 -25.901 -14.418  0.00  0.00    +0.184 C 
BRANCH  14  15
ATOM     15  O   UNL     1      40.299 -25.786 -15.829  0.00  0.00    -0.378 OA
ATOM     16  H   UNL     1      39.766 -25.017 -16.086  0.00  0.00    +0.211 HD
ENDBRANCH  14  15
ENDBRANCH   5  14
TORSDOF 5
ENDMDL
MODEL 2
REMARK VINA RESULT:      -6.4      1.849      2.070
REMARK  Name = 7027
REMARK  5 active torsions:
REMARK  status: ('A' for Active; 'I' for Inactive)
REMARK    1  A    between atoms: C_3  and  O_8
REMARK    2  A    between atoms: C_4  and  O_10
REMARK    3  A    between atoms: C_5  and  C_14
REMARK    4  A    between atoms: C_6  and  O_12
REMARK    5  A    between atoms: C_14  and  O_15
REMARK                            x       y       z     vdW  Elec       q    Type
REMARK                         _______ _______ _______ _____ _____    ______ ____
ROOT
ATOM      1  O   UNL     1      37.084 -25.295 -11.976  0.00  0.00    -0.445 OA
ATOM      2  O   UNL     1      35.343 -25.087 -10.557  0.00  0.00    -0.247 OA
ATOM      3  C   UNL     1      37.064 -24.256 -14.216  0.00  0.00    +0.183 C 
ATOM      4  C   UNL     1      35.605 -23.892 -13.984  0.00  0.00    +0.179 C 
ATOM      5  C   UNL     1      37.415 -25.475 -13.370  0.00  0.00    +0.227 C 
ATOM      6  C   UNL     1      35.360 -23.668 -12.503  0.00  0.00    +0.239 C 
ATOM      7  C   UNL     1      35.889 -24.768 -11.610  0.00  0.00    +0.347 C 
ENDROOT
BRANCH   3   8
ATOM      8  O   UNL     1      37.238 -24.547 -15.600  0.00  0.00    -0.378 OA
ATOM      9  H   UNL     1      36.687 -25.308 -15.842  0.00  0.00    +0.211 HD
ENDBRANCH   3   8
BRANCH   4  10
ATOM     10  O   UNL     1      35.312 -22.674 -14.671  0.00  0.00    -0.379 OA
ATOM     11  H   UNL     1      35.352 -21.933 -14.046  0.00  0.00    +0.211 HD
ENDBRANCH   4  10
BRANCH   6  12
ATOM     12  O   UNL     1      33.966 -23.529 -12.261  0.00  0.00    -0.373 OA
ATOM     13  H   UNL     1      33.819 -22.814 -11.622  0.00  0.00    +0.211 HD
ENDBRANCH   6  12
BRANCH   5  14
ATOM     14  C   UNL     1      38.902 -25.812 -13.432  0.00  0.00    +0.184 C 
BRANCH  14  15
ATOM     15  O   UNL     1      39.135 -26.622 -14.569  0.00  0.00    -0.378 OA
ATOM     16  H   UNL     1      38.462 -26.436 -15.242  0.00  0.00    +0.211 HD
ENDBRANCH  14  15
ENDBRANCH   5  14
TORSDOF 5
ENDMDL
MODEL 3
REMARK VINA RESULT:      -6.3      1.156      3.614
REMARK  Name = 7027
REMARK  5 active torsions:
REMARK  status: ('A' for Active; 'I' for Inactive)
REMARK    1  A    between atoms: C_3  and  O_8
REMARK    2  A    between atoms: C_4  and  O_10
REMARK    3  A    between atoms: C_5  and  C_14
REMARK    4  A    between atoms: C_6  and  O_12
REMARK    5  A    between atoms: C_14  and  O_15
REMARK                            x       y       z     vdW  Elec       q    Type
REMARK                         _______ _______ _______ _____ _____    ______ ____
ROOT
ATOM      1  O   UNL     1      38.625 -25.251 -13.251  0.00  0.00    -0.445 OA
ATOM      2  O   UNL     1      39.422 -26.746 -14.740  0.00  0.00    -0.247 OA
ATOM      3  C   UNL     1      36.307 -24.408 -13.375  0.00  0.00    +0.183 C 
ATOM      4  C   UNL     1      36.166 -25.125 -14.710  0.00  0.00    +0.179 C 
ATOM      5  C   UNL     1      37.778 -24.087 -13.133  0.00  0.00    +0.227 C 
ATOM      6  C   UNL     1      37.045 -26.360 -14.726  0.00  0.00    +0.239 C 
ATOM      7  C   UNL     1      38.471 -26.117 -14.284  0.00  0.00    +0.347 C 
ENDROOT
BRANCH   3   8
ATOM      8  O   UNL     1      35.541 -23.208 -13.427  0.00  0.00    -0.378 OA
ATOM      9  H   UNL     1      34.675 -23.359 -13.014  0.00  0.00    +0.211 HD
ENDBRANCH   3   8
BRANCH   4  10
ATOM     10  O   UNL     1      34.810 -25.543 -14.874  0.00  0.00    -0.379 OA
ATOM     11  H   UNL     1      34.451 -25.160 -15.691  0.00  0.00    +0.211 HD
ENDBRANCH   4  10
BRANCH   6  12
ATOM     12  O   UNL     1      37.073 -26.916 -16.034  0.00  0.00    -0.373 OA
ATOM     13  H   UNL     1      37.281 -26.219 -16.676  0.00  0.00    +0.211 HD
ENDBRANCH   6  12
BRANCH   5  14
ATOM     14  C   UNL     1      38.021 -23.503 -11.744  0.00  0.00    +0.184 C 
BRANCH  14  15
ATOM     15  O   UNL     1      37.909 -22.094 -11.822  0.00  0.00    -0.378 OA
ATOM     16  H   UNL     1      38.794 -21.701 -11.870  0.00  0.00    +0.211 HD
ENDBRANCH  14  15
ENDBRANCH   5  14
TORSDOF 5
ENDMDL
MODEL 4
REMARK VINA RESULT:      -6.3      2.385      3.001
REMARK  Name = 7027
REMARK  5 active torsions:
REMARK  status: ('A' for Active; 'I' for Inactive)
REMARK    1  A    between atoms: C_3  and  O_8
REMARK    2  A    between atoms: C_4  and  O_10
REMARK    3  A    between atoms: C_5  and  C_14
REMARK    4  A    between atoms: C_6  and  O_12
REMARK    5  A    between atoms: C_14  and  O_15
REMARK                            x       y       z     vdW  Elec       q    Type
REMARK                         _______ _______ _______ _____ _____    ______ ____
ROOT
ATOM      1  O   UNL     1      37.646 -22.967 -13.588  0.00  0.00    -0.445 OA
ATOM      2  O   UNL     1      38.540 -22.745 -11.529  0.00  0.00    -0.247 OA
ATOM      3  C   UNL     1      35.583 -24.267 -13.973  0.00  0.00    +0.183 C 
ATOM      4  C   UNL     1      35.659 -24.730 -12.526  0.00  0.00    +0.179 C 
ATOM      5  C   UNL     1      36.984 -23.910 -14.458  0.00  0.00    +0.227 C 
ATOM      6  C   UNL     1      36.317 -23.659 -11.677  0.00  0.00    +0.239 C 
ATOM      7  C   UNL     1      37.615 -23.126 -12.241  0.00  0.00    +0.347 C 
ENDROOT
BRANCH   3   8
ATOM      8  O   UNL     1      35.044 -25.329 -14.756  0.00  0.00    -0.378 OA
ATOM      9  H   UNL     1      35.499 -25.361 -15.613  0.00  0.00    +0.211 HD
ENDBRANCH   3   8
BRANCH   4  10
ATOM     10  O   UNL     1      34.335 -24.937 -12.031  0.00  0.00    -0.379 OA
ATOM     11  H   UNL     1      34.261 -25.835 -11.670  0.00  0.00    +0.211 HD
ENDBRANCH   4  10
BRANCH   6  12
ATOM     12  O   UNL     1      36.573 -24.166 -10.374  0.00  0.00    -0.373 OA
ATOM     13  H   UNL     1      36.741 -25.120 -10.426  0.00  0.00    +0.211 HD
ENDBRANCH   6  12
BRANCH   5  14
ATOM     14  C   UNL     1      36.973 -23.293 -15.853  0.00  0.00    +0.184 C 
BRANCH  14  15
ATOM     15  O   UNL     1      35.629 -23.182 -16.286  0.00  0.00    -0.378 OA
ATOM     16  H   UNL     1      35.057 -23.706 -15.704  0.00  0.00    +0.211 HD
ENDBRANCH  14  15
ENDBRANCH   5  14
TORSDOF 5
ENDMDL
MODEL 5
REMARK VINA RESULT:      -6.0      1.416      4.707
REMARK  Name = 7027
REMARK  5 active torsions:
REMARK  status: ('A' for Active; 'I' for Inactive)
REMARK    1  A    between atoms: C_3  and  O_8
REMARK    2  A    between atoms: C_4  and  O_10
REMARK    3  A    between atoms: C_5  and  C_14
REMARK    4  A    between atoms: C_6  and  O_12
REMARK    5  A    between atoms: C_14  and  O_15
REMARK                            x       y       z     vdW  Elec       q    Type
REMARK                         _______ _______ _______ _____ _____    ______ ____
ROOT
ATOM      1  O   UNL     1      35.647 -25.509 -15.227  0.00  0.00    -0.445 OA
ATOM      2  O   UNL     1      36.721 -27.297 -16.084  0.00  0.00    -0.247 OA
ATOM      3  C   UNL     1      36.682 -24.079 -13.500  0.00  0.00    +0.183 C 
ATOM      4  C   UNL     1      37.815 -25.091 -13.406  0.00  0.00    +0.179 C 
ATOM      5  C   UNL     1      35.424 -24.782 -13.999  0.00  0.00    +0.227 C 
ATOM      6  C   UNL     1      38.014 -25.766 -14.750  0.00  0.00    +0.239 C 
ATOM      7  C   UNL     1      36.744 -26.292 -15.379  0.00  0.00    +0.347 C 
ENDROOT
BRANCH   3   8
ATOM      8  O   UNL     1      36.461 -23.532 -12.203  0.00  0.00    -0.378 OA
ATOM      9  H   UNL     1      36.400 -22.565 -12.267  0.00  0.00    +0.211 HD
ENDBRANCH   3   8
BRANCH   4  10
ATOM     10  O   UNL     1      39.023 -24.409 -13.067  0.00  0.00    -0.379 OA
ATOM     11  H   UNL     1      39.158 -23.667 -13.679  0.00  0.00    +0.211 HD
ENDBRANCH   4  10
BRANCH   6  12
ATOM     12  O   UNL     1      38.927 -26.847 -14.616  0.00  0.00    -0.373 OA
ATOM     13  H   UNL     1      39.792 -26.507 -14.336  0.00  0.00    +0.211 HD
ENDBRANCH   6  12
BRANCH   5  14
ATOM     14  C   UNL     1      34.283 -23.805 -14.264  0.00  0.00    +0.184 C 
BRANCH  14  15
ATOM     15  O   UNL     1      33.610 -23.555 -13.044  0.00  0.00    -0.378 OA
ATOM     16  H   UNL     1      33.089 -24.335 -12.796  0.00  0.00    +0.211 HD
ENDBRANCH  14  15
ENDBRANCH   5  14
TORSDOF 5
ENDMDL
MODEL 6
REMARK VINA RESULT:      -6.0      1.159      3.652
REMARK  Name = 7027
REMARK  5 active torsions:
REMARK  status: ('A' for Active; 'I' for Inactive)
REMARK    1  A    between atoms: C_3  and  O_8
REMARK    2  A    between atoms: C_4  and  O_10
REMARK    3  A    between atoms: C_5  and  C_14
REMARK    4  A    between atoms: C_6  and  O_12
REMARK    5  A    between atoms: C_14  and  O_15
REMARK                            x       y       z     vdW  Elec       q    Type
REMARK                         _______ _______ _______ _____ _____    ______ ____
ROOT
ATOM      1  O   UNL     1      36.611 -23.836 -12.497  0.00  0.00    -0.445 OA
ATOM      2  O   UNL     1      38.648 -23.318 -11.679  0.00  0.00    -0.247 OA
ATOM      3  C   UNL     1      36.341 -25.230 -14.518  0.00  0.00    +0.183 C 
ATOM      4  C   UNL     1      37.848 -25.152 -14.718  0.00  0.00    +0.179 C 
ATOM      5  C   UNL     1      35.877 -24.010 -13.729  0.00  0.00    +0.227 C 
ATOM      6  C   UNL     1      38.539 -25.026 -13.373  0.00  0.00    +0.239 C 
ATOM      7  C   UNL     1      37.962 -23.957 -12.473  0.00  0.00    +0.347 C 
ENDROOT
BRANCH   3   8
ATOM      8  O   UNL     1      35.719 -25.256 -15.800  0.00  0.00    -0.378 OA
ATOM      9  H   UNL     1      35.816 -24.387 -16.223  0.00  0.00    +0.211 HD
ENDBRANCH   3   8
BRANCH   4  10
ATOM     10  O   UNL     1      38.299 -26.357 -15.338  0.00  0.00    -0.379 OA
ATOM     11  H   UNL     1      38.838 -26.862 -14.709  0.00  0.00    +0.211 HD
ENDBRANCH   4  10
BRANCH   6  12
ATOM     12  O   UNL     1      39.920 -24.750 -13.565  0.00  0.00    -0.373 OA
ATOM     13  H   UNL     1      40.428 -25.572 -13.480  0.00  0.00    +0.211 HD
ENDBRANCH   6  12
BRANCH   5  14
ATOM     14  C   UNL     1      34.400 -24.090 -13.357  0.00  0.00    +0.184 C 
BRANCH  14  15
ATOM     15  O   UNL     1      34.237 -23.579 -12.047  0.00  0.00    -0.378 OA
ATOM     16  H   UNL     1      33.635 -22.818 -12.068  0.00  0.00    +0.211 HD
ENDBRANCH  14  15
ENDBRANCH   5  14
TORSDOF 5
ENDMDL
MODEL 7
REMARK VINA RESULT:      -6.0      1.786      3.150
REMARK  Name = 7027
REMARK  5 active torsions:
REMARK  status: ('A' for Active; 'I' for Inactive)
REMARK    1  A    between atoms: C_3  and  O_8
REMARK    2  A    between atoms: C_4  and  O_10
REMARK    3  A    between atoms: C_5  and  C_14
REMARK    4  A    between atoms: C_6  and  O_12
REMARK    5  A    between atoms: C_14  and  O_15
REMARK                            x       y       z     vdW  Elec       q    Type
REMARK                         _______ _______ _______ _____ _____    ______ ____
ROOT
ATOM      1  O   UNL     1      36.765 -24.687 -15.459  0.00  0.00    -0.445 OA
ATOM      2  O   UNL     1      35.126 -23.385 -16.301  0.00  0.00    -0.247 OA
ATOM      3  C   UNL     1      36.771 -25.398 -13.094  0.00  0.00    +0.183 C 
ATOM      4  C   UNL     1      35.595 -24.461 -12.857  0.00  0.00    +0.179 C 
ATOM      5  C   UNL     1      37.580 -24.894 -14.285  0.00  0.00    +0.227 C 
ATOM      6  C   UNL     1      34.766 -24.346 -14.122  0.00  0.00    +0.239 C 
ATOM      7  C   UNL     1      35.569 -24.053 -15.370  0.00  0.00    +0.347 C 
ENDROOT
BRANCH   3   8
ATOM      8  O   UNL     1      37.577 -25.412 -11.919  0.00  0.00    -0.378 OA
ATOM      9  H   UNL     1      38.087 -24.588 -11.867  0.00  0.00    +0.211 HD
ENDBRANCH   3   8
BRANCH   4  10
ATOM     10  O   UNL     1      34.765 -25.004 -11.829  0.00  0.00    -0.379 OA
ATOM     11  H   UNL     1      34.708 -24.375 -11.093  0.00  0.00    +0.211 HD
ENDBRANCH   4  10
BRANCH   6  12
ATOM     12  O   UNL     1      33.792 -23.322 -13.968  0.00  0.00    -0.373 OA
ATOM     13  H   UNL     1      34.200 -22.549 -13.547  0.00  0.00    +0.211 HD
ENDBRANCH   6  12
BRANCH   5  14
ATOM     14  C   UNL     1      38.689 -25.863 -14.681  0.00  0.00    +0.184 C 
BRANCH  14  15
ATOM     15  O   UNL     1      38.223 -27.186 -14.489  0.00  0.00    -0.378 OA
ATOM     16  H   UNL     1      38.902 -27.814 -14.780  0.00  0.00    +0.211 HD
ENDBRANCH  14  15
ENDBRANCH   5  14
TORSDOF 5
ENDMDL
MODEL 8
REMARK VINA RESULT:      -5.8     11.741     12.928
REMARK  Name = 7027
REMARK  5 active torsions:
REMARK  status: ('A' for Active; 'I' for Inactive)
REMARK    1  A    between atoms: C_3  and  O_8
REMARK    2  A    between atoms: C_4  and  O_10
REMARK    3  A    between atoms: C_5  and  C_14
REMARK    4  A    between atoms: C_6  and  O_12
REMARK    5  A    between atoms: C_14  and  O_15
REMARK                            x       y       z     vdW  Elec       q    Type
REMARK                         _______ _______ _______ _____ _____    ______ ____
ROOT
ATOM      1  O   UNL     1      34.143 -15.430 -22.737  0.00  0.00    -0.445 OA
ATOM      2  O   UNL     1      34.935 -15.468 -20.626  0.00  0.00    -0.247 OA
ATOM      3  C   UNL     1      34.284 -17.407 -24.211  0.00  0.00    +0.183 C 
ATOM      4  C   UNL     1      35.142 -18.080 -23.149  0.00  0.00    +0.179 C 
ATOM      5  C   UNL     1      34.420 -15.893 -24.077  0.00  0.00    +0.227 C 
ATOM      6  C   UNL     1      34.748 -17.576 -21.774  0.00  0.00    +0.239 C 
ATOM      7  C   UNL     1      34.665 -16.070 -21.661  0.00  0.00    +0.347 C 
ENDROOT
BRANCH   3   8
ATOM      8  O   UNL     1      34.740 -17.832 -25.492  0.00  0.00    -0.378 OA
ATOM      9  H   UNL     1      35.474 -17.265 -25.779  0.00  0.00    +0.211 HD
ENDBRANCH   3   8
BRANCH   4  10
ATOM     10  O   UNL     1      34.913 -19.489 -23.189  0.00  0.00    -0.379 OA
ATOM     11  H   UNL     1      33.959 -19.660 -23.236  0.00  0.00    +0.211 HD
ENDBRANCH   4  10
BRANCH   6  12
ATOM     12  O   UNL     1      35.676 -18.045 -20.805  0.00  0.00    -0.373 OA
ATOM     13  H   UNL     1      35.342 -18.865 -20.408  0.00  0.00    +0.211 HD
ENDBRANCH   6  12
BRANCH   5  14
ATOM     14  C   UNL     1      33.471 -15.144 -25.008  0.00  0.00    +0.184 C 
BRANCH  14  15
ATOM     15  O   UNL     1      33.826 -15.441 -26.347  0.00  0.00    -0.378 OA
ATOM     16  H   UNL     1      34.773 -15.646 -26.393  0.00  0.00    +0.211 HD
ENDBRANCH  14  15
ENDBRANCH   5  14
TORSDOF 5
ENDMDL
MODEL 9
REMARK VINA RESULT:      -5.8      6.210      8.493
REMARK  Name = 7027
REMARK  5 active torsions:
REMARK  status: ('A' for Active; 'I' for Inactive)
REMARK    1  A    between atoms: C_3  and  O_8
REMARK    2  A    between atoms: C_4  and  O_10
REMARK    3  A    between atoms: C_5  and  C_14
REMARK    4  A    between atoms: C_6  and  O_12
REMARK    5  A    between atoms: C_14  and  O_15
REMARK                            x       y       z     vdW  Elec       q    Type
REMARK                         _______ _______ _______ _____ _____    ______ ____
ROOT
ATOM      1  O   UNL     1      30.599 -23.235 -16.503  0.00  0.00    -0.445 OA
ATOM      2  O   UNL     1      32.846 -23.133 -16.672  0.00  0.00    -0.247 OA
ATOM      3  C   UNL     1      29.490 -24.430 -14.648  0.00  0.00    +0.183 C 
ATOM      4  C   UNL     1      30.856 -24.952 -14.228  0.00  0.00    +0.179 C 
ATOM      5  C   UNL     1      29.512 -24.115 -16.140  0.00  0.00    +0.227 C 
ATOM      6  C   UNL     1      31.928 -23.944 -14.599  0.00  0.00    +0.239 C 
ATOM      7  C   UNL     1      31.850 -23.446 -16.024  0.00  0.00    +0.347 C 
ENDROOT
BRANCH   3   8
ATOM      8  O   UNL     1      28.520 -25.436 -14.370  0.00  0.00    -0.378 OA
ATOM      9  H   UNL     1      28.943 -26.309 -14.402  0.00  0.00    +0.211 HD
ENDBRANCH   3   8
BRANCH   4  10
ATOM     10  O   UNL     1      30.876 -25.121 -12.810  0.00  0.00    -0.379 OA
ATOM     11  H   UNL     1      31.050 -24.266 -12.385  0.00  0.00    +0.211 HD
ENDBRANCH   4  10
BRANCH   6  12
ATOM     12  O   UNL     1      33.215 -24.513 -14.395  0.00  0.00    -0.373 OA
ATOM     13  H   UNL     1      33.201 -25.446 -14.660  0.00  0.00    +0.211 HD
ENDBRANCH   6  12
BRANCH   5  14
ATOM     14  C   UNL     1      28.224 -23.443 -16.608  0.00  0.00    +0.184 C 
BRANCH  14  15
ATOM     15  O   UNL     1      27.645 -24.237 -17.627  0.00  0.00    -0.378 OA
ATOM     16  H   UNL     1      28.236 -24.258 -18.396  0.00  0.00    +0.211 HD
ENDBRANCH  14  15
ENDBRANCH   5  14
TORSDOF 5
ENDMDL
