MODEL 1
REMARK VINA RESULT:      -9.3      0.000      0.000
REMARK  Name = 6010
REMARK  1 active torsions:
REMARK  status: ('A' for Active; 'I' for Inactive)
REMARK    1  A    between atoms: C_6  and  O_22
REMARK                            x       y       z     vdW  Elec       q    Type
REMARK                         _______ _______ _______ _____ _____    ______ ____
ROOT
ATOM      1  O   UNL     1      40.052 -26.202 -14.178  0.00  0.00    -0.291 OA
ATOM      2  C   UNL     1      31.977 -23.700 -14.584  0.00  0.00    +0.023 C 
ATOM      3  C   UNL     1      33.017 -23.642 -15.724  0.00  0.00    +0.002 C 
ATOM      4  C   UNL     1      34.441 -23.362 -15.225  0.00  0.00    +0.001 C 
ATOM      5  C   UNL     1      34.862 -24.487 -14.229  0.00  0.00    +0.003 C 
ATOM      6  C   UNL     1      30.660 -23.867 -15.403  0.00  0.00    +0.088 C 
ATOM      7  C   UNL     1      32.371 -24.857 -13.650  0.00  0.00    +0.002 C 
ATOM      8  C   UNL     1      36.334 -24.308 -13.690  0.00  0.00    +0.016 C 
ATOM      9  C   UNL     1      32.393 -22.675 -16.725  0.00  0.00    +0.002 C 
ATOM     10  C   UNL     1      33.804 -24.697 -13.112  0.00  0.00    +0.000 C 
ATOM     11  C   UNL     1      30.878 -22.929 -16.619  0.00  0.00    +0.027 C 
ATOM     12  C   UNL     1      35.437 -23.293 -16.390  0.00  0.00    +0.004 C 
ATOM     13  C   UNL     1      31.900 -22.388 -13.748  0.00  0.00    +0.002 C 
ATOM     14  C   UNL     1      37.285 -24.067 -14.869  0.00  0.00    -0.042 C 
ATOM     15  C   UNL     1      36.853 -23.041 -15.890  0.00  0.00    +0.022 C 
ATOM     16  C   UNL     1      36.740 -25.608 -12.937  0.00  0.00    +0.012 C 
ATOM     17  C   UNL     1      30.354 -25.297 -15.870  0.00  0.00    +0.029 C 
ATOM     18  C   UNL     1      36.453 -23.110 -12.721  0.00  0.00    +0.004 C 
ATOM     19  C   UNL     1      38.236 -25.730 -12.692  0.00  0.00    +0.069 C 
ATOM     20  C   UNL     1      38.465 -24.690 -15.022  0.00  0.00    +0.029 C 
ATOM     21  C   UNL     1      38.990 -25.613 -13.989  0.00  0.00    +0.173 C 
ENDROOT
BRANCH   6  22
ATOM     22  O   UNL     1      29.530 -23.433 -14.651  0.00  0.00    -0.387 OA
ATOM     23  H   UNL     1      28.917 -22.959 -15.233  0.00  0.00    +0.210 HD
ENDBRANCH   6  22
TORSDOF 1
ENDMDL
MODEL 2
REMARK VINA RESULT:      -8.5      3.258      6.443
REMARK  Name = 6010
REMARK  1 active torsions:
REMARK  status: ('A' for Active; 'I' for Inactive)
REMARK    1  A    between atoms: C_6  and  O_22
REMARK                            x       y       z     vdW  Elec       q    Type
REMARK                         _______ _______ _______ _____ _____    ______ ____
ROOT
ATOM      1  O   UNL     1      33.542 -18.903 -21.238  0.00  0.00    -0.291 OA
ATOM      2  C   UNL     1      35.410 -24.205 -14.910  0.00  0.00    +0.023 C 
ATOM      3  C   UNL     1      36.332 -23.119 -15.504  0.00  0.00    +0.002 C 
ATOM      4  C   UNL     1      36.129 -22.914 -17.011  0.00  0.00    +0.001 C 
ATOM      5  C   UNL     1      34.647 -22.501 -17.273  0.00  0.00    +0.003 C 
ATOM      6  C   UNL     1      35.933 -24.257 -13.441  0.00  0.00    +0.088 C 
ATOM      7  C   UNL     1      33.955 -23.747 -15.118  0.00  0.00    +0.002 C 
ATOM      8  C   UNL     1      34.348 -22.227 -18.798  0.00  0.00    +0.016 C 
ATOM      9  C   UNL     1      37.717 -23.517 -15.004  0.00  0.00    +0.002 C 
ATOM     10  C   UNL     1      33.645 -23.478 -16.602  0.00  0.00    +0.000 C 
ATOM     11  C   UNL     1      37.469 -24.119 -13.609  0.00  0.00    +0.027 C 
ATOM     12  C   UNL     1      37.078 -21.843 -17.562  0.00  0.00    +0.004 C 
ATOM     13  C   UNL     1      35.592 -25.602 -15.573  0.00  0.00    +0.002 C 
ATOM     14  C   UNL     1      35.417 -21.286 -19.368  0.00  0.00    -0.042 C 
ATOM     15  C   UNL     1      36.856 -21.623 -19.053  0.00  0.00    +0.022 C 
ATOM     16  C   UNL     1      32.944 -21.565 -18.910  0.00  0.00    +0.012 C 
ATOM     17  C   UNL     1      35.388 -23.165 -12.511  0.00  0.00    +0.029 C 
ATOM     18  C   UNL     1      34.356 -23.528 -19.632  0.00  0.00    +0.004 C 
ATOM     19  C   UNL     1      32.683 -20.911 -20.258  0.00  0.00    +0.069 C 
ATOM     20  C   UNL     1      35.146 -20.217 -20.135  0.00  0.00    +0.029 C 
ATOM     21  C   UNL     1      33.764 -19.913 -20.574  0.00  0.00    +0.173 C 
ENDROOT
BRANCH   6  22
ATOM     22  O   UNL     1      35.621 -25.507 -12.831  0.00  0.00    -0.387 OA
ATOM     23  H   UNL     1      36.434 -26.022 -12.715  0.00  0.00    +0.210 HD
ENDBRANCH   6  22
TORSDOF 1
ENDMDL
MODEL 3
REMARK VINA RESULT:      -8.1     10.635     13.306
REMARK  Name = 6010
REMARK  1 active torsions:
REMARK  status: ('A' for Active; 'I' for Inactive)
REMARK    1  A    between atoms: C_6  and  O_22
REMARK                            x       y       z     vdW  Elec       q    Type
REMARK                         _______ _______ _______ _____ _____    ______ ____
ROOT
ATOM      1  O   UNL     1      34.419 -10.331 -25.816  0.00  0.00    -0.291 OA
ATOM      2  C   UNL     1      34.559 -17.692 -21.640  0.00  0.00    +0.023 C 
ATOM      3  C   UNL     1      34.726 -17.494 -23.161  0.00  0.00    +0.002 C 
ATOM      4  C   UNL     1      33.895 -16.327 -23.711  0.00  0.00    +0.001 C 
ATOM      5  C   UNL     1      34.326 -15.011 -22.991  0.00  0.00    +0.003 C 
ATOM      6  C   UNL     1      35.403 -18.986 -21.422  0.00  0.00    +0.088 C 
ATOM      7  C   UNL     1      35.053 -16.411 -20.945  0.00  0.00    +0.002 C 
ATOM      8  C   UNL     1      33.552 -13.741 -23.520  0.00  0.00    +0.016 C 
ATOM      9  C   UNL     1      34.486 -18.888 -23.729  0.00  0.00    +0.002 C 
ATOM     10  C   UNL     1      34.306 -15.162 -21.446  0.00  0.00    +0.000 C 
ATOM     11  C   UNL     1      35.058 -19.845 -22.667  0.00  0.00    +0.027 C 
ATOM     12  C   UNL     1      34.073 -16.179 -25.227  0.00  0.00    +0.004 C 
ATOM     13  C   UNL     1      33.087 -17.958 -21.207  0.00  0.00    +0.002 C 
ATOM     14  C   UNL     1      33.601 -13.714 -25.053  0.00  0.00    -0.042 C 
ATOM     15  C   UNL     1      33.268 -15.003 -25.765  0.00  0.00    +0.022 C 
ATOM     16  C   UNL     1      34.245 -12.472 -22.943  0.00  0.00    +0.012 C 
ATOM     17  C   UNL     1      36.919 -18.771 -21.315  0.00  0.00    +0.029 C 
ATOM     18  C   UNL     1      32.070 -13.745 -23.084  0.00  0.00    +0.004 C 
ATOM     19  C   UNL     1      33.850 -11.186 -23.654  0.00  0.00    +0.069 C 
ATOM     20  C   UNL     1      33.894 -12.620 -25.776  0.00  0.00    +0.029 C 
ATOM     21  C   UNL     1      34.108 -11.304 -25.132  0.00  0.00    +0.173 C 
ENDROOT
BRANCH   6  22
ATOM     22  O   UNL     1      35.002 -19.666 -20.236  0.00  0.00    -0.387 OA
ATOM     23  H   UNL     1      35.685 -19.559 -19.555  0.00  0.00    +0.210 HD
ENDBRANCH   6  22
TORSDOF 1
ENDMDL
MODEL 4
REMARK VINA RESULT:      -8.0     19.855     22.213
REMARK  Name = 6010
REMARK  1 active torsions:
REMARK  status: ('A' for Active; 'I' for Inactive)
REMARK    1  A    between atoms: C_6  and  O_22
REMARK                            x       y       z     vdW  Elec       q    Type
REMARK                         _______ _______ _______ _____ _____    ______ ____
ROOT
ATOM      1  O   UNL     1      32.543  -7.583 -19.501  0.00  0.00    -0.291 OA
ATOM      2  C   UNL     1      33.483  -4.099 -27.156  0.00  0.00    +0.023 C 
ATOM      3  C   UNL     1      32.840  -3.440 -25.918  0.00  0.00    +0.002 C 
ATOM      4  C   UNL     1      32.087  -4.437 -25.028  0.00  0.00    +0.001 C 
ATOM      5  C   UNL     1      33.083  -5.537 -24.541  0.00  0.00    +0.003 C 
ATOM      6  C   UNL     1      34.043  -2.844 -27.894  0.00  0.00    +0.088 C 
ATOM      7  C   UNL     1      34.509  -5.131 -26.657  0.00  0.00    +0.002 C 
ATOM      8  C   UNL     1      32.408  -6.592 -23.581  0.00  0.00    +0.016 C 
ATOM      9  C   UNL     1      32.069  -2.262 -26.503  0.00  0.00    +0.002 C 
ATOM     10  C   UNL     1      33.867  -6.171 -25.721  0.00  0.00    +0.000 C 
ATOM     11  C   UNL     1      32.925  -1.788 -27.692  0.00  0.00    +0.027 C 
ATOM     12  C   UNL     1      31.447  -3.738 -23.822  0.00  0.00    +0.004 C 
ATOM     13  C   UNL     1      32.456  -4.823 -28.077  0.00  0.00    +0.002 C 
ATOM     14  C   UNL     1      31.629  -5.859 -22.482  0.00  0.00    -0.042 C 
ATOM     15  C   UNL     1      30.724  -4.735 -22.926  0.00  0.00    +0.022 C 
ATOM     16  C   UNL     1      33.531  -7.463 -22.946  0.00  0.00    +0.012 C 
ATOM     17  C   UNL     1      35.387  -2.318 -27.370  0.00  0.00    +0.029 C 
ATOM     18  C   UNL     1      31.425  -7.515 -24.336  0.00  0.00    +0.004 C 
ATOM     19  C   UNL     1      33.074  -8.260 -21.734  0.00  0.00    +0.069 C 
ATOM     20  C   UNL     1      31.692  -6.176 -21.177  0.00  0.00    +0.029 C 
ATOM     21  C   UNL     1      32.468  -7.345 -20.704  0.00  0.00    +0.173 C 
ENDROOT
BRANCH   6  22
ATOM     22  O   UNL     1      34.221  -3.104 -29.284  0.00  0.00    -0.387 OA
ATOM     23  H   UNL     1      35.096  -2.792 -29.562  0.00  0.00    +0.210 HD
ENDBRANCH   6  22
TORSDOF 1
ENDMDL
MODEL 5
REMARK VINA RESULT:      -7.6      1.450      6.540
REMARK  Name = 6010
REMARK  1 active torsions:
REMARK  status: ('A' for Active; 'I' for Inactive)
REMARK    1  A    between atoms: C_6  and  O_22
REMARK                            x       y       z     vdW  Elec       q    Type
REMARK                         _______ _______ _______ _____ _____    ______ ____
ROOT
ATOM      1  O   UNL     1      28.199 -21.705 -16.258  0.00  0.00    -0.291 OA
ATOM      2  C   UNL     1      35.798 -24.386 -13.671  0.00  0.00    +0.023 C 
ATOM      3  C   UNL     1      35.508 -23.466 -14.876  0.00  0.00    +0.002 C 
ATOM      4  C   UNL     1      34.184 -23.794 -15.579  0.00  0.00    +0.001 C 
ATOM      5  C   UNL     1      33.015 -23.650 -14.555  0.00  0.00    +0.003 C 
ATOM      6  C   UNL     1      37.223 -23.894 -13.268  0.00  0.00    +0.088 C 
ATOM      7  C   UNL     1      34.672 -24.180 -12.644  0.00  0.00    +0.002 C 
ATOM      8  C   UNL     1      31.601 -23.930 -15.197  0.00  0.00    +0.016 C 
ATOM      9  C   UNL     1      36.798 -23.528 -15.689  0.00  0.00    +0.002 C 
ATOM     10  C   UNL     1      33.284 -24.452 -13.252  0.00  0.00    +0.000 C 
ATOM     11  C   UNL     1      37.915 -23.658 -14.637  0.00  0.00    +0.027 C 
ATOM     12  C   UNL     1      33.946 -22.871 -16.781  0.00  0.00    +0.004 C 
ATOM     13  C   UNL     1      35.861 -25.897 -14.046  0.00  0.00    +0.002 C 
ATOM     14  C   UNL     1      31.459 -23.123 -16.493  0.00  0.00    -0.042 C 
ATOM     15  C   UNL     1      32.618 -23.182 -17.460  0.00  0.00    +0.022 C 
ATOM     16  C   UNL     1      30.508 -23.495 -14.178  0.00  0.00    +0.012 C 
ATOM     17  C   UNL     1      37.261 -22.620 -12.413  0.00  0.00    +0.029 C 
ATOM     18  C   UNL     1      31.404 -25.425 -15.535  0.00  0.00    +0.004 C 
ATOM     19  C   UNL     1      29.123 -23.354 -14.791  0.00  0.00    +0.069 C 
ATOM     20  C   UNL     1      30.371 -22.402 -16.815  0.00  0.00    +0.029 C 
ATOM     21  C   UNL     1      29.162 -22.409 -15.961  0.00  0.00    +0.173 C 
ENDROOT
BRANCH   6  22
ATOM     22  O   UNL     1      37.924 -24.898 -12.537  0.00  0.00    -0.387 OA
ATOM     23  H   UNL     1      38.387 -24.488 -11.790  0.00  0.00    +0.210 HD
ENDBRANCH   6  22
TORSDOF 1
ENDMDL
MODEL 6
REMARK VINA RESULT:      -6.9     19.024     21.313
REMARK  Name = 6010
REMARK  1 active torsions:
REMARK  status: ('A' for Active; 'I' for Inactive)
REMARK    1  A    between atoms: C_6  and  O_22
REMARK                            x       y       z     vdW  Elec       q    Type
REMARK                         _______ _______ _______ _____ _____    ______ ____
ROOT
ATOM      1  O   UNL     1      32.095 -11.309 -22.425  0.00  0.00    -0.291 OA
ATOM      2  C   UNL     1      32.468  -3.811 -26.333  0.00  0.00    +0.023 C 
ATOM      3  C   UNL     1      33.496  -4.957 -26.441  0.00  0.00    +0.002 C 
ATOM      4  C   UNL     1      33.650  -5.753 -25.138  0.00  0.00    +0.001 C 
ATOM      5  C   UNL     1      32.267  -6.364 -24.749  0.00  0.00    +0.003 C 
ATOM      6  C   UNL     1      32.633  -3.142 -27.733  0.00  0.00    +0.088 C 
ATOM      7  C   UNL     1      31.100  -4.439 -26.017  0.00  0.00    +0.002 C 
ATOM      8  C   UNL     1      32.332  -7.239 -23.437  0.00  0.00    +0.016 C 
ATOM      9  C   UNL     1      34.728  -4.275 -27.027  0.00  0.00    +0.002 C 
ATOM     10  C   UNL     1      31.143  -5.294 -24.737  0.00  0.00    +0.000 C 
ATOM     11  C   UNL     1      34.165  -3.199 -27.973  0.00  0.00    +0.027 C 
ATOM     12  C   UNL     1      34.694  -6.867 -25.284  0.00  0.00    +0.004 C 
ATOM     13  C   UNL     1      32.810  -2.774 -25.223  0.00  0.00    +0.002 C 
ATOM     14  C   UNL     1      33.498  -8.229 -23.540  0.00  0.00    -0.042 C 
ATOM     15  C   UNL     1      34.825  -7.671 -23.997  0.00  0.00    +0.022 C 
ATOM     16  C   UNL     1      30.988  -8.012 -23.299  0.00  0.00    +0.012 C 
ATOM     17  C   UNL     1      31.878  -3.825 -28.882  0.00  0.00    +0.029 C 
ATOM     18  C   UNL     1      32.544  -6.373 -22.175  0.00  0.00    +0.004 C 
ATOM     19  C   UNL     1      31.045  -9.162 -22.306  0.00  0.00    +0.069 C 
ATOM     20  C   UNL     1      33.406  -9.533 -23.227  0.00  0.00    +0.029 C 
ATOM     21  C   UNL     1      32.164 -10.105 -22.659  0.00  0.00    +0.173 C 
ENDROOT
BRANCH   6  22
ATOM     22  O   UNL     1      32.196  -1.786 -27.707  0.00  0.00    -0.387 OA
ATOM     23  H   UNL     1      31.446  -1.676 -28.312  0.00  0.00    +0.210 HD
ENDBRANCH   6  22
TORSDOF 1
ENDMDL
MODEL 7
REMARK VINA RESULT:      -6.9     13.145     15.474
REMARK  Name = 6010
REMARK  1 active torsions:
REMARK  status: ('A' for Active; 'I' for Inactive)
REMARK    1  A    between atoms: C_6  and  O_22
REMARK                            x       y       z     vdW  Elec       q    Type
REMARK                         _______ _______ _______ _____ _____    ______ ____
ROOT
ATOM      1  O   UNL     1      34.918 -17.140 -21.200  0.00  0.00    -0.291 OA
ATOM      2  C   UNL     1      32.931  -9.250 -23.531  0.00  0.00    +0.023 C 
ATOM      3  C   UNL     1      32.753  -9.867 -22.128  0.00  0.00    +0.002 C 
ATOM      4  C   UNL     1      32.404 -11.361 -22.168  0.00  0.00    +0.001 C 
ATOM      5  C   UNL     1      33.545 -12.131 -22.905  0.00  0.00    +0.003 C 
ATOM      6  C   UNL     1      33.147  -7.749 -23.162  0.00  0.00    +0.088 C 
ATOM      7  C   UNL     1      34.103  -9.975 -24.216  0.00  0.00    +0.002 C 
ATOM      8  C   UNL     1      33.295 -13.688 -22.961  0.00  0.00    +0.016 C 
ATOM      9  C   UNL     1      31.784  -8.912 -21.440  0.00  0.00    +0.002 C 
ATOM     10  C   UNL     1      33.875 -11.496 -24.283  0.00  0.00    +0.000 C 
ATOM     11  C   UNL     1      32.140  -7.523 -22.003  0.00  0.00    +0.027 C 
ATOM     12  C   UNL     1      32.216 -11.929 -20.755  0.00  0.00    +0.004 C 
ATOM     13  C   UNL     1      31.668  -9.383 -24.432  0.00  0.00    +0.002 C 
ATOM     14  C   UNL     1      32.938 -14.200 -21.560  0.00  0.00    -0.042 C 
ATOM     15  C   UNL     1      31.896 -13.417 -20.797  0.00  0.00    +0.022 C 
ATOM     16  C   UNL     1      34.600 -14.373 -23.461  0.00  0.00    +0.012 C 
ATOM     17  C   UNL     1      34.570  -7.378 -22.724  0.00  0.00    +0.029 C 
ATOM     18  C   UNL     1      32.139 -14.054 -23.918  0.00  0.00    +0.004 C 
ATOM     19  C   UNL     1      34.635 -15.873 -23.212  0.00  0.00    +0.069 C 
ATOM     20  C   UNL     1      33.475 -15.298 -21.001  0.00  0.00    +0.029 C 
ATOM     21  C   UNL     1      34.409 -16.168 -21.753  0.00  0.00    +0.173 C 
ENDROOT
BRANCH   6  22
ATOM     22  O   UNL     1      32.822  -6.900 -24.259  0.00  0.00    -0.387 OA
ATOM     23  H   UNL     1      32.733  -7.433 -25.065  0.00  0.00    +0.210 HD
ENDBRANCH   6  22
TORSDOF 1
ENDMDL
MODEL 8
REMARK VINA RESULT:      -6.8      3.467      5.922
REMARK  Name = 6010
REMARK  1 active torsions:
REMARK  status: ('A' for Active; 'I' for Inactive)
REMARK    1  A    between atoms: C_6  and  O_22
REMARK                            x       y       z     vdW  Elec       q    Type
REMARK                         _______ _______ _______ _____ _____    ______ ____
ROOT
ATOM      1  O   UNL     1      35.193 -18.714 -21.545  0.00  0.00    -0.291 OA
ATOM      2  C   UNL     1      33.371 -23.906 -15.113  0.00  0.00    +0.023 C 
ATOM      3  C   UNL     1      34.638 -23.037 -15.264  0.00  0.00    +0.002 C 
ATOM      4  C   UNL     1      35.092 -22.883 -16.721  0.00  0.00    +0.001 C 
ATOM      5  C   UNL     1      33.941 -22.227 -17.547  0.00  0.00    +0.003 C 
ATOM      6  C   UNL     1      33.247 -23.970 -13.559  0.00  0.00    +0.088 C 
ATOM      7  C   UNL     1      32.232 -23.208 -15.876  0.00  0.00    +0.002 C 
ATOM      8  C   UNL     1      34.330 -21.989 -19.058  0.00  0.00    +0.016 C 
ATOM      9  C   UNL     1      35.609 -23.648 -14.260  0.00  0.00    +0.002 C 
ATOM     10  C   UNL     1      32.592 -22.971 -17.354  0.00  0.00    +0.000 C 
ATOM     11  C   UNL     1      34.720 -24.118 -13.094  0.00  0.00    +0.027 C 
ATOM     12  C   UNL     1      36.363 -22.031 -16.823  0.00  0.00    +0.004 C 
ATOM     13  C   UNL     1      33.538 -25.348 -15.677  0.00  0.00    +0.002 C 
ATOM     14  C   UNL     1      35.692 -21.287 -19.131  0.00  0.00    -0.042 C 
ATOM     15  C   UNL     1      36.797 -21.858 -18.274  0.00  0.00    +0.022 C 
ATOM     16  C   UNL     1      33.235 -21.094 -19.708  0.00  0.00    +0.012 C 
ATOM     17  C   UNL     1      32.591 -22.748 -12.902  0.00  0.00    +0.029 C 
ATOM     18  C   UNL     1      34.426 -23.314 -19.845  0.00  0.00    +0.004 C 
ATOM     19  C   UNL     1      33.658 -20.479 -21.033  0.00  0.00    +0.069 C 
ATOM     20  C   UNL     1      35.952 -20.231 -19.920  0.00  0.00    +0.029 C 
ATOM     21  C   UNL     1      34.941 -19.709 -20.869  0.00  0.00    +0.173 C 
ENDROOT
BRANCH   6  22
ATOM     22  O   UNL     1      32.492 -25.107 -13.152  0.00  0.00    -0.387 OA
ATOM     23  H   UNL     1      33.026 -25.909 -13.268  0.00  0.00    +0.210 HD
ENDBRANCH   6  22
TORSDOF 1
ENDMDL
