MODEL 1
REMARK VINA RESULT:      -6.7      0.000      0.000
REMARK  Name = 6041
REMARK  5 active torsions:
REMARK  status: ('A' for Active; 'I' for Inactive)
REMARK    1  A    between atoms: C_1  and  C_2
REMARK    2  A    between atoms: C_1  and  O_10
REMARK    3  A    between atoms: C_1  and  C_12
REMARK    4  A    between atoms: C_5  and  O_8
REMARK    5  A    between atoms: C_12  and  N_13
REMARK                            x       y       z     vdW  Elec       q    Type
REMARK                         _______ _______ _______ _____ _____    ______ ____
ROOT
ATOM      1  C   UNL     1      34.620 -18.168 -21.814  0.00  0.00    +0.112 C 
ENDROOT
BRANCH   1   2
ATOM      2  C   UNL     1      34.781 -19.393 -20.977  0.00  0.00    +0.005 C 
ATOM      3  C   UNL     1      33.656 -20.087 -20.535  0.00  0.00    +0.035 C 
ATOM      4  C   UNL     1      36.058 -19.842 -20.637  0.00  0.00    -0.002 C 
ATOM      5  C   UNL     1      33.806 -21.233 -19.753  0.00  0.00    +0.133 C 
ATOM      6  C   UNL     1      36.207 -20.988 -19.856  0.00  0.00    +0.003 C 
ATOM      7  C   UNL     1      35.083 -21.683 -19.414  0.00  0.00    +0.037 C 
BRANCH   5   8
ATOM      8  O   UNL     1      32.708 -21.912 -19.322  0.00  0.00    -0.506 OA
ATOM      9  H   UNL     1      32.487 -21.916 -18.413  0.00  0.00    +0.292 HD
ENDBRANCH   5   8
ENDBRANCH   1   2
BRANCH   1  10
ATOM     10  O   UNL     1      35.110 -17.036 -21.082  0.00  0.00    -0.382 OA
ATOM     11  H   UNL     1      35.292 -17.297 -20.166  0.00  0.00    +0.211 HD
ENDBRANCH   1  10
BRANCH   1  12
ATOM     12  C   UNL     1      35.368 -18.276 -23.157  0.00  0.00    -0.047 C 
BRANCH  12  13
ATOM     13  N   UNL     1      35.458 -16.981 -23.827  0.00  0.00    +0.384 N 
ATOM     14  C   UNL     1      34.723 -16.998 -25.082  0.00  0.00    -0.106 C 
ATOM     15  H   UNL     1      36.438 -16.770 -24.016  0.00  0.00    -0.085 HD
ATOM     16  H   UNL     1      35.052 -16.270 -23.220  0.00  0.00    -0.085 HD
ENDBRANCH  12  13
ENDBRANCH   1  12
TORSDOF 5
ENDMDL
MODEL 2
REMARK VINA RESULT:      -6.7      1.288      1.912
REMARK  Name = 6041
REMARK  5 active torsions:
REMARK  status: ('A' for Active; 'I' for Inactive)
REMARK    1  A    between atoms: C_1  and  C_2
REMARK    2  A    between atoms: C_1  and  O_10
REMARK    3  A    between atoms: C_1  and  C_12
REMARK    4  A    between atoms: C_5  and  O_8
REMARK    5  A    between atoms: C_12  and  N_13
REMARK                            x       y       z     vdW  Elec       q    Type
REMARK                         _______ _______ _______ _____ _____    ______ ____
ROOT
ATOM      1  C   UNL     1      35.817 -18.461 -21.787  0.00  0.00    +0.112 C 
ENDROOT
BRANCH   1   2
ATOM      2  C   UNL     1      34.994 -19.449 -21.031  0.00  0.00    +0.005 C 
ATOM      3  C   UNL     1      35.617 -20.461 -20.302  0.00  0.00    +0.035 C 
ATOM      4  C   UNL     1      33.602 -19.362 -21.056  0.00  0.00    -0.002 C 
ATOM      5  C   UNL     1      34.848 -21.386 -19.594  0.00  0.00    +0.133 C 
ATOM      6  C   UNL     1      32.834 -20.286 -20.349  0.00  0.00    +0.003 C 
ATOM      7  C   UNL     1      33.456 -21.297 -19.618  0.00  0.00    +0.037 C 
BRANCH   5   8
ATOM      8  O   UNL     1      35.456 -22.372 -18.881  0.00  0.00    -0.506 OA
ATOM      9  H   UNL     1      35.008 -23.179 -18.722  0.00  0.00    +0.292 HD
ENDBRANCH   5   8
ENDBRANCH   1   2
BRANCH   1  10
ATOM     10  O   UNL     1      37.205 -18.782 -21.618  0.00  0.00    -0.382 OA
ATOM     11  H   UNL     1      37.662 -18.698 -22.469  0.00  0.00    +0.211 HD
ENDBRANCH   1  10
BRANCH   1  12
ATOM     12  C   UNL     1      35.473 -18.442 -23.289  0.00  0.00    -0.047 C 
BRANCH  12  13
ATOM     13  N   UNL     1      35.524 -17.088 -23.835  0.00  0.00    +0.384 N 
ATOM     14  C   UNL     1      34.727 -16.992 -25.049  0.00  0.00    -0.106 C 
ATOM     15  H   UNL     1      36.492 -16.851 -24.050  0.00  0.00    -0.085 HD
ATOM     16  H   UNL     1      35.145 -16.442 -23.143  0.00  0.00    -0.085 HD
ENDBRANCH  12  13
ENDBRANCH   1  12
TORSDOF 5
ENDMDL
MODEL 3
REMARK VINA RESULT:      -6.4      1.762      2.040
REMARK  Name = 6041
REMARK  5 active torsions:
REMARK  status: ('A' for Active; 'I' for Inactive)
REMARK    1  A    between atoms: C_1  and  C_2
REMARK    2  A    between atoms: C_1  and  O_10
REMARK    3  A    between atoms: C_1  and  C_12
REMARK    4  A    between atoms: C_5  and  O_8
REMARK    5  A    between atoms: C_12  and  N_13
REMARK                            x       y       z     vdW  Elec       q    Type
REMARK                         _______ _______ _______ _____ _____    ______ ____
ROOT
ATOM      1  C   UNL     1      35.019 -18.607 -21.763  0.00  0.00    +0.112 C 
ENDROOT
BRANCH   1   2
ATOM      2  C   UNL     1      35.027 -19.766 -20.823  0.00  0.00    +0.005 C 
ATOM      3  C   UNL     1      33.823 -20.330 -20.403  0.00  0.00    +0.035 C 
ATOM      4  C   UNL     1      36.238 -20.283 -20.364  0.00  0.00    -0.002 C 
ATOM      5  C   UNL     1      33.829 -21.415 -19.525  0.00  0.00    +0.133 C 
ATOM      6  C   UNL     1      36.245 -21.366 -19.486  0.00  0.00    +0.003 C 
ATOM      7  C   UNL     1      35.042 -21.932 -19.066  0.00  0.00    +0.037 C 
BRANCH   5   8
ATOM      8  O   UNL     1      32.655 -21.967 -19.116  0.00  0.00    -0.506 OA
ATOM      9  H   UNL     1      32.308 -22.713 -19.563  0.00  0.00    +0.292 HD
ENDBRANCH   5   8
ENDBRANCH   1   2
BRANCH   1  10
ATOM     10  O   UNL     1      34.545 -19.047 -23.043  0.00  0.00    -0.382 OA
ATOM     11  H   UNL     1      35.082 -19.795 -23.347  0.00  0.00    +0.211 HD
ENDBRANCH   1  10
BRANCH   1  12
ATOM     12  C   UNL     1      34.135 -17.451 -21.257  0.00  0.00    -0.047 C 
BRANCH  12  13
ATOM     13  N   UNL     1      34.913 -16.470 -20.502  0.00  0.00    +0.384 N 
ATOM     14  C   UNL     1      34.391 -15.128 -20.712  0.00  0.00    -0.106 C 
ATOM     15  H   UNL     1      35.883 -16.505 -20.811  0.00  0.00    -0.085 HD
ATOM     16  H   UNL     1      34.848 -16.696 -19.510  0.00  0.00    -0.085 HD
ENDBRANCH  12  13
ENDBRANCH   1  12
TORSDOF 5
ENDMDL
MODEL 4
REMARK VINA RESULT:      -6.3      2.441      5.253
REMARK  Name = 6041
REMARK  5 active torsions:
REMARK  status: ('A' for Active; 'I' for Inactive)
REMARK    1  A    between atoms: C_1  and  C_2
REMARK    2  A    between atoms: C_1  and  O_10
REMARK    3  A    between atoms: C_1  and  C_12
REMARK    4  A    between atoms: C_5  and  O_8
REMARK    5  A    between atoms: C_12  and  N_13
REMARK                            x       y       z     vdW  Elec       q    Type
REMARK                         _______ _______ _______ _____ _____    ______ ____
ROOT
ATOM      1  C   UNL     1      34.694 -19.560 -21.436  0.00  0.00    +0.112 C 
ENDROOT
BRANCH   1   2
ATOM      2  C   UNL     1      34.714 -18.633 -22.605  0.00  0.00    +0.005 C 
ATOM      3  C   UNL     1      34.841 -17.259 -22.402  0.00  0.00    +0.035 C 
ATOM      4  C   UNL     1      34.605 -19.140 -23.900  0.00  0.00    -0.002 C 
ATOM      5  C   UNL     1      34.860 -16.391 -23.495  0.00  0.00    +0.133 C 
ATOM      6  C   UNL     1      34.623 -18.273 -24.992  0.00  0.00    +0.003 C 
ATOM      7  C   UNL     1      34.751 -16.900 -24.790  0.00  0.00    +0.037 C 
BRANCH   5   8
ATOM      8  O   UNL     1      34.985 -15.051 -23.298  0.00  0.00    -0.506 OA
ATOM      9  H   UNL     1      34.231 -14.534 -23.097  0.00  0.00    +0.292 HD
ENDBRANCH   5   8
ENDBRANCH   1   2
BRANCH   1  10
ATOM     10  O   UNL     1      35.742 -19.191 -20.529  0.00  0.00    -0.382 OA
ATOM     11  H   UNL     1      36.533 -18.942 -21.033  0.00  0.00    +0.211 HD
ENDBRANCH   1  10
BRANCH   1  12
ATOM     12  C   UNL     1      33.343 -19.538 -20.697  0.00  0.00    -0.047 C 
BRANCH  12  13
ATOM     13  N   UNL     1      32.816 -20.887 -20.500  0.00  0.00    +0.384 N 
ATOM     14  C   UNL     1      33.494 -21.548 -19.395  0.00  0.00    -0.106 C 
ATOM     15  H   UNL     1      32.957 -21.428 -21.352  0.00  0.00    -0.085 HD
ATOM     16  H   UNL     1      31.822 -20.820 -20.281  0.00  0.00    -0.085 HD
ENDBRANCH  12  13
ENDBRANCH   1  12
TORSDOF 5
ENDMDL
MODEL 5
REMARK VINA RESULT:      -6.3      3.523      5.976
REMARK  Name = 6041
REMARK  5 active torsions:
REMARK  status: ('A' for Active; 'I' for Inactive)
REMARK    1  A    between atoms: C_1  and  C_2
REMARK    2  A    between atoms: C_1  and  O_10
REMARK    3  A    between atoms: C_1  and  C_12
REMARK    4  A    between atoms: C_5  and  O_8
REMARK    5  A    between atoms: C_12  and  N_13
REMARK                            x       y       z     vdW  Elec       q    Type
REMARK                         _______ _______ _______ _____ _____    ______ ____
ROOT
ATOM      1  C   UNL     1      33.684 -22.718 -18.738  0.00  0.00    +0.112 C 
ENDROOT
BRANCH   1   2
ATOM      2  C   UNL     1      34.045 -21.510 -19.536  0.00  0.00    +0.005 C 
ATOM      3  C   UNL     1      35.383 -21.154 -19.692  0.00  0.00    +0.035 C 
ATOM      4  C   UNL     1      33.043 -20.738 -20.124  0.00  0.00    -0.002 C 
ATOM      5  C   UNL     1      35.722 -20.024 -20.439  0.00  0.00    +0.133 C 
ATOM      6  C   UNL     1      33.381 -19.609 -20.870  0.00  0.00    +0.003 C 
ATOM      7  C   UNL     1      34.720 -19.252 -21.028  0.00  0.00    +0.037 C 
BRANCH   5   8
ATOM      8  O   UNL     1      37.028 -19.677 -20.593  0.00  0.00    -0.506 OA
ATOM      9  H   UNL     1      37.456 -19.815 -21.415  0.00  0.00    +0.292 HD
ENDBRANCH   5   8
ENDBRANCH   1   2
BRANCH   1  10
ATOM     10  O   UNL     1      33.983 -23.892 -19.506  0.00  0.00    -0.382 OA
ATOM     11  H   UNL     1      33.416 -24.622 -19.215  0.00  0.00    +0.211 HD
ENDBRANCH   1  10
BRANCH   1  12
ATOM     12  C   UNL     1      34.435 -22.776 -17.394  0.00  0.00    -0.047 C 
BRANCH  12  13
ATOM     13  N   UNL     1      33.681 -23.519 -16.388  0.00  0.00    +0.384 N 
ATOM     14  C   UNL     1      32.254 -23.267 -16.523  0.00  0.00    -0.106 C 
ATOM     15  H   UNL     1      33.986 -23.229 -15.460  0.00  0.00    -0.085 HD
ATOM     16  H   UNL     1      33.851 -24.516 -16.522  0.00  0.00    -0.085 HD
ENDBRANCH  12  13
ENDBRANCH   1  12
TORSDOF 5
ENDMDL
MODEL 6
REMARK VINA RESULT:      -6.2      2.966      4.511
REMARK  Name = 6041
REMARK  5 active torsions:
REMARK  status: ('A' for Active; 'I' for Inactive)
REMARK    1  A    between atoms: C_1  and  C_2
REMARK    2  A    between atoms: C_1  and  O_10
REMARK    3  A    between atoms: C_1  and  C_12
REMARK    4  A    between atoms: C_5  and  O_8
REMARK    5  A    between atoms: C_12  and  N_13
REMARK                            x       y       z     vdW  Elec       q    Type
REMARK                         _______ _______ _______ _____ _____    ______ ____
ROOT
ATOM      1  C   UNL     1      34.346 -15.512 -24.861  0.00  0.00    +0.112 C 
ENDROOT
BRANCH   1   2
ATOM      2  C   UNL     1      34.619 -16.762 -24.095  0.00  0.00    +0.005 C 
ATOM      3  C   UNL     1      34.915 -16.695 -22.734  0.00  0.00    +0.035 C 
ATOM      4  C   UNL     1      34.581 -17.998 -24.741  0.00  0.00    -0.002 C 
ATOM      5  C   UNL     1      35.170 -17.864 -22.017  0.00  0.00    +0.133 C 
ATOM      6  C   UNL     1      34.837 -19.167 -24.024  0.00  0.00    +0.003 C 
ATOM      7  C   UNL     1      35.131 -19.100 -22.663  0.00  0.00    +0.037 C 
BRANCH   5   8
ATOM      8  O   UNL     1      35.457 -17.799 -20.689  0.00  0.00    -0.506 OA
ATOM      9  H   UNL     1      34.765 -17.707 -20.064  0.00  0.00    +0.292 HD
ENDBRANCH   5   8
ENDBRANCH   1   2
BRANCH   1  10
ATOM     10  O   UNL     1      33.759 -15.857 -26.124  0.00  0.00    -0.382 OA
ATOM     11  H   UNL     1      32.813 -16.035 -26.003  0.00  0.00    +0.211 HD
ENDBRANCH   1  10
BRANCH   1  12
ATOM     12  C   UNL     1      33.407 -14.555 -24.102  0.00  0.00    -0.047 C 
BRANCH  12  13
ATOM     13  N   UNL     1      34.107 -13.350 -23.664  0.00  0.00    +0.384 N 
ATOM     14  C   UNL     1      33.790 -12.225 -24.532  0.00  0.00    -0.106 C 
ATOM     15  H   UNL     1      35.112 -13.519 -23.689  0.00  0.00    -0.085 HD
ATOM     16  H   UNL     1      33.808 -13.125 -22.715  0.00  0.00    -0.085 HD
ENDBRANCH  12  13
ENDBRANCH   1  12
TORSDOF 5
ENDMDL
MODEL 7
REMARK VINA RESULT:      -6.1      1.970      2.641
REMARK  Name = 6041
REMARK  5 active torsions:
REMARK  status: ('A' for Active; 'I' for Inactive)
REMARK    1  A    between atoms: C_1  and  C_2
REMARK    2  A    between atoms: C_1  and  O_10
REMARK    3  A    between atoms: C_1  and  C_12
REMARK    4  A    between atoms: C_5  and  O_8
REMARK    5  A    between atoms: C_12  and  N_13
REMARK                            x       y       z     vdW  Elec       q    Type
REMARK                         _______ _______ _______ _____ _____    ______ ____
ROOT
ATOM      1  C   UNL     1      35.592 -17.770 -21.873  0.00  0.00    +0.112 C 
ENDROOT
BRANCH   1   2
ATOM      2  C   UNL     1      35.060 -18.952 -21.135  0.00  0.00    +0.005 C 
ATOM      3  C   UNL     1      35.939 -19.846 -20.524  0.00  0.00    +0.035 C 
ATOM      4  C   UNL     1      33.683 -19.165 -21.057  0.00  0.00    -0.002 C 
ATOM      5  C   UNL     1      35.442 -20.952 -19.833  0.00  0.00    +0.133 C 
ATOM      6  C   UNL     1      33.187 -20.270 -20.367  0.00  0.00    +0.003 C 
ATOM      7  C   UNL     1      34.065 -21.163 -19.756  0.00  0.00    +0.037 C 
BRANCH   5   8
ATOM      8  O   UNL     1      36.300 -21.823 -19.236  0.00  0.00    -0.506 OA
ATOM      9  H   UNL     1      36.902 -21.517 -18.588  0.00  0.00    +0.292 HD
ENDBRANCH   5   8
ENDBRANCH   1   2
BRANCH   1  10
ATOM     10  O   UNL     1      36.191 -18.215 -23.098  0.00  0.00    -0.382 OA
ATOM     11  H   UNL     1      36.956 -17.656 -23.305  0.00  0.00    +0.211 HD
ENDBRANCH   1  10
BRANCH   1  12
ATOM     12  C   UNL     1      34.494 -16.734 -22.184  0.00  0.00    -0.047 C 
BRANCH  12  13
ATOM     13  N   UNL     1      34.396 -15.724 -21.133  0.00  0.00    +0.384 N 
ATOM     14  C   UNL     1      33.008 -15.350 -20.906  0.00  0.00    -0.106 C 
ATOM     15  H   UNL     1      34.924 -14.898 -21.413  0.00  0.00    -0.085 HD
ATOM     16  H   UNL     1      34.776 -16.112 -20.270  0.00  0.00    -0.085 HD
ENDBRANCH  12  13
ENDBRANCH   1  12
TORSDOF 5
ENDMDL
MODEL 8
REMARK VINA RESULT:      -6.1      2.574      5.505
REMARK  Name = 6041
REMARK  5 active torsions:
REMARK  status: ('A' for Active; 'I' for Inactive)
REMARK    1  A    between atoms: C_1  and  C_2
REMARK    2  A    between atoms: C_1  and  O_10
REMARK    3  A    between atoms: C_1  and  C_12
REMARK    4  A    between atoms: C_5  and  O_8
REMARK    5  A    between atoms: C_12  and  N_13
REMARK                            x       y       z     vdW  Elec       q    Type
REMARK                         _______ _______ _______ _____ _____    ______ ____
ROOT
ATOM      1  C   UNL     1      35.526 -18.171 -22.004  0.00  0.00    +0.112 C 
ENDROOT
BRANCH   1   2
ATOM      2  C   UNL     1      34.946 -17.015 -22.747  0.00  0.00    +0.005 C 
ATOM      3  C   UNL     1      34.680 -17.125 -24.111  0.00  0.00    +0.035 C 
ATOM      4  C   UNL     1      34.673 -15.822 -22.076  0.00  0.00    -0.002 C 
ATOM      5  C   UNL     1      34.137 -16.044 -24.806  0.00  0.00    +0.133 C 
ATOM      6  C   UNL     1      34.131 -14.741 -22.771  0.00  0.00    +0.003 C 
ATOM      7  C   UNL     1      33.863 -14.851 -24.135  0.00  0.00    +0.037 C 
BRANCH   5   8
ATOM      8  O   UNL     1      33.875 -16.152 -26.136  0.00  0.00    -0.506 OA
ATOM      9  H   UNL     1      33.536 -15.418 -26.609  0.00  0.00    +0.292 HD
ENDBRANCH   5   8
ENDBRANCH   1   2
BRANCH   1  10
ATOM     10  O   UNL     1      35.645 -17.824 -20.618  0.00  0.00    -0.382 OA
ATOM     11  H   UNL     1      35.706 -18.633 -20.086  0.00  0.00    +0.211 HD
ENDBRANCH   1  10
BRANCH   1  12
ATOM     12  C   UNL     1      34.669 -19.444 -22.145  0.00  0.00    -0.047 C 
BRANCH  12  13
ATOM     13  N   UNL     1      34.309 -19.996 -20.841  0.00  0.00    +0.384 N 
ATOM     14  C   UNL     1      32.865 -20.014 -20.669  0.00  0.00    -0.106 C 
ATOM     15  H   UNL     1      34.727 -19.423 -20.109  0.00  0.00    -0.085 HD
ATOM     16  H   UNL     1      34.657 -20.954 -20.785  0.00  0.00    -0.085 HD
ENDBRANCH  12  13
ENDBRANCH   1  12
TORSDOF 5
ENDMDL
MODEL 9
REMARK VINA RESULT:      -6.1     11.019     13.524
REMARK  Name = 6041
REMARK  5 active torsions:
REMARK  status: ('A' for Active; 'I' for Inactive)
REMARK    1  A    between atoms: C_1  and  C_2
REMARK    2  A    between atoms: C_1  and  O_10
REMARK    3  A    between atoms: C_1  and  C_12
REMARK    4  A    between atoms: C_5  and  O_8
REMARK    5  A    between atoms: C_12  and  N_13
REMARK                            x       y       z     vdW  Elec       q    Type
REMARK                         _______ _______ _______ _____ _____    ______ ____
ROOT
ATOM      1  C   UNL     1      32.995  -7.858 -20.684  0.00  0.00    +0.112 C 
ENDROOT
BRANCH   1   2
ATOM      2  C   UNL     1      32.497  -6.937 -21.747  0.00  0.00    +0.005 C 
ATOM      3  C   UNL     1      31.592  -5.927 -21.426  0.00  0.00    +0.035 C 
ATOM      4  C   UNL     1      32.937  -7.089 -23.062  0.00  0.00    -0.002 C 
ATOM      5  C   UNL     1      31.127  -5.065 -22.420  0.00  0.00    +0.133 C 
ATOM      6  C   UNL     1      32.471  -6.228 -24.056  0.00  0.00    +0.003 C 
ATOM      7  C   UNL     1      31.568  -5.216 -23.735  0.00  0.00    +0.037 C 
BRANCH   5   8
ATOM      8  O   UNL     1      30.245  -4.077 -22.106  0.00  0.00    -0.506 OA
ATOM      9  H   UNL     1      30.538  -3.316 -21.646  0.00  0.00    +0.292 HD
ENDBRANCH   5   8
ENDBRANCH   1   2
BRANCH   1  10
ATOM     10  O   UNL     1      33.090  -7.136 -19.448  0.00  0.00    -0.382 OA
ATOM     11  H   UNL     1      33.345  -7.745 -18.737  0.00  0.00    +0.211 HD
ENDBRANCH   1  10
BRANCH   1  12
ATOM     12  C   UNL     1      32.078  -9.082 -20.495  0.00  0.00    -0.047 C 
BRANCH  12  13
ATOM     13  N   UNL     1      32.194  -9.638 -19.149  0.00  0.00    +0.384 N 
ATOM     14  C   UNL     1      31.337 -10.805 -18.998  0.00  0.00    -0.106 C 
ATOM     15  H   UNL     1      31.918  -8.930 -18.470  0.00  0.00    -0.085 HD
ATOM     16  H   UNL     1      33.162  -9.921 -18.995  0.00  0.00    -0.085 HD
ENDBRANCH  12  13
ENDBRANCH   1  12
TORSDOF 5
ENDMDL
