MODEL 1
REMARK VINA RESULT:      -5.3      0.000      0.000
REMARK  Name = 7510
REMARK  2 active torsions:
REMARK  status: ('A' for Active; 'I' for Inactive)
REMARK    1  A    between atoms: C_2  and  C_7
REMARK    2  A    between atoms: C_7  and  O_8
REMARK                            x       y       z     vdW  Elec       q    Type
REMARK                         _______ _______ _______ _____ _____    ______ ____
ROOT
ATOM      1  N   UNL     1      35.720 -19.914 -20.452  0.00  0.00    -0.243 NA
ATOM      2  C   UNL     1      34.098 -21.449 -19.527  0.00  0.00    +0.026 C 
ATOM      3  C   UNL     1      33.067 -20.725 -20.114  0.00  0.00    +0.001 C 
ATOM      4  C   UNL     1      35.396 -21.005 -19.725  0.00  0.00    +0.097 C 
ATOM      5  C   UNL     1      33.361 -19.595 -20.870  0.00  0.00    +0.020 C 
ATOM      6  C   UNL     1      34.691 -19.235 -21.008  0.00  0.00    +0.099 C 
ENDROOT
BRANCH   2   7
ATOM      7  C   UNL     1      33.817 -22.662 -18.714  0.00  0.00    +0.165 C 
BRANCH   7   8
ATOM      8  O   UNL     1      33.958 -23.824 -19.525  0.00  0.00    -0.377 OA
ATOM      9  H   UNL     1      33.614 -24.594 -19.049  0.00  0.00    +0.211 HD
ENDBRANCH   7   8
ENDBRANCH   2   7
TORSDOF 2
ENDMDL
MODEL 2
REMARK VINA RESULT:      -5.2      2.586      3.747
REMARK  Name = 7510
REMARK  2 active torsions:
REMARK  status: ('A' for Active; 'I' for Inactive)
REMARK    1  A    between atoms: C_2  and  C_7
REMARK    2  A    between atoms: C_7  and  O_8
REMARK                            x       y       z     vdW  Elec       q    Type
REMARK                         _______ _______ _______ _____ _____    ______ ____
ROOT
ATOM      1  N   UNL     1      32.809 -21.589 -19.554  0.00  0.00    -0.243 NA
ATOM      2  C   UNL     1      34.345 -20.024 -20.571  0.00  0.00    +0.026 C 
ATOM      3  C   UNL     1      35.423 -20.781 -20.125  0.00  0.00    +0.001 C 
ATOM      4  C   UNL     1      33.069 -20.468 -20.261  0.00  0.00    +0.097 C 
ATOM      5  C   UNL     1      35.195 -21.941 -19.394  0.00  0.00    +0.020 C 
ATOM      6  C   UNL     1      33.881 -22.299 -19.136  0.00  0.00    +0.099 C 
ENDROOT
BRANCH   2   7
ATOM      7  C   UNL     1      34.555 -18.779 -21.357  0.00  0.00    +0.165 C 
BRANCH   7   8
ATOM      8  O   UNL     1      35.471 -17.931 -20.672  0.00  0.00    -0.377 OA
ATOM      9  H   UNL     1      34.980 -17.280 -20.149  0.00  0.00    +0.211 HD
ENDBRANCH   7   8
ENDBRANCH   2   7
TORSDOF 2
ENDMDL
MODEL 3
REMARK VINA RESULT:      -4.8      9.751     10.285
REMARK  Name = 7510
REMARK  2 active torsions:
REMARK  status: ('A' for Active; 'I' for Inactive)
REMARK    1  A    between atoms: C_2  and  C_7
REMARK    2  A    between atoms: C_7  and  O_8
REMARK                            x       y       z     vdW  Elec       q    Type
REMARK                         _______ _______ _______ _____ _____    ______ ____
ROOT
ATOM      1  N   UNL     1      42.070 -17.039 -16.732  0.00  0.00    -0.243 NA
ATOM      2  C   UNL     1      41.467 -14.751 -16.238  0.00  0.00    +0.026 C 
ATOM      3  C   UNL     1      41.622 -14.412 -17.577  0.00  0.00    +0.001 C 
ATOM      4  C   UNL     1      41.701 -16.066 -15.870  0.00  0.00    +0.097 C 
ATOM      5  C   UNL     1      42.002 -15.386 -18.495  0.00  0.00    +0.020 C 
ATOM      6  C   UNL     1      42.212 -16.672 -18.026  0.00  0.00    +0.099 C 
ENDROOT
BRANCH   2   7
ATOM      7  C   UNL     1      41.061 -13.733 -15.232  0.00  0.00    +0.165 C 
BRANCH   7   8
ATOM      8  O   UNL     1      40.479 -14.382 -14.106  0.00  0.00    -0.377 OA
ATOM      9  H   UNL     1      41.081 -15.070 -13.782  0.00  0.00    +0.211 HD
ENDBRANCH   7   8
ENDBRANCH   2   7
TORSDOF 2
ENDMDL
MODEL 4
REMARK VINA RESULT:      -4.8      3.865      4.869
REMARK  Name = 7510
REMARK  2 active torsions:
REMARK  status: ('A' for Active; 'I' for Inactive)
REMARK    1  A    between atoms: C_2  and  C_7
REMARK    2  A    between atoms: C_7  and  O_8
REMARK                            x       y       z     vdW  Elec       q    Type
REMARK                         _______ _______ _______ _____ _____    ______ ____
ROOT
ATOM      1  N   UNL     1      35.033 -16.158 -23.727  0.00  0.00    -0.243 NA
ATOM      2  C   UNL     1      35.020 -18.372 -22.758  0.00  0.00    +0.026 C 
ATOM      3  C   UNL     1      34.681 -18.918 -23.991  0.00  0.00    +0.001 C 
ATOM      4  C   UNL     1      35.183 -16.998 -22.680  0.00  0.00    +0.097 C 
ATOM      5  C   UNL     1      34.517 -18.084 -25.092  0.00  0.00    +0.020 C 
ATOM      6  C   UNL     1      34.703 -16.724 -24.910  0.00  0.00    +0.099 C 
ENDROOT
BRANCH   2   7
ATOM      7  C   UNL     1      35.203 -19.236 -21.561  0.00  0.00    +0.165 C 
BRANCH   7   8
ATOM      8  O   UNL     1      36.004 -18.556 -20.600  0.00  0.00    -0.377 OA
ATOM      9  H   UNL     1      36.861 -18.333 -20.994  0.00  0.00    +0.211 HD
ENDBRANCH   7   8
ENDBRANCH   2   7
TORSDOF 2
ENDMDL
MODEL 5
REMARK VINA RESULT:      -4.8      4.269      5.571
REMARK  Name = 7510
REMARK  2 active torsions:
REMARK  status: ('A' for Active; 'I' for Inactive)
REMARK    1  A    between atoms: C_2  and  C_7
REMARK    2  A    between atoms: C_7  and  O_8
REMARK                            x       y       z     vdW  Elec       q    Type
REMARK                         _______ _______ _______ _____ _____    ______ ____
ROOT
ATOM      1  N   UNL     1      35.178 -17.397 -20.999  0.00  0.00    -0.243 NA
ATOM      2  C   UNL     1      34.850 -17.218 -23.387  0.00  0.00    +0.026 C 
ATOM      3  C   UNL     1      34.793 -18.604 -23.491  0.00  0.00    +0.001 C 
ATOM      4  C   UNL     1      35.042 -16.670 -22.130  0.00  0.00    +0.097 C 
ATOM      5  C   UNL     1      34.930 -19.386 -22.349  0.00  0.00    +0.020 C 
ATOM      6  C   UNL     1      35.118 -18.741 -21.138  0.00  0.00    +0.099 C 
ENDROOT
BRANCH   2   7
ATOM      7  C   UNL     1      34.706 -16.354 -24.589  0.00  0.00    +0.165 C 
BRANCH   7   8
ATOM      8  O   UNL     1      34.806 -17.150 -25.765  0.00  0.00    -0.377 OA
ATOM      9  H   UNL     1      34.031 -17.730 -25.829  0.00  0.00    +0.211 HD
ENDBRANCH   7   8
ENDBRANCH   2   7
TORSDOF 2
ENDMDL
MODEL 6
REMARK VINA RESULT:      -4.8     11.089     12.233
REMARK  Name = 7510
REMARK  2 active torsions:
REMARK  status: ('A' for Active; 'I' for Inactive)
REMARK    1  A    between atoms: C_2  and  C_7
REMARK    2  A    between atoms: C_7  and  O_8
REMARK                            x       y       z     vdW  Elec       q    Type
REMARK                         _______ _______ _______ _____ _____    ______ ____
ROOT
ATOM      1  N   UNL     1      31.220 -10.842 -22.038  0.00  0.00    -0.243 NA
ATOM      2  C   UNL     1      32.171  -8.990 -20.811  0.00  0.00    +0.026 C 
ATOM      3  C   UNL     1      31.941  -9.656 -19.612  0.00  0.00    +0.001 C 
ATOM      4  C   UNL     1      31.795  -9.621 -21.985  0.00  0.00    +0.097 C 
ATOM      5  C   UNL     1      31.351 -10.915 -19.626  0.00  0.00    +0.020 C 
ATOM      6  C   UNL     1      31.012 -11.460 -20.853  0.00  0.00    +0.099 C 
ENDROOT
BRANCH   2   7
ATOM      7  C   UNL     1      32.801  -7.643 -20.830  0.00  0.00    +0.165 C 
BRANCH   7   8
ATOM      8  O   UNL     1      33.226  -7.296 -19.516  0.00  0.00    -0.377 OA
ATOM      9  H   UNL     1      33.427  -8.103 -19.018  0.00  0.00    +0.211 HD
ENDBRANCH   7   8
ENDBRANCH   2   7
TORSDOF 2
ENDMDL
MODEL 7
REMARK VINA RESULT:      -4.7      7.299      7.840
REMARK  Name = 7510
REMARK  2 active torsions:
REMARK  status: ('A' for Active; 'I' for Inactive)
REMARK    1  A    between atoms: C_2  and  C_7
REMARK    2  A    between atoms: C_7  and  O_8
REMARK                            x       y       z     vdW  Elec       q    Type
REMARK                         _______ _______ _______ _____ _____    ______ ____
ROOT
ATOM      1  N   UNL     1      30.072 -25.453 -14.653  0.00  0.00    -0.243 NA
ATOM      2  C   UNL     1      28.999 -23.498 -15.586  0.00  0.00    +0.026 C 
ATOM      3  C   UNL     1      29.965 -22.682 -15.008  0.00  0.00    +0.001 C 
ATOM      4  C   UNL     1      29.097 -24.865 -15.380  0.00  0.00    +0.097 C 
ATOM      5  C   UNL     1      30.984 -23.251 -14.252  0.00  0.00    +0.020 C 
ATOM      6  C   UNL     1      30.994 -24.628 -14.105  0.00  0.00    +0.099 C 
ENDROOT
BRANCH   2   7
ATOM      7  C   UNL     1      27.896 -22.922 -16.401  0.00  0.00    +0.165 C 
BRANCH   7   8
ATOM      8  O   UNL     1      27.699 -23.716 -17.566  0.00  0.00    -0.377 OA
ATOM      9  H   UNL     1      26.812 -24.108 -17.544  0.00  0.00    +0.211 HD
ENDBRANCH   7   8
ENDBRANCH   2   7
TORSDOF 2
ENDMDL
MODEL 8
REMARK VINA RESULT:      -4.7      7.129      8.116
REMARK  Name = 7510
REMARK  2 active torsions:
REMARK  status: ('A' for Active; 'I' for Inactive)
REMARK    1  A    between atoms: C_2  and  C_7
REMARK    2  A    between atoms: C_7  and  O_8
REMARK                            x       y       z     vdW  Elec       q    Type
REMARK                         _______ _______ _______ _____ _____    ______ ____
ROOT
ATOM      1  N   UNL     1      33.840 -16.248 -25.921  0.00  0.00    -0.243 NA
ATOM      2  C   UNL     1      33.809 -14.685 -24.078  0.00  0.00    +0.026 C 
ATOM      3  C   UNL     1      34.598 -15.546 -23.324  0.00  0.00    +0.001 C 
ATOM      4  C   UNL     1      33.461 -15.079 -25.360  0.00  0.00    +0.097 C 
ATOM      5  C   UNL     1      35.007 -16.759 -23.867  0.00  0.00    +0.020 C 
ATOM      6  C   UNL     1      34.606 -17.061 -25.158  0.00  0.00    +0.099 C 
ENDROOT
BRANCH   2   7
ATOM      7  C   UNL     1      33.355 -13.380 -23.527  0.00  0.00    +0.165 C 
BRANCH   7   8
ATOM      8  O   UNL     1      34.190 -12.337 -24.020  0.00  0.00    -0.377 OA
ATOM      9  H   UNL     1      34.819 -12.703 -24.662  0.00  0.00    +0.211 HD
ENDBRANCH   7   8
ENDBRANCH   2   7
TORSDOF 2
ENDMDL
MODEL 9
REMARK VINA RESULT:      -4.7      5.373      6.525
REMARK  Name = 7510
REMARK  2 active torsions:
REMARK  status: ('A' for Active; 'I' for Inactive)
REMARK    1  A    between atoms: C_2  and  C_7
REMARK    2  A    between atoms: C_7  and  O_8
REMARK                            x       y       z     vdW  Elec       q    Type
REMARK                         _______ _______ _______ _____ _____    ______ ____
ROOT
ATOM      1  N   UNL     1      34.039 -16.506 -25.922  0.00  0.00    -0.243 NA
ATOM      2  C   UNL     1      34.695 -16.569 -23.597  0.00  0.00    +0.026 C 
ATOM      3  C   UNL     1      34.104 -15.328 -23.388  0.00  0.00    +0.001 C 
ATOM      4  C   UNL     1      34.635 -17.110 -24.871  0.00  0.00    +0.097 C 
ATOM      5  C   UNL     1      33.481 -14.675 -24.447  0.00  0.00    +0.020 C 
ATOM      6  C   UNL     1      33.476 -15.300 -25.682  0.00  0.00    +0.099 C 
ENDROOT
BRANCH   2   7
ATOM      7  C   UNL     1      35.368 -17.294 -22.486  0.00  0.00    +0.165 C 
BRANCH   7   8
ATOM      8  O   UNL     1      36.424 -18.094 -23.009  0.00  0.00    -0.377 OA
ATOM      9  H   UNL     1      36.913 -18.501 -22.277  0.00  0.00    +0.211 HD
ENDBRANCH   7   8
ENDBRANCH   2   7
TORSDOF 2
ENDMDL
