MODEL 1
REMARK VINA RESULT:     -10.0      0.000      0.000
REMARK  Name = 5994
REMARK  1 active torsions:
REMARK  status: ('A' for Active; 'I' for Inactive)
REMARK    1  A    between atoms: C_7  and  C_22
REMARK                            x       y       z     vdW  Elec       q    Type
REMARK                         _______ _______ _______ _____ _____    ______ ____
ROOT
ATOM      1  O   UNL     1      40.213 -26.050 -13.990  0.00  0.00    -0.291 OA
ATOM      2  C   UNL     1      33.238 -23.602 -15.925  0.00  0.00    +0.000 C 
ATOM      3  C   UNL     1      32.113 -23.773 -14.881  0.00  0.00    +0.007 C 
ATOM      4  C   UNL     1      34.602 -23.313 -15.290  0.00  0.00    +0.001 C 
ATOM      5  C   UNL     1      34.983 -24.501 -14.352  0.00  0.00    +0.003 C 
ATOM      6  C   UNL     1      36.397 -24.320 -13.677  0.00  0.00    +0.016 C 
ATOM      7  C   UNL     1      30.917 -23.983 -15.836  0.00  0.00    +0.058 C 
ATOM      8  C   UNL     1      32.464 -24.988 -14.012  0.00  0.00    +0.000 C 
ATOM      9  C   UNL     1      33.844 -24.832 -13.348  0.00  0.00    +0.000 C 
ATOM     10  C   UNL     1      32.653 -22.599 -16.914  0.00  0.00    +0.000 C 
ATOM     11  C   UNL     1      35.687 -23.119 -16.358  0.00  0.00    +0.004 C 
ATOM     12  C   UNL     1      31.162 -22.977 -16.980  0.00  0.00    +0.007 C 
ATOM     13  C   UNL     1      37.432 -23.955 -14.749  0.00  0.00    -0.042 C 
ATOM     14  C   UNL     1      31.897 -22.529 -13.981  0.00  0.00    +0.000 C 
ATOM     15  C   UNL     1      37.047 -22.865 -15.721  0.00  0.00    +0.022 C 
ATOM     16  C   UNL     1      36.789 -25.663 -12.995  0.00  0.00    +0.012 C 
ATOM     17  C   UNL     1      36.390 -23.201 -12.612  0.00  0.00    +0.004 C 
ATOM     18  C   UNL     1      38.262 -25.757 -12.633  0.00  0.00    +0.069 C 
ATOM     19  C   UNL     1      38.644 -24.528 -14.849  0.00  0.00    +0.029 C 
ATOM     20  C   UNL     1      39.117 -25.512 -13.849  0.00  0.00    +0.173 C 
ENDROOT
BRANCH   7  22
ATOM     21  O   UNL     1      29.102 -24.651 -14.442  0.00  0.00    -0.296 OA
ATOM     22  C   UNL     1      29.575 -23.803 -15.195  0.00  0.00    +0.151 C 
ATOM     23  C   UNL     1      28.837 -22.532 -15.518  0.00  0.00    +0.072 C 
ENDBRANCH   7  22
TORSDOF 1
ENDMDL
MODEL 2
REMARK VINA RESULT:      -9.4      3.503      6.638
REMARK  Name = 5994
REMARK  1 active torsions:
REMARK  status: ('A' for Active; 'I' for Inactive)
REMARK    1  A    between atoms: C_7  and  C_22
REMARK                            x       y       z     vdW  Elec       q    Type
REMARK                         _______ _______ _______ _____ _____    ______ ____
ROOT
ATOM      1  O   UNL     1      33.642 -18.918 -21.819  0.00  0.00    -0.291 OA
ATOM      2  C   UNL     1      36.240 -22.605 -15.651  0.00  0.00    +0.000 C 
ATOM      3  C   UNL     1      35.271 -23.581 -14.949  0.00  0.00    +0.007 C 
ATOM      4  C   UNL     1      36.046 -22.560 -17.170  0.00  0.00    +0.001 C 
ATOM      5  C   UNL     1      34.585 -22.105 -17.479  0.00  0.00    +0.003 C 
ATOM      6  C   UNL     1      34.294 -21.986 -19.024  0.00  0.00    +0.016 C 
ATOM      7  C   UNL     1      35.767 -23.423 -13.495  0.00  0.00    +0.058 C 
ATOM      8  C   UNL     1      33.842 -23.080 -15.200  0.00  0.00    +0.000 C 
ATOM      9  C   UNL     1      33.540 -22.954 -16.704  0.00  0.00    +0.000 C 
ATOM     10  C   UNL     1      37.602 -22.995 -15.088  0.00  0.00    +0.000 C 
ATOM     11  C   UNL     1      37.046 -21.605 -17.834  0.00  0.00    +0.004 C 
ATOM     12  C   UNL     1      37.303 -23.358 -13.622  0.00  0.00    +0.007 C 
ATOM     13  C   UNL     1      35.407 -21.169 -19.693  0.00  0.00    -0.042 C 
ATOM     14  C   UNL     1      35.403 -25.050 -15.427  0.00  0.00    +0.000 C 
ATOM     15  C   UNL     1      36.828 -21.540 -19.340  0.00  0.00    +0.022 C 
ATOM     16  C   UNL     1      32.924 -21.273 -19.210  0.00  0.00    +0.012 C 
ATOM     17  C   UNL     1      34.235 -23.371 -19.709  0.00  0.00    +0.004 C 
ATOM     18  C   UNL     1      32.690 -20.760 -20.622  0.00  0.00    +0.069 C 
ATOM     19  C   UNL     1      35.184 -20.178 -20.574  0.00  0.00    +0.029 C 
ATOM     20  C   UNL     1      33.818 -19.857 -21.046  0.00  0.00    +0.173 C 
ENDROOT
BRANCH   7  22
ATOM     21  O   UNL     1      34.126 -24.693 -12.320  0.00  0.00    -0.296 OA
ATOM     22  C   UNL     1      35.316 -24.508 -12.566  0.00  0.00    +0.151 C 
ATOM     23  C   UNL     1      36.392 -25.361 -11.951  0.00  0.00    +0.072 C 
ENDBRANCH   7  22
TORSDOF 1
ENDMDL
MODEL 3
REMARK VINA RESULT:      -8.2     14.066     16.297
REMARK  Name = 5994
REMARK  1 active torsions:
REMARK  status: ('A' for Active; 'I' for Inactive)
REMARK    1  A    between atoms: C_7  and  C_22
REMARK                            x       y       z     vdW  Elec       q    Type
REMARK                         _______ _______ _______ _____ _____    ______ ____
ROOT
ATOM      1  O   UNL     1      34.583 -16.384 -21.042  0.00  0.00    -0.291 OA
ATOM      2  C   UNL     1      32.561  -9.065 -21.896  0.00  0.00    +0.000 C 
ATOM      3  C   UNL     1      32.683  -8.457 -23.311  0.00  0.00    +0.007 C 
ATOM      4  C   UNL     1      32.170 -10.546 -21.915  0.00  0.00    +0.001 C 
ATOM      5  C   UNL     1      33.259 -11.345 -22.698  0.00  0.00    +0.003 C 
ATOM      6  C   UNL     1      32.972 -12.895 -22.739  0.00  0.00    +0.016 C 
ATOM      7  C   UNL     1      33.016  -6.998 -22.928  0.00  0.00    +0.058 C 
ATOM      8  C   UNL     1      33.807  -9.203 -24.043  0.00  0.00    +0.000 C 
ATOM      9  C   UNL     1      33.545 -10.719 -24.091  0.00  0.00    +0.000 C 
ATOM     10  C   UNL     1      31.667  -8.071 -21.162  0.00  0.00    +0.000 C 
ATOM     11  C   UNL     1      32.027 -11.106 -20.494  0.00  0.00    +0.004 C 
ATOM     12  C   UNL     1      32.102  -6.704 -21.720  0.00  0.00    +0.007 C 
ATOM     13  C   UNL     1      32.661 -13.396 -21.323  0.00  0.00    -0.042 C 
ATOM     14  C   UNL     1      31.376  -8.531 -24.142  0.00  0.00    +0.000 C 
ATOM     15  C   UNL     1      31.671 -12.586 -20.518  0.00  0.00    +0.022 C 
ATOM     16  C   UNL     1      34.237 -13.612 -23.292  0.00  0.00    +0.012 C 
ATOM     17  C   UNL     1      31.767 -13.234 -23.646  0.00  0.00    +0.004 C 
ATOM     18  C   UNL     1      34.246 -15.112 -23.042  0.00  0.00    +0.069 C 
ATOM     19  C   UNL     1      33.196 -14.506 -20.785  0.00  0.00    +0.029 C 
ATOM     20  C   UNL     1      34.075 -15.399 -21.573  0.00  0.00    +0.173 C 
ENDROOT
BRANCH   7  22
ATOM     21  O   UNL     1      33.561  -6.007 -25.026  0.00  0.00    -0.296 OA
ATOM     22  C   UNL     1      32.831  -6.010 -24.037  0.00  0.00    +0.151 C 
ATOM     23  C   UNL     1      31.707  -5.022 -23.882  0.00  0.00    +0.072 C 
ENDBRANCH   7  22
TORSDOF 1
ENDMDL
MODEL 4
REMARK VINA RESULT:      -7.9     14.638     17.361
REMARK  Name = 5994
REMARK  1 active torsions:
REMARK  status: ('A' for Active; 'I' for Inactive)
REMARK    1  A    between atoms: C_7  and  C_22
REMARK                            x       y       z     vdW  Elec       q    Type
REMARK                         _______ _______ _______ _____ _____    ______ ____
ROOT
ATOM      1  O   UNL     1      30.529  -4.273 -22.560  0.00  0.00    -0.291 OA
ATOM      2  C   UNL     1      32.157 -11.735 -22.318  0.00  0.00    +0.000 C 
ATOM      3  C   UNL     1      33.023 -12.308 -23.460  0.00  0.00    +0.007 C 
ATOM      4  C   UNL     1      32.532 -10.296 -21.948  0.00  0.00    +0.001 C 
ATOM      5  C   UNL     1      32.346  -9.389 -23.205  0.00  0.00    +0.003 C 
ATOM      6  C   UNL     1      32.668  -7.871 -22.919  0.00  0.00    +0.016 C 
ATOM      7  C   UNL     1      32.436 -13.735 -23.527  0.00  0.00    +0.058 C 
ATOM      8  C   UNL     1      32.774 -11.451 -24.709  0.00  0.00    +0.000 C 
ATOM      9  C   UNL     1      33.079  -9.965 -24.448  0.00  0.00    +0.000 C 
ATOM     10  C   UNL     1      32.226 -12.817 -21.246  0.00  0.00    +0.000 C 
ATOM     11  C   UNL     1      31.673  -9.772 -20.790  0.00  0.00    +0.004 C 
ATOM     12  C   UNL     1      32.228 -14.130 -22.050  0.00  0.00    +0.007 C 
ATOM     13  C   UNL     1      31.929  -7.422 -21.651  0.00  0.00    -0.042 C 
ATOM     14  C   UNL     1      34.541 -12.343 -23.142  0.00  0.00    +0.000 C 
ATOM     15  C   UNL     1      32.028  -8.331 -20.449  0.00  0.00    +0.022 C 
ATOM     16  C   UNL     1      32.191  -7.032 -24.139  0.00  0.00    +0.012 C 
ATOM     17  C   UNL     1      34.180  -7.632 -22.705  0.00  0.00    +0.004 C 
ATOM     18  C   UNL     1      32.094  -5.541 -23.853  0.00  0.00    +0.069 C 
ATOM     19  C   UNL     1      31.234  -6.275 -21.554  0.00  0.00    +0.029 C 
ATOM     20  C   UNL     1      31.207  -5.293 -22.662  0.00  0.00    +0.173 C 
ENDROOT
BRANCH   7  22
ATOM     21  O   UNL     1      34.083 -15.452 -23.681  0.00  0.00    -0.296 OA
ATOM     22  C   UNL     1      33.287 -14.720 -24.267  0.00  0.00    +0.151 C 
ATOM     23  C   UNL     1      33.118 -14.772 -25.760  0.00  0.00    +0.072 C 
ENDBRANCH   7  22
TORSDOF 1
ENDMDL
MODEL 5
REMARK VINA RESULT:      -7.7     14.914     17.209
REMARK  Name = 5994
REMARK  1 active torsions:
REMARK  status: ('A' for Active; 'I' for Inactive)
REMARK    1  A    between atoms: C_7  and  C_22
REMARK                            x       y       z     vdW  Elec       q    Type
REMARK                         _______ _______ _______ _____ _____    ______ ____
ROOT
ATOM      1  O   UNL     1      33.436 -15.189 -20.277  0.00  0.00    -0.291 OA
ATOM      2  C   UNL     1      32.246  -7.770 -21.670  0.00  0.00    +0.000 C 
ATOM      3  C   UNL     1      31.997  -7.356 -23.136  0.00  0.00    +0.007 C 
ATOM      4  C   UNL     1      31.675  -9.152 -21.334  0.00  0.00    +0.001 C 
ATOM      5  C   UNL     1      32.345 -10.213 -22.262  0.00  0.00    +0.003 C 
ATOM      6  C   UNL     1      31.854 -11.682 -21.968  0.00  0.00    +0.016 C 
ATOM      7  C   UNL     1      32.626  -5.946 -23.107  0.00  0.00    +0.058 C 
ATOM      8  C   UNL     1      32.723  -8.366 -24.036  0.00  0.00    +0.000 C 
ATOM      9  C   UNL     1      32.260  -9.808 -23.760  0.00  0.00    +0.000 C 
ATOM     10  C   UNL     1      31.770  -6.558 -20.876  0.00  0.00    +0.000 C 
ATOM     11  C   UNL     1      31.913  -9.515 -19.863  0.00  0.00    +0.004 C 
ATOM     12  C   UNL     1      32.186  -5.361 -21.749  0.00  0.00    +0.007 C 
ATOM     13  C   UNL     1      31.941 -11.958 -20.461  0.00  0.00    -0.042 C 
ATOM     14  C   UNL     1      30.497  -7.291 -23.525  0.00  0.00    +0.000 C 
ATOM     15  C   UNL     1      31.372 -10.902 -19.543  0.00  0.00    +0.022 C 
ATOM     16  C   UNL     1      32.774 -12.670 -22.743  0.00  0.00    +0.012 C 
ATOM     17  C   UNL     1      30.391 -11.903 -22.415  0.00  0.00    +0.004 C 
ATOM     18  C   UNL     1      32.660 -14.110 -22.268  0.00  0.00    +0.069 C 
ATOM     19  C   UNL     1      32.465 -13.078 -19.932  0.00  0.00    +0.029 C 
ATOM     20  C   UNL     1      32.923 -14.196 -20.788  0.00  0.00    +0.173 C 
ENDROOT
BRANCH   7  22
ATOM     21  O   UNL     1      31.416  -4.162 -24.128  0.00  0.00    -0.296 OA
ATOM     22  C   UNL     1      32.235  -5.070 -24.258  0.00  0.00    +0.151 C 
ATOM     23  C   UNL     1      32.895  -5.356 -25.579  0.00  0.00    +0.072 C 
ENDBRANCH   7  22
TORSDOF 1
ENDMDL
MODEL 6
REMARK VINA RESULT:      -7.0     14.433     17.197
REMARK  Name = 5994
REMARK  1 active torsions:
REMARK  status: ('A' for Active; 'I' for Inactive)
REMARK    1  A    between atoms: C_7  and  C_22
REMARK                            x       y       z     vdW  Elec       q    Type
REMARK                         _______ _______ _______ _____ _____    ______ ____
ROOT
ATOM      1  O   UNL     1      30.638  -4.714 -23.649  0.00  0.00    -0.291 OA
ATOM      2  C   UNL     1      32.272 -12.096 -22.539  0.00  0.00    +0.000 C 
ATOM      3  C   UNL     1      33.199 -12.778 -23.569  0.00  0.00    +0.007 C 
ATOM      4  C   UNL     1      32.624 -10.623 -22.305  0.00  0.00    +0.001 C 
ATOM      5  C   UNL     1      32.501  -9.854 -23.657  0.00  0.00    +0.003 C 
ATOM      6  C   UNL     1      32.803  -8.313 -23.516  0.00  0.00    +0.016 C 
ATOM      7  C   UNL     1      32.620 -14.209 -23.515  0.00  0.00    +0.058 C 
ATOM      8  C   UNL     1      33.013 -12.059 -24.912  0.00  0.00    +0.000 C 
ATOM      9  C   UNL     1      33.300 -10.551 -24.793  0.00  0.00    +0.000 C 
ATOM     10  C   UNL     1      32.289 -13.059 -21.358  0.00  0.00    +0.000 C 
ATOM     11  C   UNL     1      31.704  -9.988 -21.254  0.00  0.00    +0.004 C 
ATOM     12  C   UNL     1      32.336 -14.449 -22.018  0.00  0.00    +0.007 C 
ATOM     13  C   UNL     1      31.997  -7.739 -22.343  0.00  0.00    -0.042 C 
ATOM     14  C   UNL     1      34.698 -12.768 -23.171  0.00  0.00    +0.000 C 
ATOM     15  C   UNL     1      32.036  -8.516 -21.048  0.00  0.00    +0.022 C 
ATOM     16  C   UNL     1      32.388  -7.609 -24.841  0.00  0.00    +0.012 C 
ATOM     17  C   UNL     1      34.301  -8.040 -23.251  0.00  0.00    +0.004 C 
ATOM     18  C   UNL     1      32.272  -6.098 -24.719  0.00  0.00    +0.069 C 
ATOM     19  C   UNL     1      31.295  -6.594 -22.403  0.00  0.00    +0.029 C 
ATOM     20  C   UNL     1      31.324  -5.734 -23.608  0.00  0.00    +0.173 C 
ENDROOT
BRANCH   7  22
ATOM     21  O   UNL     1      33.774 -15.285 -25.304  0.00  0.00    -0.296 OA
ATOM     22  C   UNL     1      33.512 -15.260 -24.102  0.00  0.00    +0.151 C 
ATOM     23  C   UNL     1      34.070 -16.281 -23.150  0.00  0.00    +0.072 C 
ENDBRANCH   7  22
TORSDOF 1
ENDMDL
MODEL 7
REMARK VINA RESULT:      -7.0      3.583      5.749
REMARK  Name = 5994
REMARK  1 active torsions:
REMARK  status: ('A' for Active; 'I' for Inactive)
REMARK    1  A    between atoms: C_7  and  C_22
REMARK                            x       y       z     vdW  Elec       q    Type
REMARK                         _______ _______ _______ _____ _____    ______ ____
ROOT
ATOM      1  O   UNL     1      36.184 -18.614 -21.591  0.00  0.00    -0.291 OA
ATOM      2  C   UNL     1      34.261 -22.885 -15.553  0.00  0.00    +0.000 C 
ATOM      3  C   UNL     1      32.876 -23.566 -15.580  0.00  0.00    +0.007 C 
ATOM      4  C   UNL     1      34.905 -22.785 -16.940  0.00  0.00    +0.001 C 
ATOM      5  C   UNL     1      33.968 -21.952 -17.871  0.00  0.00    +0.003 C 
ATOM      6  C   UNL     1      34.562 -21.754 -19.318  0.00  0.00    +0.016 C 
ATOM      7  C   UNL     1      32.562 -23.553 -14.068  0.00  0.00    +0.058 C 
ATOM      8  C   UNL     1      31.946 -22.698 -16.439  0.00  0.00    +0.000 C 
ATOM      9  C   UNL     1      32.511 -22.490 -17.855  0.00  0.00    +0.000 C 
ATOM     10  C   UNL     1      34.999 -23.630 -14.446  0.00  0.00    +0.000 C 
ATOM     11  C   UNL     1      36.291 -22.133 -16.869  0.00  0.00    +0.004 C 
ATOM     12  C   UNL     1      33.905 -23.904 -13.397  0.00  0.00    +0.007 C 
ATOM     13  C   UNL     1      36.012 -21.265 -19.214  0.00  0.00    -0.042 C 
ATOM     14  C   UNL     1      32.899 -25.016 -16.132  0.00  0.00    +0.000 C 
ATOM     15  C   UNL     1      36.912 -22.006 -18.254  0.00  0.00    +0.022 C 
ATOM     16  C   UNL     1      33.695 -20.697 -20.062  0.00  0.00    +0.012 C 
ATOM     17  C   UNL     1      34.555 -23.069 -20.131  0.00  0.00    +0.004 C 
ATOM     18  C   UNL     1      34.356 -20.135 -21.311  0.00  0.00    +0.069 C 
ATOM     19  C   UNL     1      36.515 -20.247 -19.936  0.00  0.00    +0.029 C 
ATOM     20  C   UNL     1      35.711 -19.569 -20.977  0.00  0.00    +0.173 C 
ENDROOT
BRANCH   7  22
ATOM     21  O   UNL     1      31.666 -25.436 -12.911  0.00  0.00    -0.296 OA
ATOM     22  C   UNL     1      31.459 -24.480 -13.657  0.00  0.00    +0.151 C 
ATOM     23  C   UNL     1      30.088 -24.182 -14.199  0.00  0.00    +0.072 C 
ENDBRANCH   7  22
TORSDOF 1
ENDMDL
