MODEL 1
REMARK VINA RESULT:     -10.6      0.000      0.000
REMARK  Name = 62278
REMARK  7 active torsions:
REMARK  status: ('A' for Active; 'I' for Inactive)
REMARK    1  A    between atoms: N_1  and  C_19
REMARK    2  A    between atoms: C_2  and  N_9
REMARK    3  A    between atoms: N_9  and  C_11
REMARK    4  A    between atoms: C_10  and  C_17
REMARK    5  A    between atoms: C_19  and  C_20
REMARK    6  A    between atoms: C_20  and  C_21
REMARK    7  A    between atoms: C_20  and  O_27
REMARK                            x       y       z     vdW  Elec       q    Type
REMARK                         _______ _______ _______ _____ _____    ______ ____
ROOT
ATOM      1  N   UNL     1      35.597 -17.258 -22.784  0.00  0.00    +0.389 N 
ATOM      2  C   UNL     1      33.474 -15.246 -22.845  0.00  0.00    +0.076 C 
ATOM      3  C   UNL     1      34.037 -15.876 -24.118  0.00  0.00    -0.003 C 
ATOM      4  C   UNL     1      34.511 -15.305 -21.723  0.00  0.00    -0.003 C 
ATOM      5  C   UNL     1      34.584 -17.279 -23.848  0.00  0.00    -0.076 C 
ATOM      6  C   UNL     1      35.041 -16.728 -21.532  0.00  0.00    -0.076 C 
ATOM      7  H   UNL     1      36.351 -16.639 -23.081  0.00  0.00    -0.080 HD
ENDROOT
BRANCH   2   9
ATOM      8  O   UNL     1      32.155 -13.432 -20.940  0.00  0.00    -0.275 OA
ATOM      9  N   UNL     1      33.050 -13.890 -23.087  0.00  0.00    -0.260 N 
ATOM     10  C   UNL     1      32.415 -13.083 -22.095  0.00  0.00    +0.229 C 
BRANCH   9  11
ATOM     11  C   UNL     1      33.281 -13.313 -24.409  0.00  0.00    +0.054 C 
ATOM     12  C   UNL     1      34.015 -12.165 -24.479  0.00  0.00    +0.015 C 
ATOM     13  C   UNL     1      32.746 -13.960 -25.483  0.00  0.00    +0.015 C 
ATOM     14  C   UNL     1      34.234 -11.615 -25.741  0.00  0.00    +0.001 C 
ATOM     15  C   UNL     1      32.965 -13.409 -26.745  0.00  0.00    +0.001 C 
ATOM     16  C   UNL     1      33.709 -12.236 -26.874  0.00  0.00    +0.000 C 
ENDBRANCH   9  11
BRANCH  10  17
ATOM     17  C   UNL     1      32.000 -11.691 -22.564  0.00  0.00    +0.086 C 
ATOM     18  C   UNL     1      30.899 -11.085 -21.709  0.00  0.00    +0.010 C 
ENDBRANCH  10  17
ENDBRANCH   2   9
BRANCH   1  19
ATOM     19  C   UNL     1      36.145 -18.598 -22.575  0.00  0.00    -0.043 C 
BRANCH  19  20
ATOM     20  C   UNL     1      36.405 -18.854 -21.085  0.00  0.00    +0.112 C 
BRANCH  20  21
ATOM     21  C   UNL     1      35.482 -19.918 -20.535  0.00  0.00    +0.002 C 
ATOM     22  C   UNL     1      36.022 -20.996 -19.855  0.00  0.00    -0.002 C 
ATOM     23  C   UNL     1      34.117 -19.791 -20.722  0.00  0.00    -0.002 C 
ATOM     24  C   UNL     1      35.170 -21.978 -19.348  0.00  0.00    -0.000 C 
ATOM     25  C   UNL     1      33.265 -20.772 -20.215  0.00  0.00    -0.000 C 
ATOM     26  C   UNL     1      33.792 -21.866 -19.528  0.00  0.00    -0.000 C 
ENDBRANCH  20  21
BRANCH  20  27
ATOM     27  O   UNL     1      37.752 -19.284 -20.886  0.00  0.00    -0.382 OA
ATOM     28  H   UNL     1      38.295 -18.530 -20.609  0.00  0.00    +0.211 HD
ENDBRANCH  20  27
ENDBRANCH  19  20
ENDBRANCH   1  19
TORSDOF 7
ENDMDL
MODEL 2
REMARK VINA RESULT:     -10.6      0.013      1.340
REMARK  Name = 62278
REMARK  7 active torsions:
REMARK  status: ('A' for Active; 'I' for Inactive)
REMARK    1  A    between atoms: N_1  and  C_19
REMARK    2  A    between atoms: C_2  and  N_9
REMARK    3  A    between atoms: N_9  and  C_11
REMARK    4  A    between atoms: C_10  and  C_17
REMARK    5  A    between atoms: C_19  and  C_20
REMARK    6  A    between atoms: C_20  and  C_21
REMARK    7  A    between atoms: C_20  and  O_27
REMARK                            x       y       z     vdW  Elec       q    Type
REMARK                         _______ _______ _______ _____ _____    ______ ____
ROOT
ATOM      1  N   UNL     1      35.595 -17.256 -22.783  0.00  0.00    +0.389 N 
ATOM      2  C   UNL     1      33.473 -15.241 -22.840  0.00  0.00    +0.076 C 
ATOM      3  C   UNL     1      34.031 -15.874 -24.113  0.00  0.00    -0.003 C 
ATOM      4  C   UNL     1      34.515 -15.299 -21.722  0.00  0.00    -0.003 C 
ATOM      5  C   UNL     1      34.577 -17.278 -23.843  0.00  0.00    -0.076 C 
ATOM      6  C   UNL     1      35.044 -16.722 -21.530  0.00  0.00    -0.076 C 
ATOM      7  H   UNL     1      36.348 -16.638 -23.084  0.00  0.00    -0.080 HD
ENDROOT
BRANCH   2   9
ATOM      8  O   UNL     1      32.158 -13.424 -20.935  0.00  0.00    -0.275 OA
ATOM      9  N   UNL     1      33.050 -13.885 -23.083  0.00  0.00    -0.260 N 
ATOM     10  C   UNL     1      32.416 -13.076 -22.091  0.00  0.00    +0.229 C 
BRANCH   9  11
ATOM     11  C   UNL     1      33.279 -13.310 -24.406  0.00  0.00    +0.054 C 
ATOM     12  C   UNL     1      32.746 -13.961 -25.479  0.00  0.00    +0.015 C 
ATOM     13  C   UNL     1      34.012 -12.163 -24.478  0.00  0.00    +0.015 C 
ATOM     14  C   UNL     1      32.966 -13.412 -26.742  0.00  0.00    +0.001 C 
ATOM     15  C   UNL     1      34.232 -11.614 -25.741  0.00  0.00    +0.001 C 
ATOM     16  C   UNL     1      33.709 -12.239 -26.873  0.00  0.00    +0.000 C 
ENDBRANCH   9  11
BRANCH  10  17
ATOM     17  C   UNL     1      32.002 -11.685 -22.562  0.00  0.00    +0.086 C 
ATOM     18  C   UNL     1      30.892 -11.082 -21.714  0.00  0.00    +0.010 C 
ENDBRANCH  10  17
ENDBRANCH   2   9
BRANCH   1  19
ATOM     19  C   UNL     1      36.142 -18.595 -22.573  0.00  0.00    -0.043 C 
BRANCH  19  20
ATOM     20  C   UNL     1      36.395 -18.853 -21.082  0.00  0.00    +0.112 C 
BRANCH  20  21
ATOM     21  C   UNL     1      35.465 -19.916 -20.537  0.00  0.00    +0.002 C 
ATOM     22  C   UNL     1      34.101 -19.783 -20.728  0.00  0.00    -0.002 C 
ATOM     23  C   UNL     1      36.000 -20.998 -19.860  0.00  0.00    -0.002 C 
ATOM     24  C   UNL     1      33.245 -20.763 -20.225  0.00  0.00    -0.000 C 
ATOM     25  C   UNL     1      35.145 -21.978 -19.358  0.00  0.00    -0.000 C 
ATOM     26  C   UNL     1      33.766 -21.861 -19.541  0.00  0.00    -0.000 C 
ENDBRANCH  20  21
BRANCH  20  27
ATOM     27  O   UNL     1      37.738 -19.288 -20.877  0.00  0.00    -0.382 OA
ATOM     28  H   UNL     1      38.122 -19.563 -21.724  0.00  0.00    +0.211 HD
ENDBRANCH  20  27
ENDBRANCH  19  20
ENDBRANCH   1  19
TORSDOF 7
ENDMDL
MODEL 3
REMARK VINA RESULT:     -10.5      3.352      5.986
REMARK  Name = 62278
REMARK  7 active torsions:
REMARK  status: ('A' for Active; 'I' for Inactive)
REMARK    1  A    between atoms: N_1  and  C_19
REMARK    2  A    between atoms: C_2  and  N_9
REMARK    3  A    between atoms: N_9  and  C_11
REMARK    4  A    between atoms: C_10  and  C_17
REMARK    5  A    between atoms: C_19  and  C_20
REMARK    6  A    between atoms: C_20  and  C_21
REMARK    7  A    between atoms: C_20  and  O_27
REMARK                            x       y       z     vdW  Elec       q    Type
REMARK                         _______ _______ _______ _____ _____    ______ ____
ROOT
ATOM      1  N   UNL     1      34.106 -22.113 -19.709  0.00  0.00    +0.389 N 
ATOM      2  C   UNL     1      34.222 -19.305 -20.525  0.00  0.00    +0.076 C 
ATOM      3  C   UNL     1      32.945 -20.137 -20.644  0.00  0.00    -0.003 C 
ATOM      4  C   UNL     1      35.450 -20.216 -20.555  0.00  0.00    -0.003 C 
ATOM      5  C   UNL     1      32.914 -21.259 -19.604  0.00  0.00    -0.076 C 
ATOM      6  C   UNL     1      35.336 -21.335 -19.516  0.00  0.00    -0.076 C 
ATOM      7  H   UNL     1      34.126 -22.507 -20.650  0.00  0.00    -0.080 HD
ENDROOT
BRANCH   2   9
ATOM      8  O   UNL     1      35.020 -19.728 -23.326  0.00  0.00    -0.275 OA
ATOM      9  N   UNL     1      34.287 -18.314 -21.569  0.00  0.00    -0.260 N 
ATOM     10  C   UNL     1      34.688 -18.615 -22.906  0.00  0.00    +0.229 C 
BRANCH   9  11
ATOM     11  C   UNL     1      33.927 -16.936 -21.245  0.00  0.00    +0.054 C 
ATOM     12  C   UNL     1      34.941 -16.060 -20.994  0.00  0.00    +0.015 C 
ATOM     13  C   UNL     1      32.601 -16.620 -21.215  0.00  0.00    +0.015 C 
ATOM     14  C   UNL     1      34.596 -14.744 -20.684  0.00  0.00    +0.001 C 
ATOM     15  C   UNL     1      32.257 -15.304 -20.906  0.00  0.00    +0.001 C 
ATOM     16  C   UNL     1      33.255 -14.366 -20.640  0.00  0.00    +0.000 C 
ENDBRANCH   9  11
BRANCH  10  17
ATOM     17  C   UNL     1      34.738 -17.417 -23.850  0.00  0.00    +0.086 C 
ATOM     18  C   UNL     1      34.359 -17.776 -25.278  0.00  0.00    +0.010 C 
ENDBRANCH  10  17
ENDBRANCH   2   9
BRANCH   1  19
ATOM     19  C   UNL     1      34.036 -23.208 -18.743  0.00  0.00    -0.043 C 
BRANCH  19  20
ATOM     20  C   UNL     1      34.311 -22.700 -17.322  0.00  0.00    +0.112 C 
BRANCH  20  21
ATOM     21  C   UNL     1      33.237 -23.145 -16.355  0.00  0.00    +0.002 C 
ATOM     22  C   UNL     1      31.911 -23.107 -16.752  0.00  0.00    -0.002 C 
ATOM     23  C   UNL     1      33.602 -23.583 -15.093  0.00  0.00    -0.002 C 
ATOM     24  C   UNL     1      30.921 -23.517 -15.860  0.00  0.00    -0.000 C 
ATOM     25  C   UNL     1      32.612 -23.994 -14.202  0.00  0.00    -0.000 C 
ATOM     26  C   UNL     1      31.271 -23.961 -14.585  0.00  0.00    -0.000 C 
ENDBRANCH  20  21
BRANCH  20  27
ATOM     27  O   UNL     1      35.565 -23.196 -16.855  0.00  0.00    -0.382 OA
ATOM     28  H   UNL     1      36.283 -22.650 -17.213  0.00  0.00    +0.211 HD
ENDBRANCH  20  27
ENDBRANCH  19  20
ENDBRANCH   1  19
TORSDOF 7
ENDMDL
MODEL 4
REMARK VINA RESULT:     -10.5      1.838      3.357
REMARK  Name = 62278
REMARK  7 active torsions:
REMARK  status: ('A' for Active; 'I' for Inactive)
REMARK    1  A    between atoms: N_1  and  C_19
REMARK    2  A    between atoms: C_2  and  N_9
REMARK    3  A    between atoms: N_9  and  C_11
REMARK    4  A    between atoms: C_10  and  C_17
REMARK    5  A    between atoms: C_19  and  C_20
REMARK    6  A    between atoms: C_20  and  C_21
REMARK    7  A    between atoms: C_20  and  O_27
REMARK                            x       y       z     vdW  Elec       q    Type
REMARK                         _______ _______ _______ _____ _____    ______ ____
ROOT
ATOM      1  N   UNL     1      34.896 -18.081 -21.827  0.00  0.00    +0.389 N 
ATOM      2  C   UNL     1      34.622 -15.675 -23.470  0.00  0.00    +0.076 C 
ATOM      3  C   UNL     1      34.070 -15.758 -22.047  0.00  0.00    -0.003 C 
ATOM      4  C   UNL     1      34.722 -17.074 -24.080  0.00  0.00    -0.003 C 
ATOM      5  C   UNL     1      34.867 -16.752 -21.199  0.00  0.00    -0.076 C 
ATOM      6  C   UNL     1      35.499 -18.024 -23.165  0.00  0.00    -0.076 C 
ATOM      7  H   UNL     1      33.932 -18.400 -21.929  0.00  0.00    -0.080 HD
ENDROOT
BRANCH   2   9
ATOM      8  O   UNL     1      33.743 -16.159 -26.236  0.00  0.00    -0.275 OA
ATOM      9  N   UNL     1      33.807 -14.811 -24.287  0.00  0.00    -0.260 N 
ATOM     10  C   UNL     1      33.430 -15.133 -25.626  0.00  0.00    +0.229 C 
BRANCH   9  11
ATOM     11  C   UNL     1      33.345 -13.547 -23.719  0.00  0.00    +0.054 C 
ATOM     12  C   UNL     1      32.319 -13.594 -22.822  0.00  0.00    +0.015 C 
ATOM     13  C   UNL     1      33.970 -12.406 -24.126  0.00  0.00    +0.015 C 
ATOM     14  C   UNL     1      31.878 -12.386 -22.282  0.00  0.00    +0.001 C 
ATOM     15  C   UNL     1      33.530 -11.198 -23.586  0.00  0.00    +0.001 C 
ATOM     16  C   UNL     1      32.483 -11.189 -22.663  0.00  0.00    +0.000 C 
ENDBRANCH   9  11
BRANCH  10  17
ATOM     17  C   UNL     1      32.605 -14.065 -26.338  0.00  0.00    +0.086 C 
ATOM     18  C   UNL     1      33.372 -13.376 -27.456  0.00  0.00    +0.010 C 
ENDBRANCH  10  17
ENDBRANCH   2   9
BRANCH   1  19
ATOM     19  C   UNL     1      35.618 -19.029 -20.980  0.00  0.00    -0.043 C 
BRANCH  19  20
ATOM     20  C   UNL     1      34.905 -20.387 -20.953  0.00  0.00    +0.112 C 
BRANCH  20  21
ATOM     21  C   UNL     1      35.179 -21.132 -19.664  0.00  0.00    +0.002 C 
ATOM     22  C   UNL     1      34.171 -21.891 -19.095  0.00  0.00    -0.002 C 
ATOM     23  C   UNL     1      36.432 -21.039 -19.083  0.00  0.00    -0.002 C 
ATOM     24  C   UNL     1      34.424 -22.576 -17.906  0.00  0.00    -0.000 C 
ATOM     25  C   UNL     1      36.685 -21.725 -17.896  0.00  0.00    -0.000 C 
ATOM     26  C   UNL     1      35.681 -22.494 -17.307  0.00  0.00    -0.000 C 
ENDBRANCH  20  21
BRANCH  20  27
ATOM     27  O   UNL     1      33.494 -20.208 -21.073  0.00  0.00    -0.382 OA
ATOM     28  H   UNL     1      33.290 -19.260 -21.100  0.00  0.00    +0.211 HD
ENDBRANCH  20  27
ENDBRANCH  19  20
ENDBRANCH   1  19
TORSDOF 7
ENDMDL
MODEL 5
REMARK VINA RESULT:     -10.5      2.688      8.681
REMARK  Name = 62278
REMARK  7 active torsions:
REMARK  status: ('A' for Active; 'I' for Inactive)
REMARK    1  A    between atoms: N_1  and  C_19
REMARK    2  A    between atoms: C_2  and  N_9
REMARK    3  A    between atoms: N_9  and  C_11
REMARK    4  A    between atoms: C_10  and  C_17
REMARK    5  A    between atoms: C_19  and  C_20
REMARK    6  A    between atoms: C_20  and  C_21
REMARK    7  A    between atoms: C_20  and  O_27
REMARK                            x       y       z     vdW  Elec       q    Type
REMARK                         _______ _______ _______ _____ _____    ______ ____
ROOT
ATOM      1  N   UNL     1      32.696 -13.818 -20.956  0.00  0.00    +0.389 N 
ATOM      2  C   UNL     1      34.229 -16.302 -21.158  0.00  0.00    +0.076 C 
ATOM      3  C   UNL     1      34.682 -15.007 -21.830  0.00  0.00    -0.003 C 
ATOM      4  C   UNL     1      32.712 -16.292 -20.961  0.00  0.00    -0.003 C 
ATOM      5  C   UNL     1      34.160 -13.779 -21.081  0.00  0.00    -0.076 C 
ATOM      6  C   UNL     1      32.255 -15.022 -20.239  0.00  0.00    -0.076 C 
ATOM      7  H   UNL     1      32.302 -13.849 -21.896  0.00  0.00    -0.080 HD
ENDROOT
BRANCH   2   9
ATOM      8  O   UNL     1      34.517 -16.476 -24.081  0.00  0.00    -0.275 OA
ATOM      9  N   UNL     1      34.644 -17.450 -21.923  0.00  0.00    -0.260 N 
ATOM     10  C   UNL     1      34.755 -17.439 -23.347  0.00  0.00    +0.229 C 
BRANCH   9  11
ATOM     11  C   UNL     1      34.966 -18.684 -21.211  0.00  0.00    +0.054 C 
ATOM     12  C   UNL     1      33.932 -19.504 -20.867  0.00  0.00    +0.015 C 
ATOM     13  C   UNL     1      36.278 -18.932 -20.937  0.00  0.00    +0.015 C 
ATOM     14  C   UNL     1      34.240 -20.681 -20.186  0.00  0.00    +0.001 C 
ATOM     15  C   UNL     1      36.586 -20.109 -20.256  0.00  0.00    +0.001 C 
ATOM     16  C   UNL     1      35.567 -20.984 -19.881  0.00  0.00    +0.000 C 
ENDBRANCH   9  11
BRANCH  10  17
ATOM     17  C   UNL     1      35.163 -18.770 -23.972  0.00  0.00    +0.086 C 
ATOM     18  C   UNL     1      34.215 -19.218 -25.075  0.00  0.00    +0.010 C 
ENDBRANCH  10  17
ENDBRANCH   2   9
BRANCH   1  19
ATOM     19  C   UNL     1      32.209 -12.614 -20.283  0.00  0.00    -0.043 C 
BRANCH  19  20
ATOM     20  C   UNL     1      31.283 -11.811 -21.204  0.00  0.00    +0.112 C 
BRANCH  20  21
ATOM     21  C   UNL     1      31.640 -10.341 -21.206  0.00  0.00    +0.002 C 
ATOM     22  C   UNL     1      31.721  -9.666 -22.412  0.00  0.00    -0.002 C 
ATOM     23  C   UNL     1      31.878  -9.702 -20.001  0.00  0.00    -0.002 C 
ATOM     24  C   UNL     1      32.051  -8.311 -22.413  0.00  0.00    -0.000 C 
ATOM     25  C   UNL     1      32.207  -8.347 -20.002  0.00  0.00    -0.000 C 
ATOM     26  C   UNL     1      32.293  -7.651 -21.208  0.00  0.00    -0.000 C 
ENDBRANCH  20  21
BRANCH  20  27
ATOM     27  O   UNL     1      31.378 -12.295 -22.544  0.00  0.00    -0.382 OA
ATOM     28  H   UNL     1      31.311 -11.550 -23.162  0.00  0.00    +0.211 HD
ENDBRANCH  20  27
ENDBRANCH  19  20
ENDBRANCH   1  19
TORSDOF 7
ENDMDL
MODEL 6
REMARK VINA RESULT:     -10.5      3.153      5.682
REMARK  Name = 62278
REMARK  7 active torsions:
REMARK  status: ('A' for Active; 'I' for Inactive)
REMARK    1  A    between atoms: N_1  and  C_19
REMARK    2  A    between atoms: C_2  and  N_9
REMARK    3  A    between atoms: N_9  and  C_11
REMARK    4  A    between atoms: C_10  and  C_17
REMARK    5  A    between atoms: C_19  and  C_20
REMARK    6  A    between atoms: C_20  and  C_21
REMARK    7  A    between atoms: C_20  and  O_27
REMARK                            x       y       z     vdW  Elec       q    Type
REMARK                         _______ _______ _______ _____ _____    ______ ____
ROOT
ATOM      1  N   UNL     1      32.912 -13.212 -22.282  0.00  0.00    +0.389 N 
ATOM      2  C   UNL     1      32.715 -10.468 -23.279  0.00  0.00    +0.076 C 
ATOM      3  C   UNL     1      33.745 -11.460 -23.818  0.00  0.00    -0.003 C 
ATOM      4  C   UNL     1      32.309 -10.852 -21.855  0.00  0.00    -0.003 C 
ATOM      5  C   UNL     1      33.254 -12.902 -23.678  0.00  0.00    -0.076 C 
ATOM      6  C   UNL     1      31.864 -12.314 -21.780  0.00  0.00    -0.076 C 
ATOM      7  H   UNL     1      33.748 -13.069 -21.716  0.00  0.00    -0.080 HD
ENDROOT
BRANCH   2   9
ATOM      8  O   UNL     1      35.323  -9.594 -24.325  0.00  0.00    -0.275 OA
ATOM      9  N   UNL     1      33.225  -9.121 -23.326  0.00  0.00    -0.260 N 
ATOM     10  C   UNL     1      34.510  -8.793 -23.856  0.00  0.00    +0.229 C 
BRANCH   9  11
ATOM     11  C   UNL     1      32.390  -8.040 -22.808  0.00  0.00    +0.054 C 
ATOM     12  C   UNL     1      31.371  -7.595 -23.597  0.00  0.00    +0.015 C 
ATOM     13  C   UNL     1      32.687  -7.549 -21.572  0.00  0.00    +0.015 C 
ATOM     14  C   UNL     1      30.575  -6.563 -23.103  0.00  0.00    +0.001 C 
ATOM     15  C   UNL     1      31.891  -6.517 -21.077  0.00  0.00    +0.001 C 
ATOM     16  C   UNL     1      30.834  -6.024 -21.843  0.00  0.00    +0.000 C 
ENDBRANCH   9  11
BRANCH  10  17
ATOM     17  C   UNL     1      34.884  -7.316 -23.771  0.00  0.00    +0.086 C 
ATOM     18  C   UNL     1      34.608  -6.563 -25.063  0.00  0.00    +0.010 C 
ENDBRANCH  10  17
ENDBRANCH   2   9
BRANCH   1  19
ATOM     19  C   UNL     1      32.493 -14.608 -22.158  0.00  0.00    -0.043 C 
BRANCH  19  20
ATOM     20  C   UNL     1      33.474 -15.395 -21.279  0.00  0.00    +0.112 C 
BRANCH  20  21
ATOM     21  C   UNL     1      34.119 -16.528 -22.044  0.00  0.00    +0.002 C 
ATOM     22  C   UNL     1      34.398 -16.363 -23.390  0.00  0.00    -0.002 C 
ATOM     23  C   UNL     1      34.418 -17.707 -21.382  0.00  0.00    -0.002 C 
ATOM     24  C   UNL     1      34.993 -17.409 -24.096  0.00  0.00    -0.000 C 
ATOM     25  C   UNL     1      35.014 -18.752 -22.087  0.00  0.00    -0.000 C 
ATOM     26  C   UNL     1      35.302 -18.603 -23.444  0.00  0.00    -0.000 C 
ENDBRANCH  20  21
BRANCH  20  27
ATOM     27  O   UNL     1      34.507 -14.535 -20.799  0.00  0.00    -0.382 OA
ATOM     28  H   UNL     1      35.347 -14.773 -21.222  0.00  0.00    +0.211 HD
ENDBRANCH  20  27
ENDBRANCH  19  20
ENDBRANCH   1  19
TORSDOF 7
ENDMDL
MODEL 7
REMARK VINA RESULT:     -10.5      1.252      2.097
REMARK  Name = 62278
REMARK  7 active torsions:
REMARK  status: ('A' for Active; 'I' for Inactive)
REMARK    1  A    between atoms: N_1  and  C_19
REMARK    2  A    between atoms: C_2  and  N_9
REMARK    3  A    between atoms: N_9  and  C_11
REMARK    4  A    between atoms: C_10  and  C_17
REMARK    5  A    between atoms: C_19  and  C_20
REMARK    6  A    between atoms: C_20  and  C_21
REMARK    7  A    between atoms: C_20  and  O_27
REMARK                            x       y       z     vdW  Elec       q    Type
REMARK                         _______ _______ _______ _____ _____    ______ ____
ROOT
ATOM      1  N   UNL     1      34.832 -16.205 -23.393  0.00  0.00    +0.389 N 
ATOM      2  C   UNL     1      33.169 -13.803 -23.218  0.00  0.00    +0.076 C 
ATOM      3  C   UNL     1      33.532 -14.449 -24.555  0.00  0.00    -0.003 C 
ATOM      4  C   UNL     1      34.222 -14.147 -22.163  0.00  0.00    -0.003 C 
ATOM      5  C   UNL     1      33.789 -15.949 -24.396  0.00  0.00    -0.076 C 
ATOM      6  C   UNL     1      34.455 -15.657 -22.083  0.00  0.00    -0.076 C 
ATOM      7  H   UNL     1      35.683 -15.733 -23.698  0.00  0.00    -0.080 HD
ENDROOT
BRANCH   2   9
ATOM      8  O   UNL     1      31.363 -12.045 -21.700  0.00  0.00    -0.275 OA
ATOM      9  N   UNL     1      33.024 -12.377 -23.359  0.00  0.00    -0.260 N 
ATOM     10  C   UNL     1      32.116 -11.604 -22.573  0.00  0.00    +0.229 C 
BRANCH   9  11
ATOM     11  C   UNL     1      33.843 -11.687 -24.353  0.00  0.00    +0.054 C 
ATOM     12  C   UNL     1      33.784 -12.133 -25.640  0.00  0.00    +0.015 C 
ATOM     13  C   UNL     1      34.613 -10.647 -23.925  0.00  0.00    +0.015 C 
ATOM     14  C   UNL     1      34.567 -11.475 -26.588  0.00  0.00    +0.001 C 
ATOM     15  C   UNL     1      35.396  -9.988 -24.873  0.00  0.00    +0.001 C 
ATOM     16  C   UNL     1      35.373 -10.403 -26.205  0.00  0.00    +0.000 C 
ENDBRANCH   9  11
BRANCH  10  17
ATOM     17  C   UNL     1      32.077 -10.116 -22.909  0.00  0.00    +0.086 C 
ATOM     18  C   UNL     1      31.950  -9.237 -21.675  0.00  0.00    +0.010 C 
ENDBRANCH  10  17
ENDBRANCH   2   9
BRANCH   1  19
ATOM     19  C   UNL     1      35.101 -17.639 -23.291  0.00  0.00    -0.043 C 
BRANCH  19  20
ATOM     20  C   UNL     1      35.811 -17.968 -21.972  0.00  0.00    +0.112 C 
BRANCH  20  21
ATOM     21  C   UNL     1      35.102 -19.072 -21.219  0.00  0.00    +0.002 C 
ATOM     22  C   UNL     1      33.718 -19.093 -21.196  0.00  0.00    -0.002 C 
ATOM     23  C   UNL     1      35.852 -20.037 -20.570  0.00  0.00    -0.002 C 
ATOM     24  C   UNL     1      33.064 -20.111 -20.501  0.00  0.00    -0.000 C 
ATOM     25  C   UNL     1      35.199 -21.055 -19.877  0.00  0.00    -0.000 C 
ATOM     26  C   UNL     1      33.805 -21.093 -19.842  0.00  0.00    -0.000 C 
ENDBRANCH  20  21
BRANCH  20  27
ATOM     27  O   UNL     1      37.151 -18.390 -22.224  0.00  0.00    -0.382 OA
ATOM     28  H   UNL     1      37.393 -19.090 -21.598  0.00  0.00    +0.211 HD
ENDBRANCH  20  27
ENDBRANCH  19  20
ENDBRANCH   1  19
TORSDOF 7
ENDMDL
MODEL 8
REMARK VINA RESULT:     -10.1      3.111      5.742
REMARK  Name = 62278
REMARK  7 active torsions:
REMARK  status: ('A' for Active; 'I' for Inactive)
REMARK    1  A    between atoms: N_1  and  C_19
REMARK    2  A    between atoms: C_2  and  N_9
REMARK    3  A    between atoms: N_9  and  C_11
REMARK    4  A    between atoms: C_10  and  C_17
REMARK    5  A    between atoms: C_19  and  C_20
REMARK    6  A    between atoms: C_20  and  C_21
REMARK    7  A    between atoms: C_20  and  O_27
REMARK                            x       y       z     vdW  Elec       q    Type
REMARK                         _______ _______ _______ _____ _____    ______ ____
ROOT
ATOM      1  N   UNL     1      35.486 -20.813 -19.211  0.00  0.00    +0.389 N 
ATOM      2  C   UNL     1      34.953 -19.354 -21.691  0.00  0.00    +0.076 C 
ATOM      3  C   UNL     1      36.292 -19.259 -20.960  0.00  0.00    -0.003 C 
ATOM      4  C   UNL     1      33.842 -19.731 -20.709  0.00  0.00    -0.003 C 
ATOM      5  C   UNL     1      36.577 -20.529 -20.154  0.00  0.00    -0.076 C 
ATOM      6  C   UNL     1      34.208 -20.986 -19.913  0.00  0.00    -0.076 C 
ATOM      7  H   UNL     1      35.397 -20.013 -18.585  0.00  0.00    -0.080 HD
ENDROOT
BRANCH   2   9
ATOM      8  O   UNL     1      35.324 -18.758 -24.549  0.00  0.00    -0.275 OA
ATOM      9  N   UNL     1      34.649 -18.119 -22.367  0.00  0.00    -0.260 N 
ATOM     10  C   UNL     1      34.864 -17.922 -23.765  0.00  0.00    +0.229 C 
BRANCH   9  11
ATOM     11  C   UNL     1      34.094 -17.015 -21.587  0.00  0.00    +0.054 C 
ATOM     12  C   UNL     1      32.746 -16.998 -21.385  0.00  0.00    +0.015 C 
ATOM     13  C   UNL     1      34.962 -16.075 -21.116  0.00  0.00    +0.015 C 
ATOM     14  C   UNL     1      32.217 -15.944 -20.641  0.00  0.00    +0.001 C 
ATOM     15  C   UNL     1      34.434 -15.021 -20.372  0.00  0.00    +0.001 C 
ATOM     16  C   UNL     1      33.061 -14.956 -20.134  0.00  0.00    +0.000 C 
ENDBRANCH   9  11
BRANCH  10  17
ATOM     17  C   UNL     1      34.522 -16.527 -24.280  0.00  0.00    +0.086 C 
ATOM     18  C   UNL     1      33.750 -16.555 -25.591  0.00  0.00    +0.010 C 
ENDBRANCH  10  17
ENDBRANCH   2   9
BRANCH   1  19
ATOM     19  C   UNL     1      35.798 -22.000 -18.415  0.00  0.00    -0.043 C 
BRANCH  19  20
ATOM     20  C   UNL     1      36.152 -21.612 -16.974  0.00  0.00    +0.112 C 
BRANCH  20  21
ATOM     21  C   UNL     1      36.382 -22.833 -16.111  0.00  0.00    +0.002 C 
ATOM     22  C   UNL     1      37.661 -23.110 -15.660  0.00  0.00    -0.002 C 
ATOM     23  C   UNL     1      35.309 -23.646 -15.790  0.00  0.00    -0.002 C 
ATOM     24  C   UNL     1      37.873 -24.237 -14.865  0.00  0.00    -0.000 C 
ATOM     25  C   UNL     1      35.521 -24.771 -14.995  0.00  0.00    -0.000 C 
ATOM     26  C   UNL     1      36.803 -25.067 -14.531  0.00  0.00    -0.000 C 
ENDBRANCH  20  21
BRANCH  20  27
ATOM     27  O   UNL     1      37.339 -20.820 -16.952  0.00  0.00    -0.382 OA
ATOM     28  H   UNL     1      37.335 -20.212 -17.708  0.00  0.00    +0.211 HD
ENDBRANCH  20  27
ENDBRANCH  19  20
ENDBRANCH   1  19
TORSDOF 7
ENDMDL
MODEL 9
REMARK VINA RESULT:     -10.0      3.339      5.320
REMARK  Name = 62278
REMARK  7 active torsions:
REMARK  status: ('A' for Active; 'I' for Inactive)
REMARK    1  A    between atoms: N_1  and  C_19
REMARK    2  A    between atoms: C_2  and  N_9
REMARK    3  A    between atoms: N_9  and  C_11
REMARK    4  A    between atoms: C_10  and  C_17
REMARK    5  A    between atoms: C_19  and  C_20
REMARK    6  A    between atoms: C_20  and  C_21
REMARK    7  A    between atoms: C_20  and  O_27
REMARK                            x       y       z     vdW  Elec       q    Type
REMARK                         _______ _______ _______ _____ _____    ______ ____
ROOT
ATOM      1  N   UNL     1      32.994 -13.081 -22.860  0.00  0.00    +0.389 N 
ATOM      2  C   UNL     1      32.399 -10.217 -22.944  0.00  0.00    +0.076 C 
ATOM      3  C   UNL     1      33.637 -10.813 -23.612  0.00  0.00    -0.003 C 
ATOM      4  C   UNL     1      31.936 -11.115 -21.795  0.00  0.00    -0.003 C 
ATOM      5  C   UNL     1      33.404 -12.271 -24.015  0.00  0.00    -0.076 C 
ATOM      6  C   UNL     1      31.758 -12.562 -22.259  0.00  0.00    -0.076 C 
ATOM      7  H   UNL     1      33.733 -13.025 -22.159  0.00  0.00    -0.080 HD
ENDROOT
BRANCH   2   9
ATOM      8  O   UNL     1      32.319  -9.252 -20.165  0.00  0.00    -0.275 OA
ATOM      9  N   UNL     1      32.660  -8.878 -22.481  0.00  0.00    -0.260 N 
ATOM     10  C   UNL     1      32.597  -8.502 -21.105  0.00  0.00    +0.229 C 
BRANCH   9  11
ATOM     11  C   UNL     1      33.005  -7.855 -23.466  0.00  0.00    +0.054 C 
ATOM     12  C   UNL     1      34.325  -7.677 -23.756  0.00  0.00    +0.015 C 
ATOM     13  C   UNL     1      31.984  -7.147 -24.025  0.00  0.00    +0.015 C 
ATOM     14  C   UNL     1      34.654  -6.700 -24.695  0.00  0.00    +0.001 C 
ATOM     15  C   UNL     1      32.312  -6.170 -24.965  0.00  0.00    +0.001 C 
ATOM     16  C   UNL     1      33.648  -5.946 -25.300  0.00  0.00    +0.000 C 
ENDBRANCH   9  11
BRANCH  10  17
ATOM     17  C   UNL     1      32.859  -7.025 -20.827  0.00  0.00    +0.086 C 
ATOM     18  C   UNL     1      31.580  -6.209 -20.717  0.00  0.00    +0.010 C 
ENDBRANCH  10  17
ENDBRANCH   2   9
BRANCH   1  19
ATOM     19  C   UNL     1      32.825 -14.480 -23.252  0.00  0.00    -0.043 C 
BRANCH  19  20
ATOM     20  C   UNL     1      34.089 -15.010 -23.940  0.00  0.00    +0.112 C 
BRANCH  20  21
ATOM     21  C   UNL     1      34.603 -16.264 -23.267  0.00  0.00    +0.002 C 
ATOM     22  C   UNL     1      34.767 -16.275 -21.893  0.00  0.00    -0.002 C 
ATOM     23  C   UNL     1      34.897 -17.373 -24.041  0.00  0.00    -0.002 C 
ATOM     24  C   UNL     1      35.242 -17.431 -21.273  0.00  0.00    -0.000 C 
ATOM     25  C   UNL     1      35.371 -18.529 -23.422  0.00  0.00    -0.000 C 
ATOM     26  C   UNL     1      35.543 -18.558 -22.037  0.00  0.00    -0.000 C 
ENDBRANCH  20  21
BRANCH  20  27
ATOM     27  O   UNL     1      33.815 -15.317 -25.307  0.00  0.00    -0.382 OA
ATOM     28  H   UNL     1      33.655 -16.270 -25.398  0.00  0.00    +0.211 HD
ENDBRANCH  20  27
ENDBRANCH  19  20
ENDBRANCH   1  19
TORSDOF 7
ENDMDL
