MODEL 1
REMARK VINA RESULT:     -11.7      0.000      0.000
REMARK  Name = 2361
REMARK  1 active torsions:
REMARK  status: ('A' for Active; 'I' for Inactive)
REMARK    1  A    between atoms: C_8  and  C_16
REMARK                            x       y       z     vdW  Elec       q    Type
REMARK                         _______ _______ _______ _____ _____    ______ ____
ROOT
ATOM      1  O   UNL     1      34.646 -17.398 -21.474  0.00  0.00    -0.453 OA
ATOM      2  O   UNL     1      34.113 -18.148 -25.431  0.00  0.00    -0.286 OA
ATOM      3  C   UNL     1      34.176 -16.485 -23.700  0.00  0.00    +0.074 C 
ATOM      4  C   UNL     1      33.896 -15.331 -24.503  0.00  0.00    +0.006 C 
ATOM      5  C   UNL     1      34.371 -16.352 -22.319  0.00  0.00    +0.148 C 
ATOM      6  C   UNL     1      33.822 -14.069 -23.849  0.00  0.00    +0.000 C 
ATOM      7  C   UNL     1      34.274 -17.867 -24.252  0.00  0.00    +0.202 C 
ATOM      8  C   UNL     1      34.754 -18.667 -22.002  0.00  0.00    +0.148 C 
ATOM      9  C   UNL     1      34.293 -15.105 -21.706  0.00  0.00    +0.038 C 
ATOM     10  C   UNL     1      34.021 -13.975 -22.466  0.00  0.00    +0.003 C 
ATOM     11  C   UNL     1      33.683 -15.319 -25.908  0.00  0.00    +0.000 C 
ATOM     12  C   UNL     1      34.584 -18.952 -23.299  0.00  0.00    +0.080 C 
ATOM     13  C   UNL     1      33.550 -12.897 -24.574  0.00  0.00    +0.000 C 
ATOM     14  C   UNL     1      33.413 -14.144 -26.616  0.00  0.00    +0.000 C 
ATOM     15  C   UNL     1      33.347 -12.932 -25.949  0.00  0.00    +0.000 C 
ENDROOT
BRANCH   8  16
ATOM     16  C   UNL     1      35.054 -19.713 -21.004  0.00  0.00    +0.035 C 
ATOM     17  C   UNL     1      34.018 -20.464 -20.439  0.00  0.00    +0.003 C 
ATOM     18  C   UNL     1      36.375 -19.958 -20.617  0.00  0.00    +0.003 C 
ATOM     19  C   UNL     1      34.302 -21.451 -19.497  0.00  0.00    +0.000 C 
ATOM     20  C   UNL     1      36.658 -20.946 -19.674  0.00  0.00    +0.000 C 
ATOM     21  C   UNL     1      35.621 -21.693 -19.114  0.00  0.00    +0.000 C 
ENDBRANCH   8  16
TORSDOF 1
ENDMDL
MODEL 2
REMARK VINA RESULT:     -11.3      1.246      1.629
REMARK  Name = 2361
REMARK  1 active torsions:
REMARK  status: ('A' for Active; 'I' for Inactive)
REMARK    1  A    between atoms: C_8  and  C_16
REMARK                            x       y       z     vdW  Elec       q    Type
REMARK                         _______ _______ _______ _____ _____    ______ ____
ROOT
ATOM      1  O   UNL     1      33.623 -17.259 -20.796  0.00  0.00    -0.453 OA
ATOM      2  O   UNL     1      35.057 -16.492 -24.519  0.00  0.00    -0.286 OA
ATOM      3  C   UNL     1      33.880 -15.631 -22.612  0.00  0.00    +0.074 C 
ATOM      4  C   UNL     1      33.628 -14.306 -23.096  0.00  0.00    +0.006 C 
ATOM      5  C   UNL     1      33.426 -16.015 -21.343  0.00  0.00    +0.148 C 
ATOM      6  C   UNL     1      32.907 -13.415 -22.251  0.00  0.00    +0.000 C 
ATOM      7  C   UNL     1      34.614 -16.667 -23.393  0.00  0.00    +0.202 C 
ATOM      8  C   UNL     1      34.322 -18.200 -21.523  0.00  0.00    +0.148 C 
ATOM      9  C   UNL     1      32.724 -15.123 -20.538  0.00  0.00    +0.038 C 
ATOM     10  C   UNL     1      32.468 -13.835 -20.990  0.00  0.00    +0.003 C 
ATOM     11  C   UNL     1      34.033 -13.782 -24.354  0.00  0.00    +0.000 C 
ATOM     12  C   UNL     1      34.807 -17.983 -22.751  0.00  0.00    +0.080 C 
ATOM     13  C   UNL     1      32.625 -12.102 -22.663  0.00  0.00    +0.000 C 
ATOM     14  C   UNL     1      33.743 -12.473 -24.750  0.00  0.00    +0.000 C 
ATOM     15  C   UNL     1      33.039 -11.633 -23.905  0.00  0.00    +0.000 C 
ENDROOT
BRANCH   8  16
ATOM     16  C   UNL     1      34.476 -19.499 -20.838  0.00  0.00    +0.035 C 
ATOM     17  C   UNL     1      33.350 -20.189 -20.377  0.00  0.00    +0.003 C 
ATOM     18  C   UNL     1      35.748 -20.046 -20.645  0.00  0.00    +0.003 C 
ATOM     19  C   UNL     1      33.496 -21.415 -19.731  0.00  0.00    +0.000 C 
ATOM     20  C   UNL     1      35.893 -21.273 -19.998  0.00  0.00    +0.000 C 
ATOM     21  C   UNL     1      34.766 -21.957 -19.541  0.00  0.00    +0.000 C 
ENDBRANCH   8  16
TORSDOF 1
ENDMDL
MODEL 3
REMARK VINA RESULT:     -11.1      1.011      2.606
REMARK  Name = 2361
REMARK  1 active torsions:
REMARK  status: ('A' for Active; 'I' for Inactive)
REMARK    1  A    between atoms: C_8  and  C_16
REMARK                            x       y       z     vdW  Elec       q    Type
REMARK                         _______ _______ _______ _____ _____    ______ ____
ROOT
ATOM      1  O   UNL     1      34.583 -18.155 -22.886  0.00  0.00    -0.453 OA
ATOM      2  O   UNL     1      34.568 -14.542 -21.029  0.00  0.00    -0.286 OA
ATOM      3  C   UNL     1      34.278 -15.731 -23.094  0.00  0.00    +0.074 C 
ATOM      4  C   UNL     1      33.989 -14.614 -23.945  0.00  0.00    +0.006 C 
ATOM      5  C   UNL     1      34.318 -17.028 -23.624  0.00  0.00    +0.148 C 
ATOM      6  C   UNL     1      33.756 -14.873 -25.325  0.00  0.00    +0.000 C 
ATOM      7  C   UNL     1      34.551 -15.605 -21.634  0.00  0.00    +0.202 C 
ATOM      8  C   UNL     1      34.812 -18.024 -21.533  0.00  0.00    +0.148 C 
ATOM      9  C   UNL     1      34.085 -17.251 -24.978  0.00  0.00    +0.038 C 
ATOM     10  C   UNL     1      33.807 -16.182 -25.819  0.00  0.00    +0.003 C 
ATOM     11  C   UNL     1      33.912 -13.253 -23.543  0.00  0.00    +0.000 C 
ATOM     12  C   UNL     1      34.816 -16.851 -20.888  0.00  0.00    +0.080 C 
ATOM     13  C   UNL     1      33.469 -13.825 -26.216  0.00  0.00    +0.000 C 
ATOM     14  C   UNL     1      33.626 -12.221 -24.442  0.00  0.00    +0.000 C 
ATOM     15  C   UNL     1      33.404 -12.507 -25.778  0.00  0.00    +0.000 C 
ENDROOT
BRANCH   8  16
ATOM     16  C   UNL     1      35.082 -19.300 -20.840  0.00  0.00    +0.035 C 
ATOM     17  C   UNL     1      36.399 -19.689 -20.573  0.00  0.00    +0.003 C 
ATOM     18  C   UNL     1      34.025 -20.125 -20.449  0.00  0.00    +0.003 C 
ATOM     19  C   UNL     1      36.654 -20.894 -19.919  0.00  0.00    +0.000 C 
ATOM     20  C   UNL     1      34.280 -21.330 -19.794  0.00  0.00    +0.000 C 
ATOM     21  C   UNL     1      35.596 -21.714 -19.530  0.00  0.00    +0.000 C 
ENDBRANCH   8  16
TORSDOF 1
ENDMDL
MODEL 4
REMARK VINA RESULT:     -10.9      2.421      7.405
REMARK  Name = 2361
REMARK  1 active torsions:
REMARK  status: ('A' for Active; 'I' for Inactive)
REMARK    1  A    between atoms: C_8  and  C_16
REMARK                            x       y       z     vdW  Elec       q    Type
REMARK                         _______ _______ _______ _____ _____    ______ ____
ROOT
ATOM      1  O   UNL     1      34.063 -13.127 -22.827  0.00  0.00    -0.453 OA
ATOM      2  O   UNL     1      33.560 -14.985 -26.405  0.00  0.00    -0.286 OA
ATOM      3  C   UNL     1      34.114 -15.233 -24.082  0.00  0.00    +0.074 C 
ATOM      4  C   UNL     1      34.343 -16.648 -24.067  0.00  0.00    +0.006 C 
ATOM      5  C   UNL     1      34.264 -14.483 -22.908  0.00  0.00    +0.148 C 
ATOM      6  C   UNL     1      34.728 -17.246 -22.834  0.00  0.00    +0.000 C 
ATOM      7  C   UNL     1      33.715 -14.477 -25.304  0.00  0.00    +0.202 C 
ATOM      8  C   UNL     1      33.674 -12.445 -23.961  0.00  0.00    +0.148 C 
ATOM      9  C   UNL     1      34.641 -15.094 -21.716  0.00  0.00    +0.038 C 
ATOM     10  C   UNL     1      34.871 -16.463 -21.682  0.00  0.00    +0.003 C 
ATOM     11  C   UNL     1      34.223 -17.528 -25.177  0.00  0.00    +0.000 C 
ATOM     12  C   UNL     1      33.500 -13.023 -25.155  0.00  0.00    +0.080 C 
ATOM     13  C   UNL     1      34.970 -18.627 -22.748  0.00  0.00    +0.000 C 
ATOM     14  C   UNL     1      34.468 -18.901 -25.075  0.00  0.00    +0.000 C 
ATOM     15  C   UNL     1      34.841 -19.451 -23.861  0.00  0.00    +0.000 C 
ENDROOT
BRANCH   8  16
ATOM     16  C   UNL     1      33.484 -10.995 -23.757  0.00  0.00    +0.035 C 
ATOM     17  C   UNL     1      34.432 -10.088 -24.241  0.00  0.00    +0.003 C 
ATOM     18  C   UNL     1      32.358 -10.522 -23.080  0.00  0.00    +0.003 C 
ATOM     19  C   UNL     1      34.253  -8.719 -24.049  0.00  0.00    +0.000 C 
ATOM     20  C   UNL     1      32.178  -9.152 -22.888  0.00  0.00    +0.000 C 
ATOM     21  C   UNL     1      33.127  -8.250 -23.373  0.00  0.00    +0.000 C 
ENDBRANCH   8  16
TORSDOF 1
ENDMDL
MODEL 5
REMARK VINA RESULT:     -10.7      4.072      6.723
REMARK  Name = 2361
REMARK  1 active torsions:
REMARK  status: ('A' for Active; 'I' for Inactive)
REMARK    1  A    between atoms: C_8  and  C_16
REMARK                            x       y       z     vdW  Elec       q    Type
REMARK                         _______ _______ _______ _____ _____    ______ ____
ROOT
ATOM      1  O   UNL     1      34.267 -12.224 -24.179  0.00  0.00    -0.453 OA
ATOM      2  O   UNL     1      31.057 -11.289 -21.871  0.00  0.00    -0.286 OA
ATOM      3  C   UNL     1      32.889 -10.458 -23.182  0.00  0.00    +0.074 C 
ATOM      4  C   UNL     1      32.659  -9.054 -23.005  0.00  0.00    +0.006 C 
ATOM      5  C   UNL     1      33.972 -10.902 -23.953  0.00  0.00    +0.148 C 
ATOM      6  C   UNL     1      33.563  -8.149 -23.628  0.00  0.00    +0.000 C 
ATOM      7  C   UNL     1      32.027 -11.515 -22.580  0.00  0.00    +0.202 C 
ATOM      8  C   UNL     1      33.449 -13.190 -23.633  0.00  0.00    +0.148 C 
ATOM      9  C   UNL     1      34.840  -9.994 -24.551  0.00  0.00    +0.038 C 
ATOM     10  C   UNL     1      34.635  -8.630 -24.389  0.00  0.00    +0.003 C 
ATOM     11  C   UNL     1      31.602  -8.466 -22.258  0.00  0.00    +0.000 C 
ATOM     12  C   UNL     1      32.385 -12.919 -22.867  0.00  0.00    +0.080 C 
ATOM     13  C   UNL     1      33.398  -6.760 -23.495  0.00  0.00    +0.000 C 
ATOM     14  C   UNL     1      31.452  -7.081 -22.134  0.00  0.00    +0.000 C 
ATOM     15  C   UNL     1      32.349  -6.228 -22.753  0.00  0.00    +0.000 C 
ENDROOT
BRANCH   8  16
ATOM     16  C   UNL     1      33.859 -14.574 -23.943  0.00  0.00    +0.035 C 
ATOM     17  C   UNL     1      34.601 -15.312 -23.016  0.00  0.00    +0.003 C 
ATOM     18  C   UNL     1      33.508 -15.154 -25.165  0.00  0.00    +0.003 C 
ATOM     19  C   UNL     1      34.988 -16.618 -23.308  0.00  0.00    +0.000 C 
ATOM     20  C   UNL     1      33.895 -16.462 -25.458  0.00  0.00    +0.000 C 
ATOM     21  C   UNL     1      34.636 -17.194 -24.529  0.00  0.00    +0.000 C 
ENDBRANCH   8  16
TORSDOF 1
ENDMDL
MODEL 6
REMARK VINA RESULT:     -10.6      3.916      6.600
REMARK  Name = 2361
REMARK  1 active torsions:
REMARK  status: ('A' for Active; 'I' for Inactive)
REMARK    1  A    between atoms: C_8  and  C_16
REMARK                            x       y       z     vdW  Elec       q    Type
REMARK                         _______ _______ _______ _____ _____    ______ ____
ROOT
ATOM      1  O   UNL     1      34.165 -12.445 -24.338  0.00  0.00    -0.453 OA
ATOM      2  O   UNL     1      31.165 -11.586 -21.738  0.00  0.00    -0.286 OA
ATOM      3  C   UNL     1      32.912 -10.715 -23.134  0.00  0.00    +0.074 C 
ATOM      4  C   UNL     1      32.733  -9.320 -22.857  0.00  0.00    +0.006 C 
ATOM      5  C   UNL     1      33.922 -11.134 -24.012  0.00  0.00    +0.148 C 
ATOM      6  C   UNL     1      33.610  -8.398 -23.493  0.00  0.00    +0.000 C 
ATOM      7  C   UNL     1      32.072 -11.789 -22.532  0.00  0.00    +0.202 C 
ATOM      8  C   UNL     1      33.366 -13.425 -23.789  0.00  0.00    +0.148 C 
ATOM      9  C   UNL     1      34.765 -10.209 -24.620  0.00  0.00    +0.038 C 
ATOM     10  C   UNL     1      34.608  -8.854 -24.362  0.00  0.00    +0.003 C 
ATOM     11  C   UNL     1      31.751  -8.757 -21.996  0.00  0.00    +0.000 C 
ATOM     12  C   UNL     1      32.371 -13.180 -22.929  0.00  0.00    +0.080 C 
ATOM     13  C   UNL     1      33.491  -7.016 -23.265  0.00  0.00    +0.000 C 
ATOM     14  C   UNL     1      31.646  -7.379 -21.779  0.00  0.00    +0.000 C 
ATOM     15  C   UNL     1      32.516  -6.509 -22.414  0.00  0.00    +0.000 C 
ENDROOT
BRANCH   8  16
ATOM     16  C   UNL     1      33.715 -14.796 -24.212  0.00  0.00    +0.035 C 
ATOM     17  C   UNL     1      33.269 -15.287 -25.443  0.00  0.00    +0.003 C 
ATOM     18  C   UNL     1      34.492 -15.611 -23.384  0.00  0.00    +0.003 C 
ATOM     19  C   UNL     1      33.600 -16.581 -25.842  0.00  0.00    +0.000 C 
ATOM     20  C   UNL     1      34.822 -16.906 -23.784  0.00  0.00    +0.000 C 
ATOM     21  C   UNL     1      34.375 -17.391 -25.013  0.00  0.00    +0.000 C 
ENDBRANCH   8  16
TORSDOF 1
ENDMDL
MODEL 7
REMARK VINA RESULT:     -10.5      5.097      8.245
REMARK  Name = 2361
REMARK  1 active torsions:
REMARK  status: ('A' for Active; 'I' for Inactive)
REMARK    1  A    between atoms: C_8  and  C_16
REMARK                            x       y       z     vdW  Elec       q    Type
REMARK                         _______ _______ _______ _____ _____    ______ ____
ROOT
ATOM      1  O   UNL     1      36.404 -23.113 -16.541  0.00  0.00    -0.453 OA
ATOM      2  O   UNL     1      32.432 -22.952 -17.374  0.00  0.00    -0.286 OA
ATOM      3  C   UNL     1      34.636 -22.230 -17.992  0.00  0.00    +0.074 C 
ATOM      4  C   UNL     1      34.287 -21.416 -19.120  0.00  0.00    +0.006 C 
ATOM      5  C   UNL     1      35.977 -22.356 -17.604  0.00  0.00    +0.148 C 
ATOM      6  C   UNL     1      35.338 -20.752 -19.811  0.00  0.00    +0.000 C 
ATOM      7  C   UNL     1      33.637 -22.974 -17.173  0.00  0.00    +0.202 C 
ATOM      8  C   UNL     1      35.471 -23.812 -15.806  0.00  0.00    +0.148 C 
ATOM      9  C   UNL     1      36.985 -21.694 -18.299  0.00  0.00    +0.038 C 
ATOM     10  C   UNL     1      36.666 -20.900 -19.392  0.00  0.00    +0.003 C 
ATOM     11  C   UNL     1      32.975 -21.204 -19.625  0.00  0.00    +0.000 C 
ATOM     12  C   UNL     1      34.155 -23.782 -16.050  0.00  0.00    +0.080 C 
ATOM     13  C   UNL     1      35.067 -19.938 -20.924  0.00  0.00    +0.000 C 
ATOM     14  C   UNL     1      32.721 -20.391 -20.734  0.00  0.00    +0.000 C 
ATOM     15  C   UNL     1      33.767 -19.758 -21.384  0.00  0.00    +0.000 C 
ENDROOT
BRANCH   8  16
ATOM     16  C   UNL     1      36.042 -24.594 -14.691  0.00  0.00    +0.035 C 
ATOM     17  C   UNL     1      35.873 -24.163 -13.372  0.00  0.00    +0.003 C 
ATOM     18  C   UNL     1      36.756 -25.767 -14.948  0.00  0.00    +0.003 C 
ATOM     19  C   UNL     1      36.412 -24.901 -12.319  0.00  0.00    +0.000 C 
ATOM     20  C   UNL     1      37.296 -26.505 -13.895  0.00  0.00    +0.000 C 
ATOM     21  C   UNL     1      37.124 -26.071 -12.580  0.00  0.00    +0.000 C 
ENDBRANCH   8  16
TORSDOF 1
ENDMDL
MODEL 8
REMARK VINA RESULT:     -10.4      3.705      9.255
REMARK  Name = 2361
REMARK  1 active torsions:
REMARK  status: ('A' for Active; 'I' for Inactive)
REMARK    1  A    between atoms: C_8  and  C_16
REMARK                            x       y       z     vdW  Elec       q    Type
REMARK                         _______ _______ _______ _____ _____    ______ ____
ROOT
ATOM      1  O   UNL     1      36.174 -20.860 -19.135  0.00  0.00    -0.453 OA
ATOM      2  O   UNL     1      32.640 -22.668 -18.272  0.00  0.00    -0.286 OA
ATOM      3  C   UNL     1      34.917 -22.304 -17.604  0.00  0.00    +0.074 C 
ATOM      4  C   UNL     1      34.918 -23.094 -16.407  0.00  0.00    +0.006 C 
ATOM      5  C   UNL     1      36.082 -21.639 -18.008  0.00  0.00    +0.148 C 
ATOM      6  C   UNL     1      36.130 -23.176 -15.665  0.00  0.00    +0.000 C 
ATOM      7  C   UNL     1      33.723 -22.139 -18.480  0.00  0.00    +0.202 C 
ATOM      8  C   UNL     1      35.054 -20.699 -19.924  0.00  0.00    +0.148 C 
ATOM      9  C   UNL     1      37.253 -21.736 -17.263  0.00  0.00    +0.038 C 
ATOM     10  C   UNL     1      37.274 -22.498 -16.102  0.00  0.00    +0.003 C 
ATOM     11  C   UNL     1      33.813 -23.815 -15.879  0.00  0.00    +0.000 C 
ATOM     12  C   UNL     1      33.875 -21.280 -19.672  0.00  0.00    +0.080 C 
ATOM     13  C   UNL     1      36.202 -23.933 -14.484  0.00  0.00    +0.000 C 
ATOM     14  C   UNL     1      33.900 -24.565 -14.701  0.00  0.00    +0.000 C 
ATOM     15  C   UNL     1      35.095 -24.624 -14.004  0.00  0.00    +0.000 C 
ENDROOT
BRANCH   8  16
ATOM     16  C   UNL     1      35.267 -19.840 -21.106  0.00  0.00    +0.035 C 
ATOM     17  C   UNL     1      36.415 -19.047 -21.201  0.00  0.00    +0.003 C 
ATOM     18  C   UNL     1      34.323 -19.814 -22.136  0.00  0.00    +0.003 C 
ATOM     19  C   UNL     1      36.615 -18.236 -22.317  0.00  0.00    +0.000 C 
ATOM     20  C   UNL     1      34.524 -19.003 -23.252  0.00  0.00    +0.000 C 
ATOM     21  C   UNL     1      35.671 -18.213 -23.342  0.00  0.00    +0.000 C 
ENDBRANCH   8  16
TORSDOF 1
ENDMDL
MODEL 9
REMARK VINA RESULT:     -10.3      3.026      8.801
REMARK  Name = 2361
REMARK  1 active torsions:
REMARK  status: ('A' for Active; 'I' for Inactive)
REMARK    1  A    between atoms: C_8  and  C_16
REMARK                            x       y       z     vdW  Elec       q    Type
REMARK                         _______ _______ _______ _____ _____    ______ ____
ROOT
ATOM      1  O   UNL     1      35.936 -20.390 -19.722  0.00  0.00    -0.453 OA
ATOM      2  O   UNL     1      32.495 -22.316 -18.744  0.00  0.00    -0.286 OA
ATOM      3  C   UNL     1      34.801 -21.937 -18.195  0.00  0.00    +0.074 C 
ATOM      4  C   UNL     1      34.888 -22.786 -17.043  0.00  0.00    +0.006 C 
ATOM      5  C   UNL     1      35.927 -21.227 -18.633  0.00  0.00    +0.148 C 
ATOM      6  C   UNL     1      36.144 -22.878 -16.380  0.00  0.00    +0.000 C 
ATOM      7  C   UNL     1      33.553 -21.754 -18.989  0.00  0.00    +0.202 C 
ATOM      8  C   UNL     1      34.768 -20.215 -20.434  0.00  0.00    +0.148 C 
ATOM      9  C   UNL     1      37.142 -21.336 -17.964  0.00  0.00    +0.038 C 
ATOM     10  C   UNL     1      37.248 -22.155 -16.848  0.00  0.00    +0.003 C 
ATOM     11  C   UNL     1      33.831 -23.557 -16.488  0.00  0.00    +0.000 C 
ATOM     12  C   UNL     1      33.617 -20.833 -20.142  0.00  0.00    +0.080 C 
ATOM     13  C   UNL     1      36.301 -23.692 -15.245  0.00  0.00    +0.000 C 
ATOM     14  C   UNL     1      34.003 -24.363 -15.358  0.00  0.00    +0.000 C 
ATOM     15  C   UNL     1      35.238 -24.430 -14.737  0.00  0.00    +0.000 C 
ENDROOT
BRANCH   8  16
ATOM     16  C   UNL     1      34.893 -19.293 -21.580  0.00  0.00    +0.035 C 
ATOM     17  C   UNL     1      34.737 -19.769 -22.886  0.00  0.00    +0.003 C 
ATOM     18  C   UNL     1      35.168 -17.940 -21.367  0.00  0.00    +0.003 C 
ATOM     19  C   UNL     1      34.854 -18.899 -23.968  0.00  0.00    +0.000 C 
ATOM     20  C   UNL     1      35.286 -17.069 -22.451  0.00  0.00    +0.000 C 
ATOM     21  C   UNL     1      35.129 -17.549 -23.752  0.00  0.00    +0.000 C 
ENDBRANCH   8  16
TORSDOF 1
ENDMDL
