MODEL 1
REMARK VINA RESULT:      -6.1      0.000      0.000
REMARK  Name = 62452
REMARK  9 active torsions:
REMARK  status: ('A' for Active; 'I' for Inactive)
REMARK    1  A    between atoms: C_1  and  C_2
REMARK    2  A    between atoms: C_1  and  C_8
REMARK    3  A    between atoms: C_2  and  C_3
REMARK    4  A    between atoms: C_3  and  N_5
REMARK    5  A    between atoms: C_8  and  C_9
REMARK    6  A    between atoms: C_9  and  C_10
REMARK    7  A    between atoms: C_10  and  C_11
REMARK    8  A    between atoms: C_11  and  C_12
REMARK    9  A    between atoms: C_12  and  C_13
REMARK                            x       y       z     vdW  Elec       q    Type
REMARK                         _______ _______ _______ _____ _____    ______ ____
ROOT
ATOM      1  C   UNL     1      34.289 -16.348 -24.910  0.00  0.00    -0.002 C 
ENDROOT
BRANCH   1   2
ATOM      2  C   UNL     1      34.454 -15.567 -23.603  0.00  0.00    -0.017 C 
BRANCH   2   3
ATOM      3  C   UNL     1      33.235 -14.719 -23.271  0.00  0.00    -0.028 C 
BRANCH   3   5
ATOM      4  O   UNL     1      32.158 -15.629 -21.398  0.00  0.00    -0.290 OA
ATOM      5  N   UNL     1      33.011 -14.627 -21.808  0.00  0.00    +0.428 N 
ATOM      6  C   UNL     1      32.396 -13.298 -21.452  0.00  0.00    -0.045 C 
ATOM      7  C   UNL     1      34.316 -14.777 -21.066  0.00  0.00    -0.045 C 
ENDBRANCH   3   5
ENDBRANCH   2   3
ENDBRANCH   1   2
BRANCH   1   8
ATOM      8  C   UNL     1      34.672 -17.827 -24.787  0.00  0.00    -0.000 C 
BRANCH   8   9
ATOM      9  C   UNL     1      35.331 -18.177 -23.451  0.00  0.00    -0.000 C 
BRANCH   9  10
ATOM     10  C   UNL     1      34.629 -19.361 -22.780  0.00  0.00    -0.000 C 
BRANCH  10  11
ATOM     11  C   UNL     1      34.326 -19.066 -21.310  0.00  0.00    +0.000 C 
BRANCH  11  12
ATOM     12  C   UNL     1      33.072 -19.776 -20.791  0.00  0.00    +0.000 C 
BRANCH  12  13
ATOM     13  C   UNL     1      33.380 -20.972 -19.889  0.00  0.00    +0.000 C 
ATOM     14  C   UNL     1      34.879 -21.161 -19.713  0.00  0.00    +0.000 C 
ENDBRANCH  12  13
ENDBRANCH  11  12
ENDBRANCH  10  11
ENDBRANCH   9  10
ENDBRANCH   8   9
ENDBRANCH   1   8
TORSDOF 9
ENDMDL
MODEL 2
REMARK VINA RESULT:      -6.1      5.360      8.568
REMARK  Name = 62452
REMARK  9 active torsions:
REMARK  status: ('A' for Active; 'I' for Inactive)
REMARK    1  A    between atoms: C_1  and  C_2
REMARK    2  A    between atoms: C_1  and  C_8
REMARK    3  A    between atoms: C_2  and  C_3
REMARK    4  A    between atoms: C_3  and  N_5
REMARK    5  A    between atoms: C_8  and  C_9
REMARK    6  A    between atoms: C_9  and  C_10
REMARK    7  A    between atoms: C_10  and  C_11
REMARK    8  A    between atoms: C_11  and  C_12
REMARK    9  A    between atoms: C_12  and  C_13
REMARK                            x       y       z     vdW  Elec       q    Type
REMARK                         _______ _______ _______ _____ _____    ______ ____
ROOT
ATOM      1  C   UNL     1      36.730 -21.597 -17.989  0.00  0.00    -0.002 C 
ENDROOT
BRANCH   1   2
ATOM      2  C   UNL     1      36.999 -22.119 -16.574  0.00  0.00    -0.017 C 
BRANCH   2   3
ATOM      3  C   UNL     1      35.787 -22.810 -15.966  0.00  0.00    -0.028 C 
BRANCH   3   5
ATOM      4  O   UNL     1      35.751 -25.134 -15.667  0.00  0.00    -0.290 OA
ATOM      5  N   UNL     1      36.180 -23.951 -15.106  0.00  0.00    +0.428 N 
ATOM      6  C   UNL     1      35.559 -23.817 -13.738  0.00  0.00    -0.045 C 
ATOM      7  C   UNL     1      37.680 -24.008 -14.959  0.00  0.00    -0.045 C 
ENDBRANCH   3   5
ENDBRANCH   2   3
ENDBRANCH   1   2
BRANCH   1   8
ATOM      8  C   UNL     1      35.392 -22.072 -18.567  0.00  0.00    -0.000 C 
BRANCH   8   9
ATOM      9  C   UNL     1      34.921 -21.249 -19.769  0.00  0.00    -0.000 C 
BRANCH   9  10
ATOM     10  C   UNL     1      33.404 -21.043 -19.738  0.00  0.00    -0.000 C 
BRANCH  10  11
ATOM     11  C   UNL     1      32.971 -19.963 -20.731  0.00  0.00    +0.000 C 
BRANCH  11  12
ATOM     12  C   UNL     1      34.114 -19.039 -21.164  0.00  0.00    +0.000 C 
BRANCH  12  13
ATOM     13  C   UNL     1      34.483 -19.179 -22.641  0.00  0.00    +0.000 C 
ATOM     14  C   UNL     1      35.701 -18.339 -22.990  0.00  0.00    +0.000 C 
ENDBRANCH  12  13
ENDBRANCH  11  12
ENDBRANCH  10  11
ENDBRANCH   9  10
ENDBRANCH   8   9
ENDBRANCH   1   8
TORSDOF 9
ENDMDL
MODEL 3
REMARK VINA RESULT:      -6.1      1.082      2.113
REMARK  Name = 62452
REMARK  9 active torsions:
REMARK  status: ('A' for Active; 'I' for Inactive)
REMARK    1  A    between atoms: C_1  and  C_2
REMARK    2  A    between atoms: C_1  and  C_8
REMARK    3  A    between atoms: C_2  and  C_3
REMARK    4  A    between atoms: C_3  and  N_5
REMARK    5  A    between atoms: C_8  and  C_9
REMARK    6  A    between atoms: C_9  and  C_10
REMARK    7  A    between atoms: C_10  and  C_11
REMARK    8  A    between atoms: C_11  and  C_12
REMARK    9  A    between atoms: C_12  and  C_13
REMARK                            x       y       z     vdW  Elec       q    Type
REMARK                         _______ _______ _______ _____ _____    ______ ____
ROOT
ATOM      1  C   UNL     1      35.215 -18.149 -23.273  0.00  0.00    -0.002 C 
ENDROOT
BRANCH   1   2
ATOM      2  C   UNL     1      35.056 -16.816 -22.536  0.00  0.00    -0.017 C 
BRANCH   2   3
ATOM      3  C   UNL     1      34.061 -15.886 -23.216  0.00  0.00    -0.028 C 
BRANCH   3   5
ATOM      4  O   UNL     1      32.283 -14.953 -22.006  0.00  0.00    -0.290 OA
ATOM      5  N   UNL     1      33.618 -14.799 -22.311  0.00  0.00    +0.428 N 
ATOM      6  C   UNL     1      33.807 -13.456 -22.970  0.00  0.00    -0.045 C 
ATOM      7  C   UNL     1      34.408 -14.829 -21.026  0.00  0.00    -0.045 C 
ENDBRANCH   3   5
ENDBRANCH   2   3
ENDBRANCH   1   2
BRANCH   1   8
ATOM      8  C   UNL     1      34.882 -19.367 -22.404  0.00  0.00    -0.000 C 
BRANCH   8   9
ATOM      9  C   UNL     1      34.012 -19.030 -21.191  0.00  0.00    -0.000 C 
BRANCH   9  10
ATOM     10  C   UNL     1      32.948 -20.107 -20.957  0.00  0.00    -0.000 C 
BRANCH  10  11
ATOM     11  C   UNL     1      33.113 -20.758 -19.582  0.00  0.00    +0.000 C 
BRANCH  11  12
ATOM     12  C   UNL     1      33.938 -22.048 -19.613  0.00  0.00    +0.000 C 
BRANCH  12  13
ATOM     13  C   UNL     1      35.229 -21.964 -18.798  0.00  0.00    +0.000 C 
ATOM     14  C   UNL     1      36.349 -21.317 -19.599  0.00  0.00    +0.000 C 
ENDBRANCH  12  13
ENDBRANCH  11  12
ENDBRANCH  10  11
ENDBRANCH   9  10
ENDBRANCH   8   9
ENDBRANCH   1   8
TORSDOF 9
ENDMDL
MODEL 4
REMARK VINA RESULT:      -6.0      3.489      6.527
REMARK  Name = 62452
REMARK  9 active torsions:
REMARK  status: ('A' for Active; 'I' for Inactive)
REMARK    1  A    between atoms: C_1  and  C_2
REMARK    2  A    between atoms: C_1  and  C_8
REMARK    3  A    between atoms: C_2  and  C_3
REMARK    4  A    between atoms: C_3  and  N_5
REMARK    5  A    between atoms: C_8  and  C_9
REMARK    6  A    between atoms: C_9  and  C_10
REMARK    7  A    between atoms: C_10  and  C_11
REMARK    8  A    between atoms: C_11  and  C_12
REMARK    9  A    between atoms: C_12  and  C_13
REMARK                            x       y       z     vdW  Elec       q    Type
REMARK                         _______ _______ _______ _____ _____    ______ ____
ROOT
ATOM      1  C   UNL     1      33.286 -19.526 -20.937  0.00  0.00    -0.002 C 
ENDROOT
BRANCH   1   2
ATOM      2  C   UNL     1      34.105 -20.565 -20.165  0.00  0.00    -0.017 C 
BRANCH   2   3
ATOM      3  C   UNL     1      33.232 -21.529 -19.376  0.00  0.00    -0.028 C 
BRANCH   3   5
ATOM      4  O   UNL     1      34.119 -23.685 -19.617  0.00  0.00    -0.290 OA
ATOM      5  N   UNL     1      34.031 -22.613 -18.756  0.00  0.00    +0.428 N 
ATOM      6  C   UNL     1      33.384 -23.078 -17.476  0.00  0.00    -0.045 C 
ATOM      7  C   UNL     1      35.427 -22.128 -18.451  0.00  0.00    -0.045 C 
ENDBRANCH   3   5
ENDBRANCH   2   3
ENDBRANCH   1   2
BRANCH   1   8
ATOM      8  C   UNL     1      34.100 -18.293 -21.347  0.00  0.00    -0.000 C 
BRANCH   8   9
ATOM      9  C   UNL     1      35.576 -18.599 -21.613  0.00  0.00    -0.000 C 
BRANCH   9  10
ATOM     10  C   UNL     1      35.877 -18.608 -23.114  0.00  0.00    -0.000 C 
BRANCH  10  11
ATOM     11  C   UNL     1      34.645 -18.207 -23.928  0.00  0.00    +0.000 C 
BRANCH  11  12
ATOM     12  C   UNL     1      34.863 -16.959 -24.790  0.00  0.00    +0.000 C 
BRANCH  12  13
ATOM     13  C   UNL     1      33.967 -15.784 -24.396  0.00  0.00    +0.000 C 
ATOM     14  C   UNL     1      34.531 -15.036 -23.197  0.00  0.00    +0.000 C 
ENDBRANCH  12  13
ENDBRANCH  11  12
ENDBRANCH  10  11
ENDBRANCH   9  10
ENDBRANCH   8   9
ENDBRANCH   1   8
TORSDOF 9
ENDMDL
MODEL 5
REMARK VINA RESULT:      -6.0      1.263      1.815
REMARK  Name = 62452
REMARK  9 active torsions:
REMARK  status: ('A' for Active; 'I' for Inactive)
REMARK    1  A    between atoms: C_1  and  C_2
REMARK    2  A    between atoms: C_1  and  C_8
REMARK    3  A    between atoms: C_2  and  C_3
REMARK    4  A    between atoms: C_3  and  N_5
REMARK    5  A    between atoms: C_8  and  C_9
REMARK    6  A    between atoms: C_9  and  C_10
REMARK    7  A    between atoms: C_10  and  C_11
REMARK    8  A    between atoms: C_11  and  C_12
REMARK    9  A    between atoms: C_12  and  C_13
REMARK                            x       y       z     vdW  Elec       q    Type
REMARK                         _______ _______ _______ _____ _____    ______ ____
ROOT
ATOM      1  C   UNL     1      33.844 -15.787 -24.854  0.00  0.00    -0.002 C 
ENDROOT
BRANCH   1   2
ATOM      2  C   UNL     1      33.388 -14.875 -23.712  0.00  0.00    -0.017 C 
BRANCH   2   3
ATOM      3  C   UNL     1      34.443 -14.726 -22.625  0.00  0.00    -0.028 C 
BRANCH   3   5
ATOM      4  O   UNL     1      34.842 -14.742 -20.315  0.00  0.00    -0.290 OA
ATOM      5  N   UNL     1      33.849 -14.807 -21.269  0.00  0.00    +0.428 N 
ATOM      6  C   UNL     1      33.105 -16.107 -21.097  0.00  0.00    -0.045 C 
ATOM      7  C   UNL     1      32.894 -13.662 -21.044  0.00  0.00    -0.045 C 
ENDBRANCH   3   5
ENDBRANCH   2   3
ENDBRANCH   1   2
BRANCH   1   8
ATOM      8  C   UNL     1      34.836 -16.868 -24.408  0.00  0.00    -0.000 C 
BRANCH   8   9
ATOM      9  C   UNL     1      34.508 -18.259 -24.955  0.00  0.00    -0.000 C 
BRANCH   9  10
ATOM     10  C   UNL     1      34.895 -19.352 -23.955  0.00  0.00    -0.000 C 
BRANCH  10  11
ATOM     11  C   UNL     1      34.522 -18.952 -22.526  0.00  0.00    +0.000 C 
BRANCH  11  12
ATOM     12  C   UNL     1      35.220 -19.796 -21.454  0.00  0.00    +0.000 C 
BRANCH  12  13
ATOM     13  C   UNL     1      34.272 -20.305 -20.367  0.00  0.00    +0.000 C 
ATOM     14  C   UNL     1      32.825 -19.977 -20.698  0.00  0.00    +0.000 C 
ENDBRANCH  12  13
ENDBRANCH  11  12
ENDBRANCH  10  11
ENDBRANCH   9  10
ENDBRANCH   8   9
ENDBRANCH   1   8
TORSDOF 9
ENDMDL
MODEL 6
REMARK VINA RESULT:      -6.0      2.031      4.770
REMARK  Name = 62452
REMARK  9 active torsions:
REMARK  status: ('A' for Active; 'I' for Inactive)
REMARK    1  A    between atoms: C_1  and  C_2
REMARK    2  A    between atoms: C_1  and  C_8
REMARK    3  A    between atoms: C_2  and  C_3
REMARK    4  A    between atoms: C_3  and  N_5
REMARK    5  A    between atoms: C_8  and  C_9
REMARK    6  A    between atoms: C_9  and  C_10
REMARK    7  A    between atoms: C_10  and  C_11
REMARK    8  A    between atoms: C_11  and  C_12
REMARK    9  A    between atoms: C_12  and  C_13
REMARK                            x       y       z     vdW  Elec       q    Type
REMARK                         _______ _______ _______ _____ _____    ______ ____
ROOT
ATOM      1  C   UNL     1      34.425 -18.406 -24.939  0.00  0.00    -0.002 C 
ENDROOT
BRANCH   1   2
ATOM      2  C   UNL     1      34.843 -19.170 -23.679  0.00  0.00    -0.017 C 
BRANCH   2   3
ATOM      3  C   UNL     1      35.695 -18.328 -22.741  0.00  0.00    -0.028 C 
BRANCH   3   5
ATOM      4  O   UNL     1      35.456 -17.442 -20.584  0.00  0.00    -0.290 OA
ATOM      5  N   UNL     1      35.383 -18.605 -21.318  0.00  0.00    +0.428 N 
ATOM      6  C   UNL     1      36.368 -19.594 -20.747  0.00  0.00    -0.045 C 
ATOM      7  C   UNL     1      33.991 -19.169 -21.185  0.00  0.00    -0.045 C 
ENDBRANCH   3   5
ENDBRANCH   2   3
ENDBRANCH   1   2
BRANCH   1   8
ATOM      8  C   UNL     1      34.860 -16.935 -24.930  0.00  0.00    -0.000 C 
BRANCH   8   9
ATOM      9  C   UNL     1      33.824 -15.990 -25.542  0.00  0.00    -0.000 C 
BRANCH   9  10
ATOM     10  C   UNL     1      33.540 -14.806 -24.613  0.00  0.00    -0.000 C 
BRANCH  10  11
ATOM     11  C   UNL     1      33.404 -15.262 -23.159  0.00  0.00    +0.000 C 
BRANCH  11  12
ATOM     12  C   UNL     1      34.261 -14.451 -22.182  0.00  0.00    +0.000 C 
BRANCH  12  13
ATOM     13  C   UNL     1      33.756 -14.504 -20.740  0.00  0.00    +0.000 C 
ATOM     14  C   UNL     1      32.546 -15.416 -20.611  0.00  0.00    +0.000 C 
ENDBRANCH  12  13
ENDBRANCH  11  12
ENDBRANCH  10  11
ENDBRANCH   9  10
ENDBRANCH   8   9
ENDBRANCH   1   8
TORSDOF 9
ENDMDL
MODEL 7
REMARK VINA RESULT:      -6.0      5.126      8.601
REMARK  Name = 62452
REMARK  9 active torsions:
REMARK  status: ('A' for Active; 'I' for Inactive)
REMARK    1  A    between atoms: C_1  and  C_2
REMARK    2  A    between atoms: C_1  and  C_8
REMARK    3  A    between atoms: C_2  and  C_3
REMARK    4  A    between atoms: C_3  and  N_5
REMARK    5  A    between atoms: C_8  and  C_9
REMARK    6  A    between atoms: C_9  and  C_10
REMARK    7  A    between atoms: C_10  and  C_11
REMARK    8  A    between atoms: C_11  and  C_12
REMARK    9  A    between atoms: C_12  and  C_13
REMARK                            x       y       z     vdW  Elec       q    Type
REMARK                         _______ _______ _______ _____ _____    ______ ____
ROOT
ATOM      1  C   UNL     1      33.258 -23.496 -16.278  0.00  0.00    -0.002 C 
ENDROOT
BRANCH   1   2
ATOM      2  C   UNL     1      31.991 -23.087 -15.521  0.00  0.00    -0.017 C 
BRANCH   2   3
ATOM      3  C   UNL     1      30.816 -24.013 -15.803  0.00  0.00    -0.028 C 
BRANCH   3   5
ATOM      4  O   UNL     1      29.858 -22.356 -17.157  0.00  0.00    -0.290 OA
ATOM      5  N   UNL     1      29.590 -23.255 -16.147  0.00  0.00    +0.428 N 
ATOM      6  C   UNL     1      29.090 -22.491 -14.947  0.00  0.00    -0.045 C 
ATOM      7  C   UNL     1      28.506 -24.193 -16.617  0.00  0.00    -0.045 C 
ENDBRANCH   3   5
ENDBRANCH   2   3
ENDBRANCH   1   2
BRANCH   1   8
ATOM      8  C   UNL     1      33.282 -23.007 -17.731  0.00  0.00    -0.000 C 
BRANCH   8   9
ATOM      9  C   UNL     1      34.611 -22.368 -18.136  0.00  0.00    -0.000 C 
BRANCH   9  10
ATOM     10  C   UNL     1      34.524 -21.749 -19.535  0.00  0.00    -0.000 C 
BRANCH  10  11
ATOM     11  C   UNL     1      33.164 -21.084 -19.762  0.00  0.00    +0.000 C 
BRANCH  11  12
ATOM     12  C   UNL     1      33.240 -19.821 -20.625  0.00  0.00    +0.000 C 
BRANCH  12  13
ATOM     13  C   UNL     1      34.646 -19.524 -21.148  0.00  0.00    +0.000 C 
ATOM     14  C   UNL     1      34.639 -19.286 -22.650  0.00  0.00    +0.000 C 
ENDBRANCH  12  13
ENDBRANCH  11  12
ENDBRANCH  10  11
ENDBRANCH   9  10
ENDBRANCH   8   9
ENDBRANCH   1   8
TORSDOF 9
ENDMDL
MODEL 8
REMARK VINA RESULT:      -6.0      6.642     10.086
REMARK  Name = 62452
REMARK  9 active torsions:
REMARK  status: ('A' for Active; 'I' for Inactive)
REMARK    1  A    between atoms: C_1  and  C_2
REMARK    2  A    between atoms: C_1  and  C_8
REMARK    3  A    between atoms: C_2  and  C_3
REMARK    4  A    between atoms: C_3  and  N_5
REMARK    5  A    between atoms: C_8  and  C_9
REMARK    6  A    between atoms: C_9  and  C_10
REMARK    7  A    between atoms: C_10  and  C_11
REMARK    8  A    between atoms: C_11  and  C_12
REMARK    9  A    between atoms: C_12  and  C_13
REMARK                            x       y       z     vdW  Elec       q    Type
REMARK                         _______ _______ _______ _____ _____    ______ ____
ROOT
ATOM      1  C   UNL     1      37.617 -22.560 -16.128  0.00  0.00    -0.002 C 
ENDROOT
BRANCH   1   2
ATOM      2  C   UNL     1      36.655 -23.565 -15.487  0.00  0.00    -0.017 C 
BRANCH   2   3
ATOM      3  C   UNL     1      37.213 -24.177 -14.210  0.00  0.00    -0.028 C 
BRANCH   3   5
ATOM      4  O   UNL     1      36.857 -26.136 -15.447  0.00  0.00    -0.290 OA
ATOM      5  N   UNL     1      37.570 -25.604 -14.395  0.00  0.00    +0.428 N 
ATOM      6  C   UNL     1      37.249 -26.391 -13.150  0.00  0.00    -0.045 C 
ATOM      7  C   UNL     1      39.042 -25.742 -14.697  0.00  0.00    -0.045 C 
ENDBRANCH   3   5
ENDBRANCH   2   3
ENDBRANCH   1   2
BRANCH   1   8
ATOM      8  C   UNL     1      36.903 -21.420 -16.864  0.00  0.00    -0.000 C 
BRANCH   8   9
ATOM      9  C   UNL     1      36.750 -21.666 -18.366  0.00  0.00    -0.000 C 
BRANCH   9  10
ATOM     10  C   UNL     1      35.306 -22.034 -18.722  0.00  0.00    -0.000 C 
BRANCH  10  11
ATOM     11  C   UNL     1      34.778 -21.161 -19.862  0.00  0.00    +0.000 C 
BRANCH  11  12
ATOM     12  C   UNL     1      33.256 -20.985 -19.840  0.00  0.00    +0.000 C 
BRANCH  12  13
ATOM     13  C   UNL     1      32.772 -19.774 -20.640  0.00  0.00    +0.000 C 
ATOM     14  C   UNL     1      33.939 -18.997 -21.228  0.00  0.00    +0.000 C 
ENDBRANCH  12  13
ENDBRANCH  11  12
ENDBRANCH  10  11
ENDBRANCH   9  10
ENDBRANCH   8   9
ENDBRANCH   1   8
TORSDOF 9
ENDMDL
MODEL 9
REMARK VINA RESULT:      -5.9      1.549      2.315
REMARK  Name = 62452
REMARK  9 active torsions:
REMARK  status: ('A' for Active; 'I' for Inactive)
REMARK    1  A    between atoms: C_1  and  C_2
REMARK    2  A    between atoms: C_1  and  C_8
REMARK    3  A    between atoms: C_2  and  C_3
REMARK    4  A    between atoms: C_3  and  N_5
REMARK    5  A    between atoms: C_8  and  C_9
REMARK    6  A    between atoms: C_9  and  C_10
REMARK    7  A    between atoms: C_10  and  C_11
REMARK    8  A    between atoms: C_11  and  C_12
REMARK    9  A    between atoms: C_12  and  C_13
REMARK                            x       y       z     vdW  Elec       q    Type
REMARK                         _______ _______ _______ _____ _____    ______ ____
ROOT
ATOM      1  C   UNL     1      35.227 -16.831 -22.429  0.00  0.00    -0.002 C 
ENDROOT
BRANCH   1   2
ATOM      2  C   UNL     1      34.487 -15.972 -23.459  0.00  0.00    -0.017 C 
BRANCH   2   3
ATOM      3  C   UNL     1      34.416 -14.507 -23.056  0.00  0.00    -0.028 C 
BRANCH   3   5
ATOM      4  O   UNL     1      32.214 -13.703 -23.075  0.00  0.00    -0.290 OA
ATOM      5  N   UNL     1      33.374 -13.777 -23.817  0.00  0.00    +0.428 N 
ATOM      6  C   UNL     1      33.071 -14.491 -25.110  0.00  0.00    -0.045 C 
ATOM      7  C   UNL     1      33.834 -12.375 -24.127  0.00  0.00    -0.045 C 
ENDBRANCH   3   5
ENDBRANCH   2   3
ENDBRANCH   1   2
BRANCH   1   8
ATOM      8  C   UNL     1      35.570 -18.235 -22.943  0.00  0.00    -0.000 C 
BRANCH   8   9
ATOM      9  C   UNL     1      34.574 -19.307 -22.496  0.00  0.00    -0.000 C 
BRANCH   9  10
ATOM     10  C   UNL     1      34.386 -19.288 -20.976  0.00  0.00    -0.000 C 
BRANCH  10  11
ATOM     11  C   UNL     1      33.247 -20.215 -20.547  0.00  0.00    +0.000 C 
BRANCH  11  12
ATOM     12  C   UNL     1      33.679 -21.287 -19.542  0.00  0.00    +0.000 C 
BRANCH  12  13
ATOM     13  C   UNL     1      35.067 -21.862 -19.825  0.00  0.00    +0.000 C 
ATOM     14  C   UNL     1      36.007 -21.643 -18.650  0.00  0.00    +0.000 C 
ENDBRANCH  12  13
ENDBRANCH  11  12
ENDBRANCH  10  11
ENDBRANCH   9  10
ENDBRANCH   8   9
ENDBRANCH   1   8
TORSDOF 9
ENDMDL
