MODEL 1
REMARK VINA RESULT:     -10.5      0.000      0.000
REMARK  Name = 4369524
REMARK  2 active torsions:
REMARK  status: ('A' for Active; 'I' for Inactive)
REMARK    1  A    between atoms: C_10  and  C_16
REMARK    2  A    between atoms: C_18  and  C_22
REMARK                            x       y       z     vdW  Elec       q    Type
REMARK                         _______ _______ _______ _____ _____    ______ ____
ROOT
ATOM      1  S   UNL     1      33.449 -13.228 -25.019  0.00  0.00    +0.006 S 
ATOM      2  O   UNL     1      33.488 -14.243 -22.653  0.00  0.00    -0.461 OA
ATOM      3  N   UNL     1      34.241 -15.696 -24.343  0.00  0.00    -0.278 N 
ATOM      4  C   UNL     1      33.701 -15.225 -21.594  0.00  0.00    +0.155 C 
ATOM      5  C   UNL     1      34.240 -16.553 -22.087  0.00  0.00    +0.027 C 
ATOM      6  C   UNL     1      34.491 -16.738 -23.447  0.00  0.00    +0.050 C 
ATOM      7  C   UNL     1      34.502 -17.619 -21.211  0.00  0.00    +0.002 C 
ATOM      8  C   UNL     1      32.330 -15.403 -20.927  0.00  0.00    +0.048 C 
ATOM      9  C   UNL     1      34.685 -14.563 -20.619  0.00  0.00    +0.048 C 
ATOM     10  C   UNL     1      34.999 -18.833 -21.690  0.00  0.00    +0.014 C 
ATOM     11  C   UNL     1      34.990 -17.951 -23.932  0.00  0.00    +0.015 C 
ATOM     12  C   UNL     1      35.244 -18.998 -23.050  0.00  0.00    +0.002 C 
ATOM     13  C   UNL     1      33.752 -14.476 -23.961  0.00  0.00    +0.233 C 
ATOM     14  H   UNL     1      34.427 -15.847 -25.299  0.00  0.00    +0.156 HD
ENDROOT
BRANCH  10  16
ATOM     15  N   UNL     1      34.274 -20.710 -20.243  0.00  0.00    -0.277 N 
ATOM     16  C   UNL     1      35.260 -19.917 -20.773  0.00  0.00    +0.052 C 
ATOM     17  C   UNL     1      36.466 -20.358 -20.270  0.00  0.00    +0.017 C 
ATOM     18  C   UNL     1      34.832 -21.648 -19.413  0.00  0.00    +0.121 C 
ATOM     19  C   UNL     1      36.195 -21.451 -19.411  0.00  0.00    +0.027 C 
ATOM     20  C   UNL     1      32.857 -20.580 -20.518  0.00  0.00    +0.118 C 
BRANCH  18  22
ATOM     21  N   UNL     1      33.518 -23.452 -18.099  0.00  0.00    -0.190 NA
ATOM     22  C   UNL     1      34.111 -22.638 -18.691  0.00  0.00    +0.116 C 
ENDBRANCH  18  22
ENDBRANCH  10  16
TORSDOF 2
ENDMDL
MODEL 2
REMARK VINA RESULT:      -9.0      7.707      9.281
REMARK  Name = 4369524
REMARK  2 active torsions:
REMARK  status: ('A' for Active; 'I' for Inactive)
REMARK    1  A    between atoms: C_10  and  C_16
REMARK    2  A    between atoms: C_18  and  C_22
REMARK                            x       y       z     vdW  Elec       q    Type
REMARK                         _______ _______ _______ _____ _____    ______ ____
ROOT
ATOM      1  S   UNL     1      27.869 -22.791 -16.419  0.00  0.00    +0.006 S 
ATOM      2  O   UNL     1      29.772 -23.407 -14.797  0.00  0.00    -0.461 OA
ATOM      3  N   UNL     1      30.494 -22.802 -16.953  0.00  0.00    -0.278 N 
ATOM      4  C   UNL     1      31.130 -23.636 -14.312  0.00  0.00    +0.155 C 
ATOM      5  C   UNL     1      32.203 -23.395 -15.355  0.00  0.00    +0.027 C 
ATOM      6  C   UNL     1      31.842 -22.986 -16.640  0.00  0.00    +0.050 C 
ATOM      7  C   UNL     1      33.567 -23.572 -15.072  0.00  0.00    +0.002 C 
ATOM      8  C   UNL     1      31.147 -25.094 -13.834  0.00  0.00    +0.048 C 
ATOM      9  C   UNL     1      31.301 -22.683 -13.121  0.00  0.00    +0.048 C 
ATOM     10  C   UNL     1      34.537 -23.343 -16.050  0.00  0.00    +0.014 C 
ATOM     11  C   UNL     1      32.810 -22.754 -17.623  0.00  0.00    +0.015 C 
ATOM     12  C   UNL     1      34.158 -22.934 -17.325  0.00  0.00    +0.002 C 
ATOM     13  C   UNL     1      29.478 -23.005 -16.057  0.00  0.00    +0.233 C 
ATOM     14  H   UNL     1      30.261 -22.511 -17.864  0.00  0.00    +0.156 HD
ENDROOT
BRANCH  10  16
ATOM     15  N   UNL     1      36.461 -24.730 -15.330  0.00  0.00    -0.277 N 
ATOM     16  C   UNL     1      35.934 -23.530 -15.738  0.00  0.00    +0.052 C 
ATOM     17  C   UNL     1      36.964 -22.615 -15.780  0.00  0.00    +0.017 C 
ATOM     18  C   UNL     1      37.807 -24.593 -15.113  0.00  0.00    +0.121 C 
ATOM     19  C   UNL     1      38.147 -23.286 -15.385  0.00  0.00    +0.027 C 
ATOM     20  C   UNL     1      35.710 -25.957 -15.156  0.00  0.00    +0.118 C 
BRANCH  18  22
ATOM     21  N   UNL     1      39.395 -26.484 -14.330  0.00  0.00    -0.190 NA
ATOM     22  C   UNL     1      38.679 -25.631 -14.683  0.00  0.00    +0.116 C 
ENDBRANCH  18  22
ENDBRANCH  10  16
TORSDOF 2
ENDMDL
MODEL 3
REMARK VINA RESULT:      -8.4      4.691      7.053
REMARK  Name = 4369524
REMARK  2 active torsions:
REMARK  status: ('A' for Active; 'I' for Inactive)
REMARK    1  A    between atoms: C_10  and  C_16
REMARK    2  A    between atoms: C_18  and  C_22
REMARK                            x       y       z     vdW  Elec       q    Type
REMARK                         _______ _______ _______ _____ _____    ______ ____
ROOT
ATOM      1  S   UNL     1      32.054  -6.892 -20.648  0.00  0.00    +0.006 S 
ATOM      2  O   UNL     1      31.547  -9.417 -20.672  0.00  0.00    -0.461 OA
ATOM      3  N   UNL     1      32.934  -8.689 -22.429  0.00  0.00    -0.278 N 
ATOM      4  C   UNL     1      31.574 -10.809 -21.112  0.00  0.00    +0.155 C 
ATOM      5  C   UNL     1      32.399 -11.042 -22.361  0.00  0.00    +0.027 C 
ATOM      6  C   UNL     1      33.050  -9.970 -22.973  0.00  0.00    +0.050 C 
ATOM      7  C   UNL     1      32.536 -12.318 -22.933  0.00  0.00    +0.002 C 
ATOM      8  C   UNL     1      30.105 -11.187 -21.346  0.00  0.00    +0.048 C 
ATOM      9  C   UNL     1      32.144 -11.597 -19.924  0.00  0.00    +0.048 C 
ATOM     10  C   UNL     1      33.303 -12.507 -24.085  0.00  0.00    +0.014 C 
ATOM     11  C   UNL     1      33.820 -10.155 -24.126  0.00  0.00    +0.015 C 
ATOM     12  C   UNL     1      33.945 -11.426 -24.680  0.00  0.00    +0.002 C 
ATOM     13  C   UNL     1      32.201  -8.413 -21.305  0.00  0.00    +0.233 C 
ATOM     14  H   UNL     1      33.402  -7.947 -22.874  0.00  0.00    +0.156 HD
ENDROOT
BRANCH  10  16
ATOM     15  N   UNL     1      34.034 -14.874 -24.009  0.00  0.00    -0.277 N 
ATOM     16  C   UNL     1      33.430 -13.826 -24.657  0.00  0.00    +0.052 C 
ATOM     17  C   UNL     1      33.003 -14.285 -25.885  0.00  0.00    +0.017 C 
ATOM     18  C   UNL     1      33.998 -15.991 -24.803  0.00  0.00    +0.121 C 
ATOM     19  C   UNL     1      33.362 -15.652 -25.978  0.00  0.00    +0.027 C 
ATOM     20  C   UNL     1      34.620 -14.813 -22.685  0.00  0.00    +0.118 C 
BRANCH  18  22
ATOM     21  N   UNL     1      34.967 -18.308 -24.170  0.00  0.00    -0.190 NA
ATOM     22  C   UNL     1      34.530 -17.263 -24.456  0.00  0.00    +0.116 C 
ENDBRANCH  18  22
ENDBRANCH  10  16
TORSDOF 2
ENDMDL
MODEL 4
REMARK VINA RESULT:      -8.2      3.291      5.558
REMARK  Name = 4369524
REMARK  2 active torsions:
REMARK  status: ('A' for Active; 'I' for Inactive)
REMARK    1  A    between atoms: C_10  and  C_16
REMARK    2  A    between atoms: C_18  and  C_22
REMARK                            x       y       z     vdW  Elec       q    Type
REMARK                         _______ _______ _______ _____ _____    ______ ____
ROOT
ATOM      1  S   UNL     1      31.310  -7.913 -23.159  0.00  0.00    +0.006 S 
ATOM      2  O   UNL     1      33.003  -9.551 -24.200  0.00  0.00    -0.461 OA
ATOM      3  N   UNL     1      31.710 -10.467 -22.460  0.00  0.00    -0.278 N 
ATOM      4  C   UNL     1      33.735 -10.793 -24.427  0.00  0.00    +0.155 C 
ATOM      5  C   UNL     1      33.327 -11.924 -23.505  0.00  0.00    +0.027 C 
ATOM      6  C   UNL     1      32.327 -11.717 -22.554  0.00  0.00    +0.050 C 
ATOM      7  C   UNL     1      33.927 -13.192 -23.573  0.00  0.00    +0.002 C 
ATOM      8  C   UNL     1      35.213 -10.432 -24.232  0.00  0.00    +0.048 C 
ATOM      9  C   UNL     1      33.466 -11.160 -25.893  0.00  0.00    +0.048 C 
ATOM     10  C   UNL     1      33.533 -14.219 -22.713  0.00  0.00    +0.014 C 
ATOM     11  C   UNL     1      31.927 -12.742 -21.689  0.00  0.00    +0.015 C 
ATOM     12  C   UNL     1      32.533 -13.993 -21.771  0.00  0.00    +0.002 C 
ATOM     13  C   UNL     1      32.036  -9.406 -23.262  0.00  0.00    +0.233 C 
ATOM     14  H   UNL     1      31.006 -10.343 -21.784  0.00  0.00    +0.156 HD
ENDROOT
BRANCH  10  16
ATOM     15  N   UNL     1      34.666 -16.182 -21.712  0.00  0.00    -0.277 N 
ATOM     16  C   UNL     1      34.163 -15.514 -22.799  0.00  0.00    +0.052 C 
ATOM     17  C   UNL     1      34.378 -16.303 -23.910  0.00  0.00    +0.017 C 
ATOM     18  C   UNL     1      35.196 -17.382 -22.111  0.00  0.00    +0.121 C 
ATOM     19  C   UNL     1      35.031 -17.482 -23.475  0.00  0.00    +0.027 C 
ATOM     20  C   UNL     1      34.640 -15.697 -20.346  0.00  0.00    +0.118 C 
BRANCH  18  22
ATOM     21  N   UNL     1      36.306 -19.121 -20.545  0.00  0.00    -0.190 NA
ATOM     22  C   UNL     1      35.805 -18.337 -21.251  0.00  0.00    +0.116 C 
ENDBRANCH  18  22
ENDBRANCH  10  16
TORSDOF 2
ENDMDL
MODEL 5
REMARK VINA RESULT:      -8.2      8.558     10.743
REMARK  Name = 4369524
REMARK  2 active torsions:
REMARK  status: ('A' for Active; 'I' for Inactive)
REMARK    1  A    between atoms: C_10  and  C_16
REMARK    2  A    between atoms: C_18  and  C_22
REMARK                            x       y       z     vdW  Elec       q    Type
REMARK                         _______ _______ _______ _____ _____    ______ ____
ROOT
ATOM      1  S   UNL     1      40.865 -25.380 -14.894  0.00  0.00    +0.006 S 
ATOM      2  O   UNL     1      38.537 -26.067 -14.033  0.00  0.00    -0.461 OA
ATOM      3  N   UNL     1      38.545 -24.127 -15.365  0.00  0.00    -0.278 N 
ATOM      4  C   UNL     1      37.092 -26.025 -13.827  0.00  0.00    +0.155 C 
ATOM      5  C   UNL     1      36.409 -24.857 -14.509  0.00  0.00    +0.027 C 
ATOM      6  C   UNL     1      37.164 -23.950 -15.254  0.00  0.00    +0.050 C 
ATOM      7  C   UNL     1      35.022 -24.651 -14.417  0.00  0.00    +0.002 C 
ATOM      8  C   UNL     1      36.903 -25.959 -12.306  0.00  0.00    +0.048 C 
ATOM      9  C   UNL     1      36.567 -27.360 -14.372  0.00  0.00    +0.048 C 
ATOM     10  C   UNL     1      34.416 -23.567 -15.056  0.00  0.00    +0.014 C 
ATOM     11  C   UNL     1      36.561 -22.863 -15.897  0.00  0.00    +0.015 C 
ATOM     12  C   UNL     1      35.185 -22.674 -15.795  0.00  0.00    +0.002 C 
ATOM     13  C   UNL     1      39.221 -25.160 -14.771  0.00  0.00    +0.233 C 
ATOM     14  H   UNL     1      39.059 -23.477 -15.897  0.00  0.00    +0.156 HD
ENDROOT
BRANCH  10  16
ATOM     15  N   UNL     1      32.172 -23.173 -16.032  0.00  0.00    -0.277 N 
ATOM     16  C   UNL     1      32.990 -23.373 -14.948  0.00  0.00    +0.052 C 
ATOM     17  C   UNL     1      32.199 -23.350 -13.819  0.00  0.00    +0.017 C 
ATOM     18  C   UNL     1      30.876 -23.024 -15.612  0.00  0.00    +0.121 C 
ATOM     19  C   UNL     1      30.864 -23.129 -14.239  0.00  0.00    +0.027 C 
ATOM     20  C   UNL     1      32.610 -23.127 -17.413  0.00  0.00    +0.118 C 
BRANCH  18  22
ATOM     21  N   UNL     1      28.840 -22.617 -17.160  0.00  0.00    -0.190 NA
ATOM     22  C   UNL     1      29.758 -22.801 -16.462  0.00  0.00    +0.116 C 
ENDBRANCH  18  22
ENDBRANCH  10  16
TORSDOF 2
ENDMDL
MODEL 6
REMARK VINA RESULT:      -8.2      4.029      8.655
REMARK  Name = 4369524
REMARK  2 active torsions:
REMARK  status: ('A' for Active; 'I' for Inactive)
REMARK    1  A    between atoms: C_10  and  C_16
REMARK    2  A    between atoms: C_18  and  C_22
REMARK                            x       y       z     vdW  Elec       q    Type
REMARK                         _______ _______ _______ _____ _____    ______ ____
ROOT
ATOM      1  S   UNL     1      34.942 -19.085 -23.180  0.00  0.00    +0.006 S 
ATOM      2  O   UNL     1      34.149 -17.158 -21.667  0.00  0.00    -0.461 OA
ATOM      3  N   UNL     1      34.310 -16.598 -23.947  0.00  0.00    -0.278 N 
ATOM      4  C   UNL     1      33.690 -15.826 -21.283  0.00  0.00    +0.155 C 
ATOM      5  C   UNL     1      33.572 -14.859 -22.444  0.00  0.00    +0.027 C 
ATOM      6  C   UNL     1      33.888 -15.284 -23.735  0.00  0.00    +0.050 C 
ATOM      7  C   UNL     1      33.151 -13.531 -22.264  0.00  0.00    +0.002 C 
ATOM      8  C   UNL     1      34.713 -15.327 -20.254  0.00  0.00    +0.048 C 
ATOM      9  C   UNL     1      32.326 -16.046 -20.614  0.00  0.00    +0.048 C 
ATOM     10  C   UNL     1      33.050 -12.659 -23.350  0.00  0.00    +0.014 C 
ATOM     11  C   UNL     1      33.787 -14.415 -24.827  0.00  0.00    +0.015 C 
ATOM     12  C   UNL     1      33.368 -13.101 -24.631  0.00  0.00    +0.002 C 
ATOM     13  C   UNL     1      34.439 -17.518 -22.940  0.00  0.00    +0.233 C 
ATOM     14  H   UNL     1      34.525 -16.878 -24.866  0.00  0.00    +0.156 HD
ENDROOT
BRANCH  10  16
ATOM     15  N   UNL     1      33.297 -10.208 -23.624  0.00  0.00    -0.277 N 
ATOM     16  C   UNL     1      32.615 -11.298 -23.144  0.00  0.00    +0.052 C 
ATOM     17  C   UNL     1      31.505 -10.834 -22.472  0.00  0.00    +0.017 C 
ATOM     18  C   UNL     1      32.638  -9.059 -23.270  0.00  0.00    +0.121 C 
ATOM     19  C   UNL     1      31.520  -9.419 -22.551  0.00  0.00    +0.027 C 
ATOM     20  C   UNL     1      34.525 -10.261 -24.391  0.00  0.00    +0.118 C 
BRANCH  18  22
ATOM     21  N   UNL     1      33.399  -6.656 -23.866  0.00  0.00    -0.190 NA
ATOM     22  C   UNL     1      33.056  -7.740 -23.597  0.00  0.00    +0.116 C 
ENDBRANCH  18  22
ENDBRANCH  10  16
TORSDOF 2
ENDMDL
MODEL 7
REMARK VINA RESULT:      -8.1      1.499      2.006
REMARK  Name = 4369524
REMARK  2 active torsions:
REMARK  status: ('A' for Active; 'I' for Inactive)
REMARK    1  A    between atoms: C_10  and  C_16
REMARK    2  A    between atoms: C_18  and  C_22
REMARK                            x       y       z     vdW  Elec       q    Type
REMARK                         _______ _______ _______ _____ _____    ______ ____
ROOT
ATOM      1  S   UNL     1      33.676 -12.976 -26.505  0.00  0.00    +0.006 S 
ATOM      2  O   UNL     1      33.505 -13.691 -24.037  0.00  0.00    -0.461 OA
ATOM      3  N   UNL     1      34.017 -15.444 -25.522  0.00  0.00    -0.278 N 
ATOM      4  C   UNL     1      33.529 -14.561 -22.865  0.00  0.00    +0.155 C 
ATOM      5  C   UNL     1      33.836 -16.011 -23.182  0.00  0.00    +0.027 C 
ATOM      6  C   UNL     1      34.068 -16.398 -24.503  0.00  0.00    +0.050 C 
ATOM      7  C   UNL     1      33.895 -16.994 -22.181  0.00  0.00    +0.002 C 
ATOM      8  C   UNL     1      32.140 -14.420 -22.229  0.00  0.00    +0.048 C 
ATOM      9  C   UNL     1      34.601 -13.965 -21.941  0.00  0.00    +0.048 C 
ATOM     10  C   UNL     1      34.180 -18.323 -22.499  0.00  0.00    +0.014 C 
ATOM     11  C   UNL     1      34.355 -17.728 -24.827  0.00  0.00    +0.015 C 
ATOM     12  C   UNL     1      34.411 -18.690 -23.821  0.00  0.00    +0.002 C 
ATOM     13  C   UNL     1      33.742 -14.120 -25.300  0.00  0.00    +0.233 C 
ATOM     14  H   UNL     1      34.186 -15.737 -26.446  0.00  0.00    +0.156 HD
ENDROOT
BRANCH  10  16
ATOM     15  N   UNL     1      35.405 -19.723 -20.860  0.00  0.00    -0.277 N 
ATOM     16  C   UNL     1      34.236 -19.318 -21.454  0.00  0.00    +0.052 C 
ATOM     17  C   UNL     1      33.206 -20.023 -20.871  0.00  0.00    +0.017 C 
ATOM     18  C   UNL     1      35.135 -20.672 -19.909  0.00  0.00    +0.121 C 
ATOM     19  C   UNL     1      33.773 -20.879 -19.894  0.00  0.00    +0.027 C 
ATOM     20  C   UNL     1      36.726 -19.223 -21.186  0.00  0.00    +0.118 C 
BRANCH  18  22
ATOM     21  N   UNL     1      36.904 -21.844 -18.423  0.00  0.00    -0.190 NA
ATOM     22  C   UNL     1      36.106 -21.315 -19.093  0.00  0.00    +0.116 C 
ENDBRANCH  18  22
ENDBRANCH  10  16
TORSDOF 2
ENDMDL
MODEL 8
REMARK VINA RESULT:      -7.8      5.168      9.251
REMARK  Name = 4369524
REMARK  2 active torsions:
REMARK  status: ('A' for Active; 'I' for Inactive)
REMARK    1  A    between atoms: C_10  and  C_16
REMARK    2  A    between atoms: C_18  and  C_22
REMARK                            x       y       z     vdW  Elec       q    Type
REMARK                         _______ _______ _______ _____ _____    ______ ____
ROOT
ATOM      1  S   UNL     1      33.889 -17.690 -25.154  0.00  0.00    +0.006 S 
ATOM      2  O   UNL     1      33.775 -15.908 -23.299  0.00  0.00    -0.461 OA
ATOM      3  N   UNL     1      33.873 -15.032 -25.481  0.00  0.00    -0.278 N 
ATOM      4  C   UNL     1      33.722 -14.587 -22.678  0.00  0.00    +0.155 C 
ATOM      5  C   UNL     1      33.761 -13.441 -23.668  0.00  0.00    +0.027 C 
ATOM      6  C   UNL     1      33.835 -13.708 -25.036  0.00  0.00    +0.050 C 
ATOM      7  C   UNL     1      33.725 -12.100 -23.254  0.00  0.00    +0.002 C 
ATOM      8  C   UNL     1      34.929 -14.537 -21.732  0.00  0.00    +0.048 C 
ATOM      9  C   UNL     1      32.415 -14.570 -21.873  0.00  0.00    +0.048 C 
ATOM     10  C   UNL     1      33.762 -11.061 -24.186  0.00  0.00    +0.014 C 
ATOM     11  C   UNL     1      33.872 -12.671 -25.974  0.00  0.00    +0.015 C 
ATOM     12  C   UNL     1      33.835 -11.347 -25.546  0.00  0.00    +0.002 C 
ATOM     13  C   UNL     1      33.843 -16.110 -24.637  0.00  0.00    +0.233 C 
ATOM     14  H   UNL     1      33.923 -15.198 -26.450  0.00  0.00    +0.156 HD
ENDROOT
BRANCH  10  16
ATOM     15  N   UNL     1      32.676  -9.155 -23.032  0.00  0.00    -0.277 N 
ATOM     16  C   UNL     1      33.725  -9.689 -23.738  0.00  0.00    +0.052 C 
ATOM     17  C   UNL     1      34.663  -8.694 -23.909  0.00  0.00    +0.017 C 
ATOM     18  C   UNL     1      32.932  -7.838 -22.751  0.00  0.00    +0.121 C 
ATOM     19  C   UNL     1      34.163  -7.524 -23.286  0.00  0.00    +0.027 C 
ATOM     20  C   UNL     1      31.479  -9.872 -22.641  0.00  0.00    +0.118 C 
BRANCH  18  22
ATOM     21  N   UNL     1      31.355  -6.254 -21.443  0.00  0.00    -0.190 NA
ATOM     22  C   UNL     1      32.066  -6.968 -22.033  0.00  0.00    +0.116 C 
ENDBRANCH  18  22
ENDBRANCH  10  16
TORSDOF 2
ENDMDL
