MODEL 1
REMARK VINA RESULT:      -5.6      0.000      0.000
REMARK  Name = 5289158
REMARK  5 active torsions:
REMARK  status: ('A' for Active; 'I' for Inactive)
REMARK    1  A    between atoms: P_1  and  O_3
REMARK    2  A    between atoms: P_1  and  O_5
REMARK    3  A    between atoms: P_1  and  O_7
REMARK    4  A    between atoms: O_7  and  P_9
REMARK    5  A    between atoms: P_9  and  O_11
REMARK                            x       y       z     vdW  Elec       q    Type
REMARK                         _______ _______ _______ _____ _____    ______ ____
ROOT
ATOM      1  P   UNL     1      40.201 -26.085 -14.568  0.00  0.00    +0.480 P 
ATOM      2  O   UNL     1      41.221 -26.952 -13.888  0.00  0.00    -0.227 OA
ENDROOT
BRANCH   1   3
ATOM      3  O   UNL     1      40.039 -24.603 -13.942  0.00  0.00    -0.302 OA
ATOM      4  H   UNL     1      40.733 -24.453 -13.282  0.00  0.00    +0.222 HD
ENDBRANCH   1   3
BRANCH   1   5
ATOM      5  O   UNL     1      40.468 -25.800 -16.136  0.00  0.00    -0.302 OA
ATOM      6  H   UNL     1      40.155 -24.910 -16.359  0.00  0.00    +0.222 HD
ENDBRANCH   1   5
BRANCH   1   7
ATOM      7  O   UNL     1      38.690 -26.660 -14.530  0.00  0.00    -0.200 OA
BRANCH   7   9
ATOM      8  S   UNL     1      36.512 -25.349 -12.986  0.00  0.00    +0.039 S 
ATOM      9  P   UNL     1      37.223 -25.967 -14.705  0.00  0.00    +0.408 P 
ATOM     10  O   UNL     1      36.367 -26.880 -15.555  0.00  0.00    -0.245 OA
BRANCH   9  11
ATOM     11  O   UNL     1      37.662 -24.687 -15.623  0.00  0.00    -0.315 OA
ATOM     12  H   UNL     1      38.499 -24.883 -16.072  0.00  0.00    +0.221 HD
ENDBRANCH   9  11
ENDBRANCH   7   9
ENDBRANCH   1   7
TORSDOF 5
ENDMDL
MODEL 2
REMARK VINA RESULT:      -5.4      1.713      2.872
REMARK  Name = 5289158
REMARK  5 active torsions:
REMARK  status: ('A' for Active; 'I' for Inactive)
REMARK    1  A    between atoms: P_1  and  O_3
REMARK    2  A    between atoms: P_1  and  O_5
REMARK    3  A    between atoms: P_1  and  O_7
REMARK    4  A    between atoms: O_7  and  P_9
REMARK    5  A    between atoms: P_9  and  O_11
REMARK                            x       y       z     vdW  Elec       q    Type
REMARK                         _______ _______ _______ _____ _____    ______ ____
ROOT
ATOM      1  P   UNL     1      40.003 -26.022 -14.467  0.00  0.00    +0.480 P 
ATOM      2  O   UNL     1      41.174 -26.693 -13.810  0.00  0.00    -0.227 OA
ENDROOT
BRANCH   1   3
ATOM      3  O   UNL     1      40.266 -25.517 -15.981  0.00  0.00    -0.302 OA
ATOM      4  H   UNL     1      40.416 -26.284 -16.555  0.00  0.00    +0.222 HD
ENDBRANCH   1   3
BRANCH   1   5
ATOM      5  O   UNL     1      38.673 -26.929 -14.604  0.00  0.00    -0.302 OA
ATOM      6  H   UNL     1      37.975 -26.566 -14.037  0.00  0.00    +0.222 HD
ENDBRANCH   1   5
BRANCH   1   7
ATOM      7  O   UNL     1      39.485 -24.683 -13.725  0.00  0.00    -0.200 OA
BRANCH   7   9
ATOM      8  S   UNL     1      36.609 -23.924 -13.748  0.00  0.00    +0.039 S 
ATOM      9  P   UNL     1      38.228 -24.366 -12.734  0.00  0.00    +0.408 P 
ATOM     10  O   UNL     1      38.698 -23.400 -11.668  0.00  0.00    -0.245 OA
BRANCH   9  11
ATOM     11  O   UNL     1      38.075 -25.841 -12.048  0.00  0.00    -0.315 OA
ATOM     12  H   UNL     1      38.910 -26.328 -12.139  0.00  0.00    +0.221 HD
ENDBRANCH   9  11
ENDBRANCH   7   9
ENDBRANCH   1   7
TORSDOF 5
ENDMDL
MODEL 3
REMARK VINA RESULT:      -5.3      1.966      2.276
REMARK  Name = 5289158
REMARK  5 active torsions:
REMARK  status: ('A' for Active; 'I' for Inactive)
REMARK    1  A    between atoms: P_1  and  O_3
REMARK    2  A    between atoms: P_1  and  O_5
REMARK    3  A    between atoms: P_1  and  O_7
REMARK    4  A    between atoms: O_7  and  P_9
REMARK    5  A    between atoms: P_9  and  O_11
REMARK                            x       y       z     vdW  Elec       q    Type
REMARK                         _______ _______ _______ _____ _____    ______ ____
ROOT
ATOM      1  P   UNL     1      39.465 -25.381 -14.714  0.00  0.00    +0.480 P 
ATOM      2  O   UNL     1      40.929 -25.705 -14.779  0.00  0.00    -0.227 OA
ENDROOT
BRANCH   1   3
ATOM      3  O   UNL     1      39.036 -24.006 -15.450  0.00  0.00    -0.302 OA
ATOM      4  H   UNL     1      38.617 -24.212 -16.300  0.00  0.00    +0.222 HD
ENDBRANCH   1   3
BRANCH   1   5
ATOM      5  O   UNL     1      38.482 -26.479 -15.378  0.00  0.00    -0.302 OA
ATOM      6  H   UNL     1      38.937 -27.334 -15.421  0.00  0.00    +0.222 HD
ENDBRANCH   1   5
BRANCH   1   7
ATOM      7  O   UNL     1      38.878 -25.188 -13.220  0.00  0.00    -0.200 OA
BRANCH   7   9
ATOM      8  S   UNL     1      37.211 -23.184 -11.789  0.00  0.00    +0.039 S 
ATOM      9  P   UNL     1      37.377 -24.948 -12.628  0.00  0.00    +0.408 P 
ATOM     10  O   UNL     1      36.983 -26.169 -11.826  0.00  0.00    -0.245 OA
BRANCH   9  11
ATOM     11  O   UNL     1      36.547 -24.979 -14.036  0.00  0.00    -0.315 OA
ATOM     12  H   UNL     1      37.023 -25.528 -14.679  0.00  0.00    +0.221 HD
ENDBRANCH   9  11
ENDBRANCH   7   9
ENDBRANCH   1   7
TORSDOF 5
ENDMDL
MODEL 4
REMARK VINA RESULT:      -5.2      3.809      4.820
REMARK  Name = 5289158
REMARK  5 active torsions:
REMARK  status: ('A' for Active; 'I' for Inactive)
REMARK    1  A    between atoms: P_1  and  O_3
REMARK    2  A    between atoms: P_1  and  O_5
REMARK    3  A    between atoms: P_1  and  O_7
REMARK    4  A    between atoms: O_7  and  P_9
REMARK    5  A    between atoms: P_9  and  O_11
REMARK                            x       y       z     vdW  Elec       q    Type
REMARK                         _______ _______ _______ _____ _____    ______ ____
ROOT
ATOM      1  P   UNL     1      36.040 -24.042 -11.093  0.00  0.00    +0.480 P 
ATOM      2  O   UNL     1      37.100 -23.005 -10.863  0.00  0.00    -0.227 OA
ENDROOT
BRANCH   1   3
ATOM      3  O   UNL     1      35.347 -24.620  -9.751  0.00  0.00    -0.302 OA
ATOM      4  H   UNL     1      34.406 -24.383  -9.746  0.00  0.00    +0.222 HD
ENDBRANCH   1   3
BRANCH   1   5
ATOM      5  O   UNL     1      34.780 -23.560 -11.984  0.00  0.00    -0.302 OA
ATOM      6  H   UNL     1      34.851 -22.608 -12.153  0.00  0.00    +0.222 HD
ENDBRANCH   1   5
BRANCH   1   7
ATOM      7  O   UNL     1      36.552 -25.382 -11.840  0.00  0.00    -0.200 OA
BRANCH   7   9
ATOM      8  S   UNL     1      39.030 -25.418 -13.484  0.00  0.00    +0.039 S 
ATOM      9  P   UNL     1      37.093 -25.686 -13.349  0.00  0.00    +0.408 P 
ATOM     10  O   UNL     1      36.194 -24.965 -14.328  0.00  0.00    -0.245 OA
BRANCH   9  11
ATOM     11  O   UNL     1      36.742 -27.281 -13.420  0.00  0.00    -0.315 OA
ATOM     12  H   UNL     1      35.902 -27.406 -13.890  0.00  0.00    +0.221 HD
ENDBRANCH   9  11
ENDBRANCH   7   9
ENDBRANCH   1   7
TORSDOF 5
ENDMDL
MODEL 5
REMARK VINA RESULT:      -5.1      1.979      2.789
REMARK  Name = 5289158
REMARK  5 active torsions:
REMARK  status: ('A' for Active; 'I' for Inactive)
REMARK    1  A    between atoms: P_1  and  O_3
REMARK    2  A    between atoms: P_1  and  O_5
REMARK    3  A    between atoms: P_1  and  O_7
REMARK    4  A    between atoms: O_7  and  P_9
REMARK    5  A    between atoms: P_9  and  O_11
REMARK                            x       y       z     vdW  Elec       q    Type
REMARK                         _______ _______ _______ _____ _____    ______ ____
ROOT
ATOM      1  P   UNL     1      39.485 -25.256 -14.543  0.00  0.00    +0.480 P 
ATOM      2  O   UNL     1      39.115 -26.686 -14.812  0.00  0.00    -0.227 OA
ENDROOT
BRANCH   1   3
ATOM      3  O   UNL     1      41.074 -24.965 -14.466  0.00  0.00    -0.302 OA
ATOM      4  H   UNL     1      41.531 -25.484 -15.145  0.00  0.00    +0.222 HD
ENDBRANCH   1   3
BRANCH   1   5
ATOM      5  O   UNL     1      38.965 -24.189 -15.639  0.00  0.00    -0.302 OA
ATOM      6  H   UNL     1      38.076 -23.885 -15.397  0.00  0.00    +0.222 HD
ENDBRANCH   1   5
BRANCH   1   7
ATOM      7  O   UNL     1      38.941 -24.668 -13.140  0.00  0.00    -0.200 OA
BRANCH   7   9
ATOM      8  S   UNL     1      36.214 -24.804 -11.960  0.00  0.00    +0.039 S 
ATOM      9  P   UNL     1      37.664 -23.736 -12.734  0.00  0.00    +0.408 P 
ATOM     10  O   UNL     1      37.349 -22.831 -13.905  0.00  0.00    -0.245 OA
BRANCH   9  11
ATOM     11  O   UNL     1      38.375 -22.832 -11.574  0.00  0.00    -0.315 OA
ATOM     12  H   UNL     1      38.289 -21.891 -11.798  0.00  0.00    +0.221 HD
ENDBRANCH   9  11
ENDBRANCH   7   9
ENDBRANCH   1   7
TORSDOF 5
ENDMDL
MODEL 6
REMARK VINA RESULT:      -5.1      3.608      4.696
REMARK  Name = 5289158
REMARK  5 active torsions:
REMARK  status: ('A' for Active; 'I' for Inactive)
REMARK    1  A    between atoms: P_1  and  O_3
REMARK    2  A    between atoms: P_1  and  O_5
REMARK    3  A    between atoms: P_1  and  O_7
REMARK    4  A    between atoms: O_7  and  P_9
REMARK    5  A    between atoms: P_9  and  O_11
REMARK                            x       y       z     vdW  Elec       q    Type
REMARK                         _______ _______ _______ _____ _____    ______ ____
ROOT
ATOM      1  P   UNL     1      36.075 -24.241 -11.142  0.00  0.00    +0.480 P 
ATOM      2  O   UNL     1      35.293 -24.770  -9.976  0.00  0.00    -0.227 OA
ENDROOT
BRANCH   1   3
ATOM      3  O   UNL     1      35.191 -23.512 -12.283  0.00  0.00    -0.302 OA
ATOM      4  H   UNL     1      34.946 -24.158 -12.963  0.00  0.00    +0.222 HD
ENDBRANCH   1   3
BRANCH   1   5
ATOM      5  O   UNL     1      37.197 -23.136 -10.780  0.00  0.00    -0.302 OA
ATOM      6  H   UNL     1      37.195 -22.440 -11.455  0.00  0.00    +0.222 HD
ENDBRANCH   1   5
BRANCH   1   7
ATOM      7  O   UNL     1      36.889 -25.361 -11.977  0.00  0.00    -0.200 OA
BRANCH   7   9
ATOM      8  S   UNL     1      36.607 -25.909 -14.887  0.00  0.00    +0.039 S 
ATOM      9  P   UNL     1      37.720 -25.328 -13.381  0.00  0.00    +0.408 P 
ATOM     10  O   UNL     1      39.051 -26.013 -13.159  0.00  0.00    -0.245 OA
BRANCH   9  11
ATOM     11  O   UNL     1      37.989 -23.718 -13.472  0.00  0.00    -0.315 OA
ATOM     12  H   UNL     1      38.759 -23.550 -14.038  0.00  0.00    +0.221 HD
ENDBRANCH   9  11
ENDBRANCH   7   9
ENDBRANCH   1   7
TORSDOF 5
ENDMDL
MODEL 7
REMARK VINA RESULT:      -5.0      3.444      4.525
REMARK  Name = 5289158
REMARK  5 active torsions:
REMARK  status: ('A' for Active; 'I' for Inactive)
REMARK    1  A    between atoms: P_1  and  O_3
REMARK    2  A    between atoms: P_1  and  O_5
REMARK    3  A    between atoms: P_1  and  O_7
REMARK    4  A    between atoms: O_7  and  P_9
REMARK    5  A    between atoms: P_9  and  O_11
REMARK                            x       y       z     vdW  Elec       q    Type
REMARK                         _______ _______ _______ _____ _____    ______ ____
ROOT
ATOM      1  P   UNL     1      36.348 -24.101 -11.373  0.00  0.00    +0.480 P 
ATOM      2  O   UNL     1      37.176 -23.072 -10.661  0.00  0.00    -0.227 OA
ENDROOT
BRANCH   1   3
ATOM      3  O   UNL     1      35.315 -24.917 -10.434  0.00  0.00    -0.302 OA
ATOM      4  H   UNL     1      34.853 -24.297  -9.848  0.00  0.00    +0.222 HD
ENDBRANCH   1   3
BRANCH   1   5
ATOM      5  O   UNL     1      35.406 -23.534 -12.557  0.00  0.00    -0.302 OA
ATOM      6  H   UNL     1      35.848 -23.661 -13.410  0.00  0.00    +0.222 HD
ENDBRANCH   1   5
BRANCH   1   7
ATOM      7  O   UNL     1      37.197 -25.280 -12.084  0.00  0.00    -0.200 OA
BRANCH   7   9
ATOM      8  S   UNL     1      36.750 -26.204 -14.875  0.00  0.00    +0.039 S 
ATOM      9  P   UNL     1      37.937 -25.411 -13.532  0.00  0.00    +0.408 P 
ATOM     10  O   UNL     1      39.298 -26.035 -13.312  0.00  0.00    -0.245 OA
BRANCH   9  11
ATOM     11  O   UNL     1      38.154 -23.821 -13.844  0.00  0.00    -0.315 OA
ATOM     12  H   UNL     1      38.210 -23.685 -14.804  0.00  0.00    +0.221 HD
ENDBRANCH   9  11
ENDBRANCH   7   9
ENDBRANCH   1   7
TORSDOF 5
ENDMDL
MODEL 8
REMARK VINA RESULT:      -4.9      2.316      3.376
REMARK  Name = 5289158
REMARK  5 active torsions:
REMARK  status: ('A' for Active; 'I' for Inactive)
REMARK    1  A    between atoms: P_1  and  O_3
REMARK    2  A    between atoms: P_1  and  O_5
REMARK    3  A    between atoms: P_1  and  O_7
REMARK    4  A    between atoms: O_7  and  P_9
REMARK    5  A    between atoms: P_9  and  O_11
REMARK                            x       y       z     vdW  Elec       q    Type
REMARK                         _______ _______ _______ _____ _____    ______ ____
ROOT
ATOM      1  P   UNL     1      39.403 -25.595 -14.203  0.00  0.00    +0.480 P 
ATOM      2  O   UNL     1      39.498 -24.454 -15.172  0.00  0.00    -0.227 OA
ENDROOT
BRANCH   1   3
ATOM      3  O   UNL     1      38.525 -26.854 -14.714  0.00  0.00    -0.302 OA
ATOM      4  H   UNL     1      38.844 -27.664 -14.287  0.00  0.00    +0.222 HD
ENDBRANCH   1   3
BRANCH   1   5
ATOM      5  O   UNL     1      40.811 -26.269 -13.786  0.00  0.00    -0.302 OA
ATOM      6  H   UNL     1      40.750 -27.232 -13.884  0.00  0.00    +0.222 HD
ENDBRANCH   1   5
BRANCH   1   7
ATOM      7  O   UNL     1      38.714 -25.227 -12.787  0.00  0.00    -0.200 OA
BRANCH   7   9
ATOM      8  S   UNL     1      36.487 -23.444 -13.629  0.00  0.00    +0.039 S 
ATOM      9  P   UNL     1      37.805 -23.973 -12.276  0.00  0.00    +0.408 P 
ATOM     10  O   UNL     1      38.730 -22.915 -11.717  0.00  0.00    -0.245 OA
BRANCH   9  11
ATOM     11  O   UNL     1      37.056 -24.705 -11.021  0.00  0.00    -0.315 OA
ATOM     12  H   UNL     1      36.420 -24.090 -10.621  0.00  0.00    +0.221 HD
ENDBRANCH   9  11
ENDBRANCH   7   9
ENDBRANCH   1   7
TORSDOF 5
ENDMDL
MODEL 9
REMARK VINA RESULT:      -4.9      3.175      4.357
REMARK  Name = 5289158
REMARK  5 active torsions:
REMARK  status: ('A' for Active; 'I' for Inactive)
REMARK    1  A    between atoms: P_1  and  O_3
REMARK    2  A    between atoms: P_1  and  O_5
REMARK    3  A    between atoms: P_1  and  O_7
REMARK    4  A    between atoms: O_7  and  P_9
REMARK    5  A    between atoms: P_9  and  O_11
REMARK                            x       y       z     vdW  Elec       q    Type
REMARK                         _______ _______ _______ _____ _____    ______ ____
ROOT
ATOM      1  P   UNL     1      36.204 -24.704 -11.950  0.00  0.00    +0.480 P 
ATOM      2  O   UNL     1      36.846 -24.037 -10.768  0.00  0.00    -0.227 OA
ENDROOT
BRANCH   1   3
ATOM      3  O   UNL     1      36.771 -26.179 -12.293  0.00  0.00    -0.302 OA
ATOM      4  H   UNL     1      37.388 -26.458 -11.598  0.00  0.00    +0.222 HD
ENDBRANCH   1   3
BRANCH   1   5
ATOM      5  O   UNL     1      34.610 -24.938 -11.831  0.00  0.00    -0.302 OA
ATOM      6  H   UNL     1      34.403 -25.863 -12.033  0.00  0.00    +0.222 HD
ENDBRANCH   1   5
BRANCH   1   7
ATOM      7  O   UNL     1      36.378 -23.916 -13.350  0.00  0.00    -0.200 OA
BRANCH   7   9
ATOM      8  S   UNL     1      37.322 -22.643 -15.867  0.00  0.00    +0.039 S 
ATOM      9  P   UNL     1      37.227 -24.222 -14.710  0.00  0.00    +0.408 P 
ATOM     10  O   UNL     1      36.724 -25.521 -15.300  0.00  0.00    -0.245 OA
BRANCH   9  11
ATOM     11  O   UNL     1      38.687 -24.508 -14.031  0.00  0.00    -0.315 OA
ATOM     12  H   UNL     1      39.082 -23.667 -13.749  0.00  0.00    +0.221 HD
ENDBRANCH   9  11
ENDBRANCH   7   9
ENDBRANCH   1   7
TORSDOF 5
ENDMDL
