MODEL 1
REMARK VINA RESULT:     -10.2      0.000      0.000
REMARK  Name = 446411
REMARK  8 active torsions:
REMARK  status: ('A' for Active; 'I' for Inactive)
REMARK    1  A    between atoms: N_2  and  S_20
REMARK    2  A    between atoms: C_3  and  C_9
REMARK    3  A    between atoms: N_8  and  CA_11
REMARK    4  A    between atoms: CA_11  and  C_13
REMARK    5  A    between atoms: CA_11  and  CB_16
REMARK    6  A    between atoms: C_13  and  O_14
REMARK    7  A    between atoms: CB_16  and  CG_17
REMARK    8  A    between atoms: S_20  and  C_23
REMARK                            x       y       z     vdW  Elec       q    Type
REMARK                         _______ _______ _______ _____ _____    ______ ____
ROOT
ATOM      1  S   UNL     1      36.912 -22.838 -14.977  0.00  0.00    -0.137 S 
ATOM      2  N   UNL     1      34.770 -22.757 -17.322  0.00  0.00    -0.146 NA
ATOM      3  C   UNL     1      34.640 -23.848 -16.317  0.00  0.00    +0.166 C 
ATOM      4  C   UNL     1      36.157 -22.314 -17.620  0.00  0.00    +0.108 C 
ATOM      5  C   UNL     1      35.941 -24.235 -15.624  0.00  0.00    +0.085 C 
ATOM      6  C   UNL     1      36.778 -21.690 -16.381  0.00  0.00    +0.077 C 
ENDROOT
BRANCH   3   9
ATOM      7  O   UNL     1      33.907 -22.617 -14.411  0.00  0.00    -0.274 OA
ATOM      8  N   UNL     1      32.348 -23.859 -15.616  0.00  0.00    -0.296 N 
ATOM      9  C   ACE A   0      33.613 -23.360 -15.345  0.00  0.00    +0.240 C 
ATOM     10  H   UNL     1      32.236 -24.449 -16.397  0.00  0.00    +0.150 HD
BRANCH   8  11
ATOM     11  CA  UNL     1      31.190 -23.559 -14.815  0.00  0.00    +0.171 C 
BRANCH  11  13
ATOM     12  OXT UNL     1      30.465 -25.856 -14.585  0.00  0.00    -0.248 OA
ATOM     13  C   UNL     1      30.658 -24.764 -14.058  0.00  0.00    +0.332 C 
BRANCH  13  14
ATOM     14  O   UNL     1      30.358 -24.526 -12.759  0.00  0.00    -0.479 OA
ATOM     15  H   UNL     1      31.006 -24.663 -12.096  0.00  0.00    +0.295 HD
ENDBRANCH  13  14
ENDBRANCH  11  13
BRANCH  11  16
ATOM     16  CB  UNL     1      30.103 -22.826 -15.616  0.00  0.00    +0.031 C 
BRANCH  16  17
ATOM     17  CG  UNL     1      28.685 -23.439 -15.631  0.00  0.00    +0.002 C 
ATOM     18  CD1 UNL     1      27.648 -22.318 -15.499  0.00  0.00    +0.000 C 
ATOM     19  CD2 UNL     1      28.382 -24.265 -16.880  0.00  0.00    +0.000 C 
ENDBRANCH  16  17
ENDBRANCH  11  16
ENDBRANCH   8  11
ENDBRANCH   3   9
BRANCH   2  20
ATOM     20  S   UNL     1      33.699 -22.820 -18.657  0.00  0.00    +0.064 S 
ATOM     21  O   UNL     1      32.372 -22.491 -18.196  0.00  0.00    -0.153 OA
ATOM     22  O   UNL     1      33.965 -24.030 -19.398  0.00  0.00    -0.153 OA
BRANCH  20  23
ATOM     23  C   UNL     1      34.312 -21.455 -19.589  0.00  0.00    +0.122 C 
ATOM     24  C   UNL     1      35.675 -21.341 -19.812  0.00  0.00    +0.020 C 
ATOM     25  C   UNL     1      33.421 -20.517 -20.087  0.00  0.00    +0.020 C 
ATOM     26  C   UNL     1      36.160 -20.260 -20.551  0.00  0.00    -0.003 C 
ATOM     27  C   UNL     1      33.906 -19.436 -20.825  0.00  0.00    -0.003 C 
ATOM     28  C   UNL     1      35.275 -19.309 -21.057  0.00  0.00    -0.022 C 
ATOM     29  C   UNL     1      35.793 -18.155 -21.847  0.00  0.00    +0.031 C 
ENDBRANCH  20  23
ENDBRANCH   2  20
TORSDOF 8
ENDMDL
MODEL 2
REMARK VINA RESULT:      -9.8      6.597     11.062
REMARK  Name = 446411
REMARK  8 active torsions:
REMARK  status: ('A' for Active; 'I' for Inactive)
REMARK    1  A    between atoms: N_2  and  S_20
REMARK    2  A    between atoms: C_3  and  C_9
REMARK    3  A    between atoms: N_8  and  CA_11
REMARK    4  A    between atoms: CA_11  and  C_13
REMARK    5  A    between atoms: CA_11  and  CB_16
REMARK    6  A    between atoms: C_13  and  O_14
REMARK    7  A    between atoms: CB_16  and  CG_17
REMARK    8  A    between atoms: S_20  and  C_23
REMARK                            x       y       z     vdW  Elec       q    Type
REMARK                         _______ _______ _______ _____ _____    ______ ____
ROOT
ATOM      1  S   UNL     1      33.367 -14.325 -20.564  0.00  0.00    -0.137 S 
ATOM      2  N   UNL     1      34.676 -16.834 -22.006  0.00  0.00    -0.146 NA
ATOM      3  C   UNL     1      33.431 -16.277 -22.604  0.00  0.00    +0.166 C 
ATOM      4  C   UNL     1      34.783 -16.737 -20.527  0.00  0.00    +0.108 C 
ATOM      5  C   UNL     1      32.525 -15.544 -21.622  0.00  0.00    +0.085 C 
ATOM      6  C   UNL     1      34.847 -15.277 -20.108  0.00  0.00    +0.077 C 
ENDROOT
BRANCH   3   9
ATOM      7  O   UNL     1      35.065 -15.374 -24.087  0.00  0.00    -0.274 OA
ATOM      8  N   UNL     1      32.878 -14.584 -24.208  0.00  0.00    -0.296 N 
ATOM      9  C   ACE A   0      33.896 -15.383 -23.709  0.00  0.00    +0.240 C 
ATOM     10  H   UNL     1      31.977 -14.681 -23.824  0.00  0.00    +0.150 HD
BRANCH   8  11
ATOM     11  CA  UNL     1      33.071 -13.621 -25.260  0.00  0.00    +0.171 C 
BRANCH  11  13
ATOM     12  OXT UNL     1      33.805 -13.746 -27.563  0.00  0.00    -0.248 OA
ATOM     13  C   UNL     1      33.178 -14.254 -26.638  0.00  0.00    +0.332 C 
BRANCH  13  14
ATOM     14  O   UNL     1      32.478 -15.404 -26.785  0.00  0.00    -0.479 OA
ATOM     15  H   UNL     1      32.799 -16.080 -27.348  0.00  0.00    +0.295 HD
ENDBRANCH  13  14
ENDBRANCH  11  13
BRANCH  11  16
ATOM     16  CB  UNL     1      34.221 -12.649 -24.956  0.00  0.00    +0.031 C 
BRANCH  16  17
ATOM     17  CG  UNL     1      33.988 -11.148 -25.240  0.00  0.00    +0.002 C 
ATOM     18  CD1 UNL     1      33.429 -10.477 -23.980  0.00  0.00    +0.000 C 
ATOM     19  CD2 UNL     1      35.242 -10.404 -25.696  0.00  0.00    +0.000 C 
ENDBRANCH  16  17
ENDBRANCH  11  16
ENDBRANCH   8  11
ENDBRANCH   3   9
BRANCH   2  20
ATOM     20  S   UNL     1      35.280 -18.274 -22.711  0.00  0.00    +0.064 S 
ATOM     21  O   UNL     1      36.721 -18.232 -22.675  0.00  0.00    -0.153 OA
ATOM     22  O   UNL     1      34.559 -18.519 -23.936  0.00  0.00    -0.153 OA
BRANCH  20  23
ATOM     23  C   UNL     1      34.734 -19.440 -21.506  0.00  0.00    +0.122 C 
ATOM     24  C   UNL     1      33.375 -19.611 -21.292  0.00  0.00    +0.020 C 
ATOM     25  C   UNL     1      35.672 -20.169 -20.792  0.00  0.00    +0.020 C 
ATOM     26  C   UNL     1      32.943 -20.534 -20.338  0.00  0.00    -0.003 C 
ATOM     27  C   UNL     1      35.240 -21.093 -19.838  0.00  0.00    -0.003 C 
ATOM     28  C   UNL     1      33.875 -21.275 -19.612  0.00  0.00    -0.022 C 
ATOM     29  C   UNL     1      33.414 -22.262 -18.594  0.00  0.00    +0.031 C 
ENDBRANCH  20  23
ENDBRANCH   2  20
TORSDOF 8
ENDMDL
MODEL 3
REMARK VINA RESULT:      -8.6     10.164     13.771
REMARK  Name = 446411
REMARK  8 active torsions:
REMARK  status: ('A' for Active; 'I' for Inactive)
REMARK    1  A    between atoms: N_2  and  S_20
REMARK    2  A    between atoms: C_3  and  C_9
REMARK    3  A    between atoms: N_8  and  CA_11
REMARK    4  A    between atoms: CA_11  and  C_13
REMARK    5  A    between atoms: CA_11  and  CB_16
REMARK    6  A    between atoms: C_13  and  O_14
REMARK    7  A    between atoms: CB_16  and  CG_17
REMARK    8  A    between atoms: S_20  and  C_23
REMARK                            x       y       z     vdW  Elec       q    Type
REMARK                         _______ _______ _______ _____ _____    ______ ____
ROOT
ATOM      1  S   UNL     1      35.285 -10.678 -25.714  0.00  0.00    -0.137 S 
ATOM      2  N   UNL     1      33.162 -10.428 -23.365  0.00  0.00    -0.146 NA
ATOM      3  C   UNL     1      32.975 -11.541 -24.337  0.00  0.00    +0.166 C 
ATOM      4  C   UNL     1      33.752  -9.180 -23.915  0.00  0.00    +0.108 C 
ATOM      5  C   UNL     1      33.570 -11.287 -25.718  0.00  0.00    +0.085 C 
ATOM      6  C   UNL     1      35.174  -9.444 -24.383  0.00  0.00    +0.077 C 
ENDROOT
BRANCH   3   9
ATOM      7  O   UNL     1      34.055 -12.685 -22.546  0.00  0.00    -0.274 OA
ATOM      8  N   UNL     1      33.561 -13.859 -24.495  0.00  0.00    -0.296 N 
ATOM      9  C   ACE A   0      33.582 -12.738 -23.679  0.00  0.00    +0.240 C 
ATOM     10  H   UNL     1      33.152 -13.780 -25.387  0.00  0.00    +0.150 HD
BRANCH   8  11
ATOM     11  CA  UNL     1      34.104 -15.134 -24.104  0.00  0.00    +0.171 C 
BRANCH  11  13
ATOM     12  OXT UNL     1      34.419 -17.334 -25.062  0.00  0.00    -0.248 OA
ATOM     13  C   UNL     1      34.022 -16.181 -25.203  0.00  0.00    +0.332 C 
BRANCH  13  14
ATOM     14  O   UNL     1      33.525 -15.726 -26.378  0.00  0.00    -0.479 OA
ATOM     15  H   UNL     1      33.523 -14.808 -26.561  0.00  0.00    +0.295 HD
ENDBRANCH  13  14
ENDBRANCH  11  13
BRANCH  11  16
ATOM     16  CB  UNL     1      33.532 -15.625 -22.765  0.00  0.00    +0.031 C 
BRANCH  16  17
ATOM     17  CG  UNL     1      34.528 -16.156 -21.710  0.00  0.00    +0.002 C 
ATOM     18  CD1 UNL     1      34.383 -15.338 -20.422  0.00  0.00    +0.000 C 
ATOM     19  CD2 UNL     1      34.356 -17.640 -21.390  0.00  0.00    +0.000 C 
ENDBRANCH  16  17
ENDBRANCH  11  16
ENDBRANCH   8  11
ENDBRANCH   3   9
BRANCH   2  20
ATOM     20  S   UNL     1      31.924 -10.223 -22.198  0.00  0.00    +0.064 S 
ATOM     21  O   UNL     1      32.478 -10.485 -20.892  0.00  0.00    -0.153 OA
ATOM     22  O   UNL     1      30.738 -10.897 -22.668  0.00  0.00    -0.153 OA
BRANCH  20  23
ATOM     23  C   UNL     1      31.668  -8.485 -22.347  0.00  0.00    +0.122 C 
ATOM     24  C   UNL     1      31.016  -7.986 -23.464  0.00  0.00    +0.020 C 
ATOM     25  C   UNL     1      32.120  -7.642 -21.343  0.00  0.00    +0.020 C 
ATOM     26  C   UNL     1      30.813  -6.610 -23.581  0.00  0.00    -0.003 C 
ATOM     27  C   UNL     1      31.917  -6.266 -21.460  0.00  0.00    -0.003 C 
ATOM     28  C   UNL     1      31.263  -5.751 -22.580  0.00  0.00    -0.022 C 
ATOM     29  C   UNL     1      31.045  -4.281 -22.704  0.00  0.00    +0.031 C 
ENDBRANCH  20  23
ENDBRANCH   2  20
TORSDOF 8
ENDMDL
MODEL 4
REMARK VINA RESULT:      -8.2     10.341     13.870
REMARK  Name = 446411
REMARK  8 active torsions:
REMARK  status: ('A' for Active; 'I' for Inactive)
REMARK    1  A    between atoms: N_2  and  S_20
REMARK    2  A    between atoms: C_3  and  C_9
REMARK    3  A    between atoms: N_8  and  CA_11
REMARK    4  A    between atoms: CA_11  and  C_13
REMARK    5  A    between atoms: CA_11  and  CB_16
REMARK    6  A    between atoms: C_13  and  O_14
REMARK    7  A    between atoms: CB_16  and  CG_17
REMARK    8  A    between atoms: S_20  and  C_23
REMARK                            x       y       z     vdW  Elec       q    Type
REMARK                         _______ _______ _______ _____ _____    ______ ____
ROOT
ATOM      1  S   UNL     1      31.537 -11.927 -20.155  0.00  0.00    -0.137 S 
ATOM      2  N   UNL     1      32.704 -12.682 -23.011  0.00  0.00    -0.146 NA
ATOM      3  C   UNL     1      31.779 -11.518 -22.939  0.00  0.00    +0.166 C 
ATOM      4  C   UNL     1      32.437 -13.782 -22.047  0.00  0.00    +0.108 C 
ATOM      5  C   UNL     1      30.795 -11.556 -21.775  0.00  0.00    +0.085 C 
ATOM      6  C   UNL     1      32.650 -13.286 -20.626  0.00  0.00    +0.077 C 
ENDROOT
BRANCH   3   9
ATOM      7  O   UNL     1      33.826 -10.347 -23.291  0.00  0.00    -0.274 OA
ATOM      8  N   UNL     1      32.046  -9.225 -22.294  0.00  0.00    -0.296 N 
ATOM      9  C   ACE A   0      32.670 -10.317 -22.877  0.00  0.00    +0.240 C 
ATOM     10  H   UNL     1      31.111  -9.322 -22.000  0.00  0.00    +0.150 HD
BRANCH   8  11
ATOM     11  CA  UNL     1      32.695  -7.955 -22.096  0.00  0.00    +0.171 C 
BRANCH  11  13
ATOM     12  OXT UNL     1      32.209  -6.284 -20.415  0.00  0.00    -0.248 OA
ATOM     13  C   UNL     1      32.562  -7.430 -20.676  0.00  0.00    +0.332 C 
BRANCH  13  14
ATOM     14  O   UNL     1      32.917  -8.314 -19.714  0.00  0.00    -0.479 OA
ATOM     15  H   UNL     1      33.195  -9.177 -19.950  0.00  0.00    +0.295 HD
ENDBRANCH  13  14
ENDBRANCH  11  13
BRANCH  11  16
ATOM     16  CB  UNL     1      32.288  -6.921 -23.158  0.00  0.00    +0.031 C 
BRANCH  16  17
ATOM     17  CG  UNL     1      33.119  -6.861 -24.458  0.00  0.00    +0.002 C 
ATOM     18  CD1 UNL     1      32.838  -5.537 -25.177  0.00  0.00    +0.000 C 
ATOM     19  CD2 UNL     1      34.624  -7.008 -24.236  0.00  0.00    +0.000 C 
ENDBRANCH  16  17
ENDBRANCH  11  16
ENDBRANCH   8  11
ENDBRANCH   3   9
BRANCH   2  20
ATOM     20  S   UNL     1      33.202 -13.162 -24.578  0.00  0.00    +0.064 S 
ATOM     21  O   UNL     1      34.272 -12.294 -25.005  0.00  0.00    -0.153 OA
ATOM     22  O   UNL     1      32.025 -13.368 -25.387  0.00  0.00    -0.153 OA
BRANCH  20  23
ATOM     23  C   UNL     1      33.892 -14.739 -24.196  0.00  0.00    +0.122 C 
ATOM     24  C   UNL     1      34.588 -14.908 -23.008  0.00  0.00    +0.020 C 
ATOM     25  C   UNL     1      33.727 -15.788 -25.087  0.00  0.00    +0.020 C 
ATOM     26  C   UNL     1      35.133 -16.156 -22.706  0.00  0.00    -0.003 C 
ATOM     27  C   UNL     1      34.273 -17.036 -24.785  0.00  0.00    -0.003 C 
ATOM     28  C   UNL     1      34.976 -17.220 -23.594  0.00  0.00    -0.022 C 
ATOM     29  C   UNL     1      35.557 -18.554 -23.270  0.00  0.00    +0.031 C 
ENDBRANCH  20  23
ENDBRANCH   2  20
TORSDOF 8
ENDMDL
MODEL 5
REMARK VINA RESULT:      -8.2      6.058     10.086
REMARK  Name = 446411
REMARK  8 active torsions:
REMARK  status: ('A' for Active; 'I' for Inactive)
REMARK    1  A    between atoms: N_2  and  S_20
REMARK    2  A    between atoms: C_3  and  C_9
REMARK    3  A    between atoms: N_8  and  CA_11
REMARK    4  A    between atoms: CA_11  and  C_13
REMARK    5  A    between atoms: CA_11  and  CB_16
REMARK    6  A    between atoms: C_13  and  O_14
REMARK    7  A    between atoms: CB_16  and  CG_17
REMARK    8  A    between atoms: S_20  and  C_23
REMARK                            x       y       z     vdW  Elec       q    Type
REMARK                         _______ _______ _______ _____ _____    ______ ____
ROOT
ATOM      1  S   UNL     1      33.697 -18.095 -25.698  0.00  0.00    -0.137 S 
ATOM      2  N   UNL     1      35.110 -18.143 -22.853  0.00  0.00    -0.146 NA
ATOM      3  C   UNL     1      35.245 -16.899 -23.661  0.00  0.00    +0.166 C 
ATOM      4  C   UNL     1      35.040 -19.411 -23.625  0.00  0.00    +0.108 C 
ATOM      5  C   UNL     1      35.125 -17.100 -25.167  0.00  0.00    +0.085 C 
ATOM      6  C   UNL     1      33.775 -19.433 -24.468  0.00  0.00    +0.077 C 
ENDROOT
BRANCH   3   9
ATOM      7  O   UNL     1      33.308 -16.371 -22.374  0.00  0.00    -0.274 OA
ATOM      8  N   UNL     1      34.323 -14.687 -23.622  0.00  0.00    -0.296 N 
ATOM      9  C   ACE A   0      34.189 -15.979 -23.135  0.00  0.00    +0.240 C 
ATOM     10  H   UNL     1      35.073 -14.491 -24.228  0.00  0.00    +0.150 HD
BRANCH   8  11
ATOM     11  CA  UNL     1      33.420 -13.617 -23.286  0.00  0.00    +0.171 C 
BRANCH  11  13
ATOM     12  OXT UNL     1      33.567 -11.259 -23.812  0.00  0.00    -0.248 OA
ATOM     13  C   UNL     1      33.541 -12.419 -24.214  0.00  0.00    +0.332 C 
BRANCH  13  14
ATOM     14  O   UNL     1      33.564 -12.728 -25.532  0.00  0.00    -0.479 OA
ATOM     15  H   UNL     1      33.562 -13.625 -25.803  0.00  0.00    +0.295 HD
ENDBRANCH  13  14
ENDBRANCH  11  13
BRANCH  11  16
ATOM     16  CB  UNL     1      33.498 -13.234 -21.800  0.00  0.00    +0.031 C 
BRANCH  16  17
ATOM     17  CG  UNL     1      32.222 -13.407 -20.946  0.00  0.00    +0.002 C 
ATOM     18  CD1 UNL     1      32.441 -14.538 -19.934  0.00  0.00    +0.000 C 
ATOM     19  CD2 UNL     1      31.799 -12.139 -20.205  0.00  0.00    +0.000 C 
ENDBRANCH  16  17
ENDBRANCH  11  16
ENDBRANCH   8  11
ENDBRANCH   3   9
BRANCH   2  20
ATOM     20  S   UNL     1      36.003 -18.201 -21.392  0.00  0.00    +0.064 S 
ATOM     21  O   UNL     1      35.664 -17.044 -20.601  0.00  0.00    -0.153 OA
ATOM     22  O   UNL     1      37.373 -18.528 -21.708  0.00  0.00    -0.153 OA
BRANCH  20  23
ATOM     23  C   UNL     1      35.256 -19.615 -20.649  0.00  0.00    +0.122 C 
ATOM     24  C   UNL     1      36.061 -20.618 -20.133  0.00  0.00    +0.020 C 
ATOM     25  C   UNL     1      33.874 -19.701 -20.590  0.00  0.00    +0.020 C 
ATOM     26  C   UNL     1      35.469 -21.737 -19.545  0.00  0.00    -0.003 C 
ATOM     27  C   UNL     1      33.282 -20.819 -20.002  0.00  0.00    -0.003 C 
ATOM     28  C   UNL     1      34.080 -21.837 -19.479  0.00  0.00    -0.022 C 
ATOM     29  C   UNL     1      33.447 -23.031 -18.849  0.00  0.00    +0.031 C 
ENDBRANCH  20  23
ENDBRANCH   2  20
TORSDOF 8
ENDMDL
MODEL 6
REMARK VINA RESULT:      -8.1      3.675      7.201
REMARK  Name = 446411
REMARK  8 active torsions:
REMARK  status: ('A' for Active; 'I' for Inactive)
REMARK    1  A    between atoms: N_2  and  S_20
REMARK    2  A    between atoms: C_3  and  C_9
REMARK    3  A    between atoms: N_8  and  CA_11
REMARK    4  A    between atoms: CA_11  and  C_13
REMARK    5  A    between atoms: CA_11  and  CB_16
REMARK    6  A    between atoms: C_13  and  O_14
REMARK    7  A    between atoms: CB_16  and  CG_17
REMARK    8  A    between atoms: S_20  and  C_23
REMARK                            x       y       z     vdW  Elec       q    Type
REMARK                         _______ _______ _______ _____ _____    ______ ____
ROOT
ATOM      1  S   UNL     1      35.649 -23.552 -16.063  0.00  0.00    -0.137 S 
ATOM      2  N   UNL     1      33.089 -23.762 -14.194  0.00  0.00    -0.146 NA
ATOM      3  C   UNL     1      34.110 -24.840 -14.075  0.00  0.00    +0.166 C 
ATOM      4  C   UNL     1      32.925 -23.173 -15.548  0.00  0.00    +0.108 C 
ATOM      5  C   UNL     1      34.950 -25.063 -15.327  0.00  0.00    +0.085 C 
ATOM      6  C   UNL     1      34.202 -22.457 -15.958  0.00  0.00    +0.077 C 
ENDROOT
BRANCH   3   9
ATOM      7  O   UNL     1      34.493 -23.805 -11.960  0.00  0.00    -0.274 OA
ATOM      8  N   UNL     1      36.265 -24.876 -13.027  0.00  0.00    -0.296 N 
ATOM      9  C   ACE A   0      34.951 -24.450 -12.901  0.00  0.00    +0.240 C 
ATOM     10  H   UNL     1      36.516 -25.388 -13.829  0.00  0.00    +0.150 HD
BRANCH   8  11
ATOM     11  CA  UNL     1      37.282 -24.608 -12.042  0.00  0.00    +0.171 C 
BRANCH  11  13
ATOM     12  OXT UNL     1      37.782 -22.259 -12.333  0.00  0.00    -0.248 OA
ATOM     13  C   UNL     1      37.333 -23.149 -11.618  0.00  0.00    +0.332 C 
BRANCH  13  14
ATOM     14  O   UNL     1      36.893 -22.914 -10.359  0.00  0.00    -0.479 OA
ATOM     15  H   UNL     1      37.488 -22.963  -9.638  0.00  0.00    +0.295 HD
ENDBRANCH  13  14
ENDBRANCH  11  13
BRANCH  11  16
ATOM     16  CB  UNL     1      38.654 -25.161 -12.458  0.00  0.00    +0.031 C 
BRANCH  16  17
ATOM     17  CG  UNL     1      38.931 -25.336 -13.967  0.00  0.00    +0.002 C 
ATOM     18  CD1 UNL     1      40.443 -25.444 -14.195  0.00  0.00    +0.000 C 
ATOM     19  CD2 UNL     1      38.238 -26.549 -14.586  0.00  0.00    +0.000 C 
ENDBRANCH  16  17
ENDBRANCH  11  16
ENDBRANCH   8  11
ENDBRANCH   3   9
BRANCH   2  20
ATOM     20  S   UNL     1      31.650 -23.974 -13.288  0.00  0.00    +0.064 S 
ATOM     21  O   UNL     1      31.530 -22.879 -12.357  0.00  0.00    -0.153 OA
ATOM     22  O   UNL     1      31.584 -25.348 -12.853  0.00  0.00    -0.153 OA
BRANCH  20  23
ATOM     23  C   UNL     1      30.461 -23.741 -14.568  0.00  0.00    +0.122 C 
ATOM     24  C   UNL     1      30.044 -24.831 -15.316  0.00  0.00    +0.020 C 
ATOM     25  C   UNL     1      29.959 -22.471 -14.807  0.00  0.00    +0.020 C 
ATOM     26  C   UNL     1      29.102 -24.646 -16.329  0.00  0.00    -0.003 C 
ATOM     27  C   UNL     1      29.018 -22.286 -15.820  0.00  0.00    -0.003 C 
ATOM     28  C   UNL     1      28.589 -23.374 -16.581  0.00  0.00    -0.022 C 
ATOM     29  C   UNL     1      27.582 -23.177 -17.663  0.00  0.00    +0.031 C 
ENDBRANCH  20  23
ENDBRANCH   2  20
TORSDOF 8
ENDMDL
MODEL 7
REMARK VINA RESULT:      -8.1      5.901     10.204
REMARK  Name = 446411
REMARK  8 active torsions:
REMARK  status: ('A' for Active; 'I' for Inactive)
REMARK    1  A    between atoms: N_2  and  S_20
REMARK    2  A    between atoms: C_3  and  C_9
REMARK    3  A    between atoms: N_8  and  CA_11
REMARK    4  A    between atoms: CA_11  and  C_13
REMARK    5  A    between atoms: CA_11  and  CB_16
REMARK    6  A    between atoms: C_13  and  O_14
REMARK    7  A    between atoms: CB_16  and  CG_17
REMARK    8  A    between atoms: S_20  and  C_23
REMARK                            x       y       z     vdW  Elec       q    Type
REMARK                         _______ _______ _______ _____ _____    ______ ____
ROOT
ATOM      1  S   UNL     1      33.655 -17.978 -25.620  0.00  0.00    -0.137 S 
ATOM      2  N   UNL     1      35.124 -18.115 -22.807  0.00  0.00    -0.146 NA
ATOM      3  C   UNL     1      35.283 -16.864 -23.599  0.00  0.00    +0.166 C 
ATOM      4  C   UNL     1      34.996 -19.369 -23.595  0.00  0.00    +0.108 C 
ATOM      5  C   UNL     1      35.127 -17.039 -25.105  0.00  0.00    +0.085 C 
ATOM      6  C   UNL     1      33.714 -19.336 -24.412  0.00  0.00    +0.077 C 
ENDROOT
BRANCH   3   9
ATOM      7  O   UNL     1      33.180 -16.306 -22.624  0.00  0.00    -0.274 OA
ATOM      8  N   UNL     1      34.701 -14.600 -23.072  0.00  0.00    -0.296 N 
ATOM      9  C   ACE A   0      34.270 -15.918 -23.038  0.00  0.00    +0.240 C 
ATOM     10  H   UNL     1      35.599 -14.411 -23.428  0.00  0.00    +0.150 HD
BRANCH   8  11
ATOM     11  CA  UNL     1      33.902 -13.494 -22.612  0.00  0.00    +0.171 C 
BRANCH  11  13
ATOM     12  OXT UNL     1      33.313 -14.182 -20.367  0.00  0.00    -0.248 OA
ATOM     13  C   UNL     1      32.942 -13.874 -21.496  0.00  0.00    +0.332 C 
BRANCH  13  14
ATOM     14  O   UNL     1      31.638 -13.899 -21.860  0.00  0.00    -0.479 OA
ATOM     15  H   UNL     1      31.198 -14.718 -21.970  0.00  0.00    +0.295 HD
ENDBRANCH  13  14
ENDBRANCH  11  13
BRANCH  11  16
ATOM     16  CB  UNL     1      33.214 -12.751 -23.768  0.00  0.00    +0.031 C 
BRANCH  16  17
ATOM     17  CG  UNL     1      34.008 -11.630 -24.474  0.00  0.00    +0.002 C 
ATOM     18  CD1 UNL     1      33.898 -11.813 -25.992  0.00  0.00    +0.000 C 
ATOM     19  CD2 UNL     1      33.551 -10.221 -24.100  0.00  0.00    +0.000 C 
ENDBRANCH  16  17
ENDBRANCH  11  16
ENDBRANCH   8  11
ENDBRANCH   3   9
BRANCH   2  20
ATOM     20  S   UNL     1      36.044 -18.225 -21.366  0.00  0.00    +0.064 S 
ATOM     21  O   UNL     1      35.741 -17.082 -20.540  0.00  0.00    -0.153 OA
ATOM     22  O   UNL     1      37.401 -18.569 -21.716  0.00  0.00    -0.153 OA
BRANCH  20  23
ATOM     23  C   UNL     1      35.285 -19.643 -20.642  0.00  0.00    +0.122 C 
ATOM     24  C   UNL     1      36.082 -20.655 -20.130  0.00  0.00    +0.020 C 
ATOM     25  C   UNL     1      33.902 -19.723 -20.593  0.00  0.00    +0.020 C 
ATOM     26  C   UNL     1      35.480 -21.776 -19.556  0.00  0.00    -0.003 C 
ATOM     27  C   UNL     1      33.300 -20.844 -20.020  0.00  0.00    -0.003 C 
ATOM     28  C   UNL     1      34.090 -21.871 -19.501  0.00  0.00    -0.022 C 
ATOM     29  C   UNL     1      33.448 -23.068 -18.887  0.00  0.00    +0.031 C 
ENDBRANCH  20  23
ENDBRANCH   2  20
TORSDOF 8
ENDMDL
MODEL 8
REMARK VINA RESULT:      -8.0     10.201     14.147
REMARK  Name = 446411
REMARK  8 active torsions:
REMARK  status: ('A' for Active; 'I' for Inactive)
REMARK    1  A    between atoms: N_2  and  S_20
REMARK    2  A    between atoms: C_3  and  C_9
REMARK    3  A    between atoms: N_8  and  CA_11
REMARK    4  A    between atoms: CA_11  and  C_13
REMARK    5  A    between atoms: CA_11  and  CB_16
REMARK    6  A    between atoms: C_13  and  O_14
REMARK    7  A    between atoms: CB_16  and  CG_17
REMARK    8  A    between atoms: S_20  and  C_23
REMARK                            x       y       z     vdW  Elec       q    Type
REMARK                         _______ _______ _______ _____ _____    ______ ____
ROOT
ATOM      1  S   UNL     1      30.958 -11.163 -19.679  0.00  0.00    -0.137 S 
ATOM      2  N   UNL     1      32.474 -12.314 -22.222  0.00  0.00    -0.146 NA
ATOM      3  C   UNL     1      31.488 -11.223 -22.453  0.00  0.00    +0.166 C 
ATOM      4  C   UNL     1      32.159 -13.247 -21.109  0.00  0.00    +0.108 C 
ATOM      5  C   UNL     1      30.384 -11.130 -21.406  0.00  0.00    +0.085 C 
ATOM      6  C   UNL     1      32.186 -12.499 -19.785  0.00  0.00    +0.077 C 
ENDROOT
BRANCH   3   9
ATOM      7  O   UNL     1      32.688  -9.395 -21.504  0.00  0.00    -0.274 OA
ATOM      8  N   UNL     1      32.530  -9.555 -23.821  0.00  0.00    -0.296 N 
ATOM      9  C   ACE A   0      32.302  -9.970 -22.518  0.00  0.00    +0.240 C 
ATOM     10  H   UNL     1      32.169 -10.101 -24.556  0.00  0.00    +0.150 HD
BRANCH   8  11
ATOM     11  CA  UNL     1      33.269  -8.364 -24.155  0.00  0.00    +0.171 C 
BRANCH  11  13
ATOM     12  OXT UNL     1      35.321  -7.520 -23.190  0.00  0.00    -0.248 OA
ATOM     13  C   UNL     1      34.733  -8.438 -23.754  0.00  0.00    +0.332 C 
BRANCH  13  14
ATOM     14  O   UNL     1      35.360  -9.581 -24.119  0.00  0.00    -0.479 OA
ATOM     15  H   UNL     1      35.690 -10.164 -23.465  0.00  0.00    +0.295 HD
ENDBRANCH  13  14
ENDBRANCH  11  13
BRANCH  11  16
ATOM     16  CB  UNL     1      32.574  -7.088 -23.656  0.00  0.00    +0.031 C 
BRANCH  16  17
ATOM     17  CG  UNL     1      32.145  -6.044 -24.710  0.00  0.00    +0.002 C 
ATOM     18  CD1 UNL     1      31.500  -4.847 -24.002  0.00  0.00    +0.000 C 
ATOM     19  CD2 UNL     1      33.291  -5.553 -25.594  0.00  0.00    +0.000 C 
ENDBRANCH  16  17
ENDBRANCH  11  16
ENDBRANCH   8  11
ENDBRANCH   3   9
BRANCH   2  20
ATOM     20  S   UNL     1      33.168 -13.021 -23.620  0.00  0.00    +0.064 S 
ATOM     21  O   UNL     1      34.257 -12.185 -24.063  0.00  0.00    -0.153 OA
ATOM     22  O   UNL     1      32.101 -13.411 -24.510  0.00  0.00    -0.153 OA
BRANCH  20  23
ATOM     23  C   UNL     1      33.851 -14.479 -22.902  0.00  0.00    +0.122 C 
ATOM     24  C   UNL     1      34.271 -14.455 -21.582  0.00  0.00    +0.020 C 
ATOM     25  C   UNL     1      33.955 -15.630 -23.669  0.00  0.00    +0.020 C 
ATOM     26  C   UNL     1      34.811 -15.610 -21.014  0.00  0.00    -0.003 C 
ATOM     27  C   UNL     1      34.494 -16.785 -23.101  0.00  0.00    -0.003 C 
ATOM     28  C   UNL     1      34.922 -16.774 -21.773  0.00  0.00    -0.022 C 
ATOM     29  C   UNL     1      35.498 -18.009 -21.167  0.00  0.00    +0.031 C 
ENDBRANCH  20  23
ENDBRANCH   2  20
TORSDOF 8
ENDMDL
MODEL 9
REMARK VINA RESULT:      -7.8      8.162     11.819
REMARK  Name = 446411
REMARK  8 active torsions:
REMARK  status: ('A' for Active; 'I' for Inactive)
REMARK    1  A    between atoms: N_2  and  S_20
REMARK    2  A    between atoms: C_3  and  C_9
REMARK    3  A    between atoms: N_8  and  CA_11
REMARK    4  A    between atoms: CA_11  and  C_13
REMARK    5  A    between atoms: CA_11  and  CB_16
REMARK    6  A    between atoms: C_13  and  O_14
REMARK    7  A    between atoms: CB_16  and  CG_17
REMARK    8  A    between atoms: S_20  and  C_23
REMARK                            x       y       z     vdW  Elec       q    Type
REMARK                         _______ _______ _______ _____ _____    ______ ____
ROOT
ATOM      1  S   UNL     1      33.438 -14.326 -25.751  0.00  0.00    -0.137 S 
ATOM      2  N   UNL     1      33.692 -14.831 -22.625  0.00  0.00    -0.146 NA
ATOM      3  C   UNL     1      33.848 -13.430 -23.104  0.00  0.00    +0.166 C 
ATOM      4  C   UNL     1      34.176 -15.889 -23.551  0.00  0.00    +0.108 C 
ATOM      5  C   UNL     1      34.332 -13.298 -24.544  0.00  0.00    +0.085 C 
ATOM      6  C   UNL     1      33.341 -15.886 -24.821  0.00  0.00    +0.077 C 
ENDROOT
BRANCH   3   9
ATOM      7  O   UNL     1      31.477 -13.471 -22.855  0.00  0.00    -0.274 OA
ATOM      8  N   UNL     1      32.577 -11.419 -22.818  0.00  0.00    -0.296 N 
ATOM      9  C   ACE A   0      32.505 -12.801 -22.907  0.00  0.00    +0.240 C 
ATOM     10  H   UNL     1      33.462 -10.992 -22.872  0.00  0.00    +0.150 HD
BRANCH   8  11
ATOM     11  CA  UNL     1      31.422 -10.575 -22.649  0.00  0.00    +0.171 C 
BRANCH  11  13
ATOM     12  OXT UNL     1      30.723  -8.344 -23.275  0.00  0.00    -0.248 OA
ATOM     13  C   UNL     1      31.632  -9.163 -23.170  0.00  0.00    +0.332 C 
BRANCH  13  14
ATOM     14  O   UNL     1      32.898  -8.892 -23.566  0.00  0.00    -0.479 OA
ATOM     15  H   UNL     1      33.059  -8.207 -24.185  0.00  0.00    +0.295 HD
ENDBRANCH  13  14
ENDBRANCH  11  13
BRANCH  11  16
ATOM     16  CB  UNL     1      30.881 -10.609 -21.211  0.00  0.00    +0.031 C 
BRANCH  16  17
ATOM     17  CG  UNL     1      31.881 -10.355 -20.062  0.00  0.00    +0.002 C 
ATOM     18  CD1 UNL     1      32.145  -8.850 -19.945  0.00  0.00    +0.000 C 
ATOM     19  CD2 UNL     1      31.416 -10.894 -18.710  0.00  0.00    +0.000 C 
ENDBRANCH  16  17
ENDBRANCH  11  16
ENDBRANCH   8  11
ENDBRANCH   3   9
BRANCH   2  20
ATOM     20  S   UNL     1      33.981 -15.102 -20.958  0.00  0.00    +0.064 S 
ATOM     21  O   UNL     1      32.749 -14.888 -20.239  0.00  0.00    -0.153 OA
ATOM     22  O   UNL     1      35.200 -14.423 -20.591  0.00  0.00    -0.153 OA
BRANCH  20  23
ATOM     23  C   UNL     1      34.302 -16.835 -20.995  0.00  0.00    +0.122 C 
ATOM     24  C   UNL     1      35.609 -17.283 -21.116  0.00  0.00    +0.020 C 
ATOM     25  C   UNL     1      33.244 -17.725 -20.900  0.00  0.00    +0.020 C 
ATOM     26  C   UNL     1      35.863 -18.655 -21.144  0.00  0.00    -0.003 C 
ATOM     27  C   UNL     1      33.498 -19.097 -20.929  0.00  0.00    -0.003 C 
ATOM     28  C   UNL     1      34.808 -19.561 -21.050  0.00  0.00    -0.022 C 
ATOM     29  C   UNL     1      35.079 -21.027 -21.079  0.00  0.00    +0.031 C 
ENDBRANCH  20  23
ENDBRANCH   2  20
TORSDOF 8
ENDMDL
