MODEL 1
REMARK VINA RESULT:      -9.3      0.000      0.000
REMARK  Name = 3373
REMARK  3 active torsions:
REMARK  status: ('A' for Active; 'I' for Inactive)
REMARK    1  A    between atoms: C_10  and  C_19
REMARK    2  A    between atoms: C_19  and  O_20
REMARK    3  A    between atoms: O_20  and  C_21
REMARK                            x       y       z     vdW  Elec       q    Type
REMARK                         _______ _______ _______ _____ _____    ______ ____
ROOT
ATOM      1  F   UNL     1      31.662  -4.562 -22.431  0.00  0.00    -0.204 F 
ATOM      2  O   UNL     1      32.308  -8.397 -19.439  0.00  0.00    -0.270 OA
ATOM      3  N   UNL     1      32.970  -9.905 -23.239  0.00  0.00    -0.282 N 
ATOM      4  N   UNL     1      31.604 -10.284 -20.582  0.00  0.00    -0.272 N 
ATOM      5  N   UNL     1      33.934 -11.711 -24.147  0.00  0.00    -0.244 NA
ATOM      6  C   UNL     1      32.326 -11.008 -22.719  0.00  0.00    +0.141 C 
ATOM      7  C   UNL     1      31.160 -10.901 -21.819  0.00  0.00    +0.120 C 
ATOM      8  C   UNL     1      32.665  -8.549 -22.968  0.00  0.00    +0.054 C 
ATOM      9  C   UNL     1      32.107  -8.127 -21.742  0.00  0.00    +0.069 C 
ATOM     10  C   UNL     1      32.957 -12.098 -23.275  0.00  0.00    +0.151 C 
ATOM     11  C   UNL     1      32.008  -8.951 -20.499  0.00  0.00    +0.250 C 
ATOM     12  C   UNL     1      33.903 -10.397 -24.126  0.00  0.00    +0.220 C 
ATOM     13  C   UNL     1      32.912  -7.603 -23.978  0.00  0.00    +0.017 C 
ATOM     14  C   UNL     1      31.577 -11.118 -19.387  0.00  0.00    +0.115 C 
ATOM     15  C   UNL     1      31.770  -6.769 -21.583  0.00  0.00    +0.035 C 
ATOM     16  C   UNL     1      32.571  -6.262 -23.798  0.00  0.00    +0.031 C 
ATOM     17  C   UNL     1      31.991  -5.848 -22.605  0.00  0.00    +0.140 C 
ENDROOT
BRANCH  10  19
ATOM     18  O   UNL     1      32.221 -13.947 -21.962  0.00  0.00    -0.244 OA
ATOM     19  C   UNL     1      32.650 -13.477 -23.038  0.00  0.00    +0.356 C 
BRANCH  19  20
ATOM     20  O   UNL     1      32.877 -14.263 -24.146  0.00  0.00    -0.445 OA
BRANCH  20  21
ATOM     21  C   UNL     1      33.801 -15.349 -24.014  0.00  0.00    +0.209 C 
ATOM     22  C   UNL     1      33.918 -16.061 -25.344  0.00  0.00    +0.051 C 
ENDBRANCH  20  21
ENDBRANCH  19  20
ENDBRANCH  10  19
TORSDOF 3
ENDMDL
MODEL 2
REMARK VINA RESULT:      -8.9     13.470     15.927
REMARK  Name = 3373
REMARK  3 active torsions:
REMARK  status: ('A' for Active; 'I' for Inactive)
REMARK    1  A    between atoms: C_10  and  C_19
REMARK    2  A    between atoms: C_19  and  O_20
REMARK    3  A    between atoms: O_20  and  C_21
REMARK                            x       y       z     vdW  Elec       q    Type
REMARK                         _______ _______ _______ _____ _____    ______ ____
ROOT
ATOM      1  F   UNL     1      33.145 -21.850 -20.183  0.00  0.00    -0.204 F 
ATOM      2  O   UNL     1      31.940 -22.945 -15.554  0.00  0.00    -0.270 OA
ATOM      3  N   UNL     1      36.079 -23.100 -15.629  0.00  0.00    -0.282 N 
ATOM      4  N   UNL     1      33.523 -24.443 -14.770  0.00  0.00    -0.272 N 
ATOM      5  N   UNL     1      37.753 -23.068 -14.141  0.00  0.00    -0.244 NA
ATOM      6  C   UNL     1      35.875 -24.162 -14.772  0.00  0.00    +0.141 C 
ATOM      7  C   UNL     1      34.784 -25.139 -14.957  0.00  0.00    +0.120 C 
ATOM      8  C   UNL     1      35.279 -22.758 -16.746  0.00  0.00    +0.054 C 
ATOM      9  C   UNL     1      33.899 -23.044 -16.808  0.00  0.00    +0.069 C 
ATOM     10  C   UNL     1      36.903 -24.099 -13.859  0.00  0.00    +0.151 C 
ATOM     11  C   UNL     1      33.046 -23.481 -15.661  0.00  0.00    +0.250 C 
ATOM     12  C   UNL     1      37.251 -22.504 -15.217  0.00  0.00    +0.220 C 
ATOM     13  C   UNL     1      35.906 -22.129 -17.837  0.00  0.00    +0.017 C 
ATOM     14  C   UNL     1      32.733 -24.821 -13.606  0.00  0.00    +0.115 C 
ATOM     15  C   UNL     1      33.194 -22.731 -17.986  0.00  0.00    +0.035 C 
ATOM     16  C   UNL     1      35.187 -21.827 -18.994  0.00  0.00    +0.031 C 
ATOM     17  C   UNL     1      33.836 -22.137 -19.072  0.00  0.00    +0.140 C 
ENDROOT
BRANCH  10  19
ATOM     18  O   UNL     1      36.291 -25.260 -11.868  0.00  0.00    -0.244 OA
ATOM     19  C   UNL     1      37.126 -24.989 -12.759  0.00  0.00    +0.356 C 
BRANCH  19  20
ATOM     20  O   UNL     1      38.388 -25.540 -12.776  0.00  0.00    -0.445 OA
BRANCH  20  21
ATOM     21  C   UNL     1      38.843 -26.125 -14.001  0.00  0.00    +0.209 C 
ATOM     22  C   UNL     1      40.283 -25.723 -14.234  0.00  0.00    +0.051 C 
ENDBRANCH  20  21
ENDBRANCH  19  20
ENDBRANCH  10  19
TORSDOF 3
ENDMDL
MODEL 3
REMARK VINA RESULT:      -8.9      4.865      7.100
REMARK  Name = 3373
REMARK  3 active torsions:
REMARK  status: ('A' for Active; 'I' for Inactive)
REMARK    1  A    between atoms: C_10  and  C_19
REMARK    2  A    between atoms: C_19  and  O_20
REMARK    3  A    between atoms: O_20  and  C_21
REMARK                            x       y       z     vdW  Elec       q    Type
REMARK                         _______ _______ _______ _____ _____    ______ ____
ROOT
ATOM      1  F   UNL     1      33.596 -11.240 -26.250  0.00  0.00    -0.204 F 
ATOM      2  O   UNL     1      32.864 -16.088 -26.451  0.00  0.00    -0.270 OA
ATOM      3  N   UNL     1      33.876 -15.340 -22.505  0.00  0.00    -0.282 N 
ATOM      4  N   UNL     1      34.318 -17.064 -24.935  0.00  0.00    -0.272 N 
ATOM      5  N   UNL     1      33.707 -16.393 -20.535  0.00  0.00    -0.244 NA
ATOM      6  C   UNL     1      34.539 -16.543 -22.634  0.00  0.00    +0.141 C 
ATOM      7  C   UNL     1      35.278 -16.919 -23.855  0.00  0.00    +0.120 C 
ATOM      8  C   UNL     1      33.759 -14.335 -23.496  0.00  0.00    +0.054 C 
ATOM      9  C   UNL     1      33.761 -14.627 -24.876  0.00  0.00    +0.069 C 
ATOM     10  C   UNL     1      34.395 -17.174 -21.419  0.00  0.00    +0.151 C 
ATOM     11  C   UNL     1      33.620 -15.986 -25.482  0.00  0.00    +0.250 C 
ATOM     12  C   UNL     1      33.432 -15.293 -21.201  0.00  0.00    +0.220 C 
ATOM     13  C   UNL     1      33.659 -12.999 -23.071  0.00  0.00    +0.017 C 
ATOM     14  C   UNL     1      34.129 -18.407 -25.468  0.00  0.00    +0.115 C 
ATOM     15  C   UNL     1      33.710 -13.561 -25.794  0.00  0.00    +0.035 C 
ATOM     16  C   UNL     1      33.607 -11.958 -23.998  0.00  0.00    +0.031 C 
ATOM     17  C   UNL     1      33.643 -12.238 -25.358  0.00  0.00    +0.140 C 
ENDROOT
BRANCH  10  19
ATOM     18  O   UNL     1      35.965 -18.668 -20.425  0.00  0.00    -0.244 OA
ATOM     19  C   UNL     1      34.907 -18.462 -21.059  0.00  0.00    +0.356 C 
BRANCH  19  20
ATOM     20  O   UNL     1      34.096 -19.489 -21.489  0.00  0.00    -0.445 OA
BRANCH  20  21
ATOM     21  C   UNL     1      32.983 -19.850 -20.664  0.00  0.00    +0.209 C 
ATOM     22  C   UNL     1      33.348 -21.072 -19.851  0.00  0.00    +0.051 C 
ENDBRANCH  20  21
ENDBRANCH  19  20
ENDBRANCH  10  19
TORSDOF 3
ENDMDL
MODEL 4
REMARK VINA RESULT:      -8.8      4.904      7.854
REMARK  Name = 3373
REMARK  3 active torsions:
REMARK  status: ('A' for Active; 'I' for Inactive)
REMARK    1  A    between atoms: C_10  and  C_19
REMARK    2  A    between atoms: C_19  and  O_20
REMARK    3  A    between atoms: O_20  and  C_21
REMARK                            x       y       z     vdW  Elec       q    Type
REMARK                         _______ _______ _______ _____ _____    ______ ____
ROOT
ATOM      1  F   UNL     1      36.171 -19.148 -20.268  0.00  0.00    -0.204 F 
ATOM      2  O   UNL     1      32.617 -15.782 -20.610  0.00  0.00    -0.270 OA
ATOM      3  N   UNL     1      34.109 -16.130 -24.459  0.00  0.00    -0.282 N 
ATOM      4  N   UNL     1      33.258 -14.272 -22.245  0.00  0.00    -0.272 N 
ATOM      5  N   UNL     1      33.450 -15.601 -26.533  0.00  0.00    -0.244 NA
ATOM      6  C   UNL     1      33.889 -14.768 -24.474  0.00  0.00    +0.141 C 
ATOM      7  C   UNL     1      34.169 -13.900 -23.314  0.00  0.00    +0.120 C 
ATOM      8  C   UNL     1      34.571 -16.892 -23.358  0.00  0.00    +0.054 C 
ATOM      9  C   UNL     1      34.313 -16.528 -22.020  0.00  0.00    +0.069 C 
ATOM     10  C   UNL     1      33.462 -14.481 -25.752  0.00  0.00    +0.151 C 
ATOM     11  C   UNL     1      33.334 -15.491 -21.571  0.00  0.00    +0.250 C 
ATOM     12  C   UNL     1      33.865 -16.566 -25.743  0.00  0.00    +0.220 C 
ATOM     13  C   UNL     1      35.336 -18.041 -23.628  0.00  0.00    +0.017 C 
ATOM     14  C   UNL     1      32.256 -13.285 -21.866  0.00  0.00    +0.115 C 
ATOM     15  C   UNL     1      34.869 -17.305 -20.986  0.00  0.00    +0.035 C 
ATOM     16  C   UNL     1      35.876 -18.798 -22.587  0.00  0.00    +0.031 C 
ATOM     17  C   UNL     1      35.651 -18.424 -21.268  0.00  0.00    +0.140 C 
ENDROOT
BRANCH  10  19
ATOM     18  O   UNL     1      32.551 -12.980 -27.366  0.00  0.00    -0.244 OA
ATOM     19  C   UNL     1      33.100 -13.192 -26.262  0.00  0.00    +0.356 C 
BRANCH  19  20
ATOM     20  O   UNL     1      33.421 -12.174 -25.393  0.00  0.00    -0.445 OA
BRANCH  20  21
ATOM     21  C   UNL     1      34.448 -11.259 -25.789  0.00  0.00    +0.209 C 
ATOM     22  C   UNL     1      34.712 -10.292 -24.655  0.00  0.00    +0.051 C 
ENDBRANCH  20  21
ENDBRANCH  19  20
ENDBRANCH  10  19
TORSDOF 3
ENDMDL
MODEL 5
REMARK VINA RESULT:      -8.5      4.442      7.887
REMARK  Name = 3373
REMARK  3 active torsions:
REMARK  status: ('A' for Active; 'I' for Inactive)
REMARK    1  A    between atoms: C_10  and  C_19
REMARK    2  A    between atoms: C_19  and  O_20
REMARK    3  A    between atoms: O_20  and  C_21
REMARK                            x       y       z     vdW  Elec       q    Type
REMARK                         _______ _______ _______ _____ _____    ______ ____
ROOT
ATOM      1  F   UNL     1      35.122 -20.213 -21.448  0.00  0.00    -0.204 F 
ATOM      2  O   UNL     1      32.356 -16.288 -20.440  0.00  0.00    -0.270 OA
ATOM      3  N   UNL     1      33.914 -15.538 -24.204  0.00  0.00    -0.282 N 
ATOM      4  N   UNL     1      33.366 -14.462 -21.445  0.00  0.00    -0.272 N 
ATOM      5  N   UNL     1      33.470 -14.177 -25.927  0.00  0.00    -0.244 NA
ATOM      6  C   UNL     1      33.979 -14.247 -23.723  0.00  0.00    +0.141 C 
ATOM      7  C   UNL     1      34.380 -13.930 -22.338  0.00  0.00    +0.120 C 
ATOM      8  C   UNL     1      34.160 -16.722 -23.467  0.00  0.00    +0.054 C 
ATOM      9  C   UNL     1      33.922 -16.815 -22.079  0.00  0.00    +0.069 C 
ATOM     10  C   UNL     1      33.678 -13.439 -24.796  0.00  0.00    +0.151 C 
ATOM     11  C   UNL     1      33.159 -15.828 -21.256  0.00  0.00    +0.250 C 
ATOM     12  C   UNL     1      33.642 -15.424 -25.550  0.00  0.00    +0.220 C 
ATOM     13  C   UNL     1      34.682 -17.830 -24.156  0.00  0.00    +0.017 C 
ATOM     14  C   UNL     1      32.572 -13.490 -20.703  0.00  0.00    +0.115 C 
ATOM     15  C   UNL     1      34.260 -18.008 -21.413  0.00  0.00    +0.035 C 
ATOM     16  C   UNL     1      35.008 -19.003 -23.475  0.00  0.00    +0.031 C 
ATOM     17  C   UNL     1      34.807 -19.089 -22.104  0.00  0.00    +0.140 C 
ENDROOT
BRANCH  10  19
ATOM     18  O   UNL     1      34.176 -11.260 -25.626  0.00  0.00    -0.244 OA
ATOM     19  C   UNL     1      33.611 -12.008 -24.798  0.00  0.00    +0.356 C 
BRANCH  19  20
ATOM     20  O   UNL     1      32.840 -11.517 -23.769  0.00  0.00    -0.445 OA
BRANCH  20  21
ATOM     21  C   UNL     1      32.983 -10.133 -23.430  0.00  0.00    +0.209 C 
ATOM     22  C   UNL     1      31.814  -9.714 -22.565  0.00  0.00    +0.051 C 
ENDBRANCH  20  21
ENDBRANCH  19  20
ENDBRANCH  10  19
TORSDOF 3
ENDMDL
MODEL 6
REMARK VINA RESULT:      -8.2     14.464     16.445
REMARK  Name = 3373
REMARK  3 active torsions:
REMARK  status: ('A' for Active; 'I' for Inactive)
REMARK    1  A    between atoms: C_10  and  C_19
REMARK    2  A    between atoms: C_19  and  O_20
REMARK    3  A    between atoms: O_20  and  C_21
REMARK                            x       y       z     vdW  Elec       q    Type
REMARK                         _______ _______ _______ _____ _____    ______ ____
ROOT
ATOM      1  F   UNL     1      29.601 -22.866 -16.640  0.00  0.00    -0.204 F 
ATOM      2  O   UNL     1      34.300 -23.426 -17.935  0.00  0.00    -0.270 OA
ATOM      3  N   UNL     1      34.267 -23.986 -13.831  0.00  0.00    -0.282 N 
ATOM      4  N   UNL     1      35.593 -22.644 -16.179  0.00  0.00    -0.272 N 
ATOM      5  N   UNL     1      35.616 -24.877 -12.281  0.00  0.00    -0.244 NA
ATOM      6  C   UNL     1      35.468 -23.313 -13.910  0.00  0.00    +0.141 C 
ATOM      7  C   UNL     1      35.682 -22.164 -14.812  0.00  0.00    +0.120 C 
ATOM      8  C   UNL     1      33.109 -23.729 -14.604  0.00  0.00    +0.054 C 
ATOM      9  C   UNL     1      33.170 -23.203 -15.912  0.00  0.00    +0.069 C 
ATOM     10  C   UNL     1      36.280 -23.900 -12.966  0.00  0.00    +0.151 C 
ATOM     11  C   UNL     1      34.402 -23.093 -16.752  0.00  0.00    +0.250 C 
ATOM     12  C   UNL     1      34.409 -24.890 -12.801  0.00  0.00    +0.220 C 
ATOM     13  C   UNL     1      31.856 -23.994 -14.023  0.00  0.00    +0.017 C 
ATOM     14  C   UNL     1      36.818 -22.606 -16.968  0.00  0.00    +0.115 C 
ATOM     15  C   UNL     1      31.967 -22.913 -16.583  0.00  0.00    +0.035 C 
ATOM     16  C   UNL     1      30.677 -23.700 -14.707  0.00  0.00    +0.031 C 
ATOM     17  C   UNL     1      30.732 -23.151 -15.982  0.00  0.00    +0.140 C 
ENDROOT
BRANCH  10  19
ATOM     18  O   UNL     1      38.014 -22.894 -11.673  0.00  0.00    -0.244 OA
ATOM     19  C   UNL     1      37.638 -23.550 -12.669  0.00  0.00    +0.356 C 
BRANCH  19  20
ATOM     20  O   UNL     1      38.520 -24.023 -13.614  0.00  0.00    -0.445 OA
BRANCH  20  21
ATOM     21  C   UNL     1      38.981 -25.372 -13.480  0.00  0.00    +0.209 C 
ATOM     22  C   UNL     1      40.287 -25.524 -14.228  0.00  0.00    +0.051 C 
ENDBRANCH  20  21
ENDBRANCH  19  20
ENDBRANCH  10  19
TORSDOF 3
ENDMDL
MODEL 7
REMARK VINA RESULT:      -8.2     13.681     16.093
REMARK  Name = 3373
REMARK  3 active torsions:
REMARK  status: ('A' for Active; 'I' for Inactive)
REMARK    1  A    between atoms: C_10  and  C_19
REMARK    2  A    between atoms: C_19  and  O_20
REMARK    3  A    between atoms: O_20  and  C_21
REMARK                            x       y       z     vdW  Elec       q    Type
REMARK                         _______ _______ _______ _____ _____    ______ ____
ROOT
ATOM      1  F   UNL     1      38.876 -25.021 -13.641  0.00  0.00    -0.204 F 
ATOM      2  O   UNL     1      36.691 -21.979 -16.811  0.00  0.00    -0.270 OA
ATOM      3  N   UNL     1      33.597 -23.516 -14.525  0.00  0.00    -0.282 N 
ATOM      4  N   UNL     1      34.607 -22.869 -17.288  0.00  0.00    -0.272 N 
ATOM      5  N   UNL     1      31.465 -22.995 -14.079  0.00  0.00    -0.244 NA
ATOM      6  C   UNL     1      32.931 -23.487 -15.732  0.00  0.00    +0.141 C 
ATOM      7  C   UNL     1      33.575 -23.852 -17.009  0.00  0.00    +0.120 C 
ATOM      8  C   UNL     1      34.962 -23.837 -14.328  0.00  0.00    +0.054 C 
ATOM      9  C   UNL     1      35.949 -23.594 -15.307  0.00  0.00    +0.069 C 
ATOM     10  C   UNL     1      31.634 -23.140 -15.426  0.00  0.00    +0.151 C 
ATOM     11  C   UNL     1      35.774 -22.756 -16.532  0.00  0.00    +0.250 C 
ATOM     12  C   UNL     1      32.647 -23.250 -13.563  0.00  0.00    +0.220 C 
ATOM     13  C   UNL     1      35.328 -24.442 -13.112  0.00  0.00    +0.017 C 
ATOM     14  C   UNL     1      34.391 -22.003 -18.440  0.00  0.00    +0.115 C 
ATOM     15  C   UNL     1      37.270 -24.008 -15.055  0.00  0.00    +0.035 C 
ATOM     16  C   UNL     1      36.645 -24.843 -12.883  0.00  0.00    +0.031 C 
ATOM     17  C   UNL     1      37.613 -24.636 -13.858  0.00  0.00    +0.140 C 
ENDROOT
BRANCH  10  19
ATOM     18  O   UNL     1      30.549 -22.191 -17.327  0.00  0.00    -0.244 OA
ATOM     19  C   UNL     1      30.552 -22.974 -16.351  0.00  0.00    +0.356 C 
BRANCH  19  20
ATOM     20  O   UNL     1      29.481 -23.787 -16.057  0.00  0.00    -0.445 OA
BRANCH  20  21
ATOM     21  C   UNL     1      28.235 -23.508 -16.705  0.00  0.00    +0.209 C 
ATOM     22  C   UNL     1      27.464 -22.501 -15.879  0.00  0.00    +0.051 C 
ENDBRANCH  20  21
ENDBRANCH  19  20
ENDBRANCH  10  19
TORSDOF 3
ENDMDL
MODEL 8
REMARK VINA RESULT:      -8.1      3.978      6.559
REMARK  Name = 3373
REMARK  3 active torsions:
REMARK  status: ('A' for Active; 'I' for Inactive)
REMARK    1  A    between atoms: C_10  and  C_19
REMARK    2  A    between atoms: C_19  and  O_20
REMARK    3  A    between atoms: O_20  and  C_21
REMARK                            x       y       z     vdW  Elec       q    Type
REMARK                         _______ _______ _______ _____ _____    ______ ____
ROOT
ATOM      1  F   UNL     1      31.975 -10.206 -22.739  0.00  0.00    -0.204 F 
ATOM      2  O   UNL     1      32.727 -14.172 -25.528  0.00  0.00    -0.270 OA
ATOM      3  N   UNL     1      33.013 -15.555 -21.634  0.00  0.00    -0.282 N 
ATOM      4  N   UNL     1      34.218 -15.534 -24.395  0.00  0.00    -0.272 N 
ATOM      5  N   UNL     1      32.934 -17.530 -20.580  0.00  0.00    -0.244 NA
ATOM      6  C   UNL     1      34.010 -16.340 -22.177  0.00  0.00    +0.141 C 
ATOM      7  C   UNL     1      34.963 -15.835 -23.185  0.00  0.00    +0.120 C 
ATOM      8  C   UNL     1      32.721 -14.213 -21.978  0.00  0.00    +0.054 C 
ATOM      9  C   UNL     1      32.968 -13.688 -23.264  0.00  0.00    +0.069 C 
ATOM     10  C   UNL     1      33.918 -17.550 -21.527  0.00  0.00    +0.151 C 
ATOM     11  C   UNL     1      33.303 -14.485 -24.483  0.00  0.00    +0.250 C 
ATOM     12  C   UNL     1      32.427 -16.319 -20.648  0.00  0.00    +0.220 C 
ATOM     13  C   UNL     1      32.185 -13.379 -20.981  0.00  0.00    +0.017 C 
ATOM     14  C   UNL     1      34.495 -16.367 -25.558  0.00  0.00    +0.115 C 
ATOM     15  C   UNL     1      32.712 -12.323 -23.500  0.00  0.00    +0.035 C 
ATOM     16  C   UNL     1      31.937 -12.031 -21.237  0.00  0.00    +0.031 C 
ATOM     17  C   UNL     1      32.210 -11.501 -22.492  0.00  0.00    +0.140 C 
ENDROOT
BRANCH  10  19
ATOM     18  O   UNL     1      34.929 -19.256 -22.851  0.00  0.00    -0.244 OA
ATOM     19  C   UNL     1      34.741 -18.703 -21.746  0.00  0.00    +0.356 C 
BRANCH  19  20
ATOM     20  O   UNL     1      35.327 -19.157 -20.586  0.00  0.00    -0.445 OA
BRANCH  20  21
ATOM     21  C   UNL     1      35.126 -20.530 -20.231  0.00  0.00    +0.209 C 
ATOM     22  C   UNL     1      36.455 -21.139 -19.844  0.00  0.00    +0.051 C 
ENDBRANCH  20  21
ENDBRANCH  19  20
ENDBRANCH  10  19
TORSDOF 3
ENDMDL
MODEL 9
REMARK VINA RESULT:      -8.1     14.416     17.114
REMARK  Name = 3373
REMARK  3 active torsions:
REMARK  status: ('A' for Active; 'I' for Inactive)
REMARK    1  A    between atoms: C_10  and  C_19
REMARK    2  A    between atoms: C_19  and  O_20
REMARK    3  A    between atoms: O_20  and  C_21
REMARK                            x       y       z     vdW  Elec       q    Type
REMARK                         _______ _______ _______ _____ _____    ______ ____
ROOT
ATOM      1  F   UNL     1      40.285 -25.964 -13.547  0.00  0.00    -0.204 F 
ATOM      2  O   UNL     1      37.963 -22.374 -15.954  0.00  0.00    -0.270 OA
ATOM      3  N   UNL     1      34.998 -24.257 -13.759  0.00  0.00    -0.282 N 
ATOM      4  N   UNL     1      35.828 -23.136 -16.429  0.00  0.00    -0.272 N 
ATOM      5  N   UNL     1      32.916 -23.797 -13.073  0.00  0.00    -0.244 NA
ATOM      6  C   UNL     1      34.249 -24.002 -14.890  0.00  0.00    +0.141 C 
ATOM      7  C   UNL     1      34.794 -24.140 -16.255  0.00  0.00    +0.120 C 
ATOM      8  C   UNL     1      36.364 -24.625 -13.723  0.00  0.00    +0.054 C 
ATOM      9  C   UNL     1      37.286 -24.223 -14.713  0.00  0.00    +0.069 C 
ATOM     10  C   UNL     1      32.986 -23.699 -14.433  0.00  0.00    +0.151 C 
ATOM     11  C   UNL     1      37.048 -23.176 -15.753  0.00  0.00    +0.250 C 
ATOM     12  C   UNL     1      34.124 -24.155 -12.699  0.00  0.00    +0.220 C 
ATOM     13  C   UNL     1      36.798 -25.443 -12.665  0.00  0.00    +0.017 C 
ATOM     14  C   UNL     1      35.556 -22.074 -17.389  0.00  0.00    +0.115 C 
ATOM     15  C   UNL     1      38.611 -24.692 -14.636  0.00  0.00    +0.035 C 
ATOM     16  C   UNL     1      38.117 -25.896 -12.609  0.00  0.00    +0.031 C 
ATOM     17  C   UNL     1      39.019 -25.529 -13.599  0.00  0.00    +0.140 C 
ENDROOT
BRANCH  10  19
ATOM     18  O   UNL     1      31.892 -22.910 -16.400  0.00  0.00    -0.244 OA
ATOM     19  C   UNL     1      31.848 -23.356 -15.232  0.00  0.00    +0.356 C 
BRANCH  19  20
ATOM     20  O   UNL     1      30.659 -23.572 -14.572  0.00  0.00    -0.445 OA
BRANCH  20  21
ATOM     21  C   UNL     1      29.785 -24.582 -15.087  0.00  0.00    +0.209 C 
ATOM     22  C   UNL     1      28.593 -23.917 -15.741  0.00  0.00    +0.051 C 
ENDBRANCH  20  21
ENDBRANCH  19  20
ENDBRANCH  10  19
TORSDOF 3
ENDMDL
