MODEL 1
REMARK VINA RESULT:     -11.4      0.000      0.000
REMARK  Name = 4470378
REMARK  6 active torsions:
REMARK  status: ('A' for Active; 'I' for Inactive)
REMARK    1  A    between atoms: C_5  and  O_10
REMARK    2  A    between atoms: C_6  and  O_24
REMARK    3  A    between atoms: O_10  and  C_11
REMARK    4  A    between atoms: C_12  and  C_19
REMARK    5  A    between atoms: O_24  and  C_25
REMARK    6  A    between atoms: C_26  and  C_33
REMARK                            x       y       z     vdW  Elec       q    Type
REMARK                         _______ _______ _______ _____ _____    ______ ____
ROOT
ATOM      1  F   UNL     1      32.205 -23.729 -17.657  0.00  0.00    -0.221 F 
ATOM      2  F   UNL     1      34.288 -23.158 -13.423  0.00  0.00    -0.199 F 
ATOM      3  N   UNL     1      35.605 -22.810 -16.786  0.00  0.00    -0.331 NA
ATOM      4  C   UNL     1      33.200 -23.457 -15.515  0.00  0.00    +0.031 C 
ATOM      5  C   UNL     1      34.488 -23.113 -17.485  0.00  0.00    +0.298 C 
ATOM      6  C   UNL     1      35.483 -22.841 -15.446  0.00  0.00    +0.312 C 
ATOM      7  C   UNL     1      33.273 -23.439 -16.904  0.00  0.00    +0.270 C 
ATOM      8  C   UNL     1      34.328 -23.151 -14.761  0.00  0.00    +0.201 C 
ATOM      9  C   UNL     1      31.918 -23.802 -14.837  0.00  0.00    +0.032 C 
ENDROOT
BRANCH   5  10
ATOM     10  O   UNL     1      34.586 -23.090 -18.851  0.00  0.00    -0.428 OA
BRANCH  10  11
ATOM     11  C   UNL     1      34.356 -21.885 -19.484  0.00  0.00    +0.148 C 
ATOM     12  C   UNL     1      35.197 -19.942 -20.613  0.00  0.00    +0.032 C 
ATOM     13  C   UNL     1      35.431 -21.161 -19.973  0.00  0.00    +0.040 C 
ATOM     14  C   UNL     1      33.056 -21.427 -19.616  0.00  0.00    +0.038 C 
ATOM     15  C   UNL     1      33.894 -19.467 -20.754  0.00  0.00    +0.003 C 
ATOM     16  C   UNL     1      32.823 -20.209 -20.255  0.00  0.00    +0.003 C 
BRANCH  12  19
ATOM     17  N   UNL     1      36.104 -18.221 -22.056  0.00  0.00    -0.387 N 
ATOM     18  N   UNL     1      37.557 -19.401 -20.691  0.00  0.00    -0.345 N 
ATOM     19  C   UNL     1      36.307 -19.173 -21.129  0.00  0.00    +0.096 C 
ATOM     20  H   UNL     1      36.865 -17.701 -22.403  0.00  0.00    +0.157 HD
ATOM     21  H   UNL     1      35.194 -18.043 -22.388  0.00  0.00    +0.157 HD
ATOM     22  H   UNL     1      38.308 -18.873 -21.048  0.00  0.00    +0.144 HD
ATOM     23  H   UNL     1      37.722 -20.096 -20.013  0.00  0.00    +0.144 HD
ENDBRANCH  12  19
ENDBRANCH  10  11
ENDBRANCH   5  10
BRANCH   6  24
ATOM     24  O   UNL     1      36.621 -22.535 -14.719  0.00  0.00    -0.426 OA
BRANCH  24  25
ATOM     25  C   UNL     1      37.272 -23.558 -14.102  0.00  0.00    +0.148 C 
ATOM     26  C   UNL     1      38.986 -25.261 -14.118  0.00  0.00    +0.034 C 
ATOM     27  C   UNL     1      38.320 -24.211 -14.751  0.00  0.00    +0.040 C 
ATOM     28  C   UNL     1      36.889 -23.956 -12.821  0.00  0.00    +0.038 C 
ATOM     29  C   UNL     1      38.603 -25.659 -12.837  0.00  0.00    +0.003 C 
ATOM     30  C   UNL     1      37.555 -25.006 -12.189  0.00  0.00    +0.003 C 
BRANCH  26  33
ATOM     31  N   UNL     1      40.958 -26.770 -14.099  0.00  0.00    -0.343 N 
ATOM     32  N   UNL     1      40.254 -25.776 -16.094  0.00  0.00    -0.285 NA
ATOM     33  C   UNL     1      40.078 -25.942 -14.795  0.00  0.00    +0.117 C 
ATOM     34  H   UNL     1      41.691 -27.221 -14.577  0.00  0.00    +0.144 HD
ATOM     35  H   UNL     1      40.846 -26.904 -13.130  0.00  0.00    +0.144 HD
ATOM     36  H   UNL     1      40.993 -26.236 -16.553  0.00  0.00    +0.188 HD
ENDBRANCH  26  33
ENDBRANCH  24  25
ENDBRANCH   6  24
TORSDOF 6
ENDMDL
MODEL 2
REMARK VINA RESULT:     -11.3      1.394      1.860
REMARK  Name = 4470378
REMARK  6 active torsions:
REMARK  status: ('A' for Active; 'I' for Inactive)
REMARK    1  A    between atoms: C_5  and  O_10
REMARK    2  A    between atoms: C_6  and  O_24
REMARK    3  A    between atoms: O_10  and  C_11
REMARK    4  A    between atoms: C_12  and  C_19
REMARK    5  A    between atoms: O_24  and  C_25
REMARK    6  A    between atoms: C_26  and  C_33
REMARK                            x       y       z     vdW  Elec       q    Type
REMARK                         _______ _______ _______ _____ _____    ______ ____
ROOT
ATOM      1  F   UNL     1      31.176 -23.107 -17.215  0.00  0.00    -0.221 F 
ATOM      2  F   UNL     1      33.789 -23.522 -13.266  0.00  0.00    -0.199 F 
ATOM      3  N   UNL     1      34.771 -23.043 -16.725  0.00  0.00    -0.331 NA
ATOM      4  C   UNL     1      32.438 -23.320 -15.211  0.00  0.00    +0.031 C 
ATOM      5  C   UNL     1      33.544 -23.013 -17.294  0.00  0.00    +0.298 C 
ATOM      6  C   UNL     1      34.794 -23.214 -15.391  0.00  0.00    +0.312 C 
ATOM      7  C   UNL     1      32.359 -23.145 -16.588  0.00  0.00    +0.270 C 
ATOM      8  C   UNL     1      33.682 -23.356 -14.590  0.00  0.00    +0.201 C 
ATOM      9  C   UNL     1      31.193 -23.469 -14.403  0.00  0.00    +0.032 C 
ENDROOT
BRANCH   5  10
ATOM     10  O   UNL     1      33.494 -22.841 -18.652  0.00  0.00    -0.428 OA
BRANCH  10  11
ATOM     11  C   UNL     1      34.367 -21.929 -19.209  0.00  0.00    +0.148 C 
ATOM     12  C   UNL     1      34.761 -20.038 -20.632  0.00  0.00    +0.032 C 
ATOM     13  C   UNL     1      33.877 -20.959 -20.068  0.00  0.00    +0.040 C 
ATOM     14  C   UNL     1      35.715 -22.004 -18.898  0.00  0.00    +0.038 C 
ATOM     15  C   UNL     1      36.121 -20.100 -20.329  0.00  0.00    +0.003 C 
ATOM     16  C   UNL     1      36.598 -21.083 -19.461  0.00  0.00    +0.003 C 
BRANCH  12  19
ATOM     17  N   UNL     1      33.701 -17.900 -21.048  0.00  0.00    -0.387 N 
ATOM     18  N   UNL     1      34.365 -19.179 -22.862  0.00  0.00    -0.345 N 
ATOM     19  C   UNL     1      34.267 -19.019 -21.531  0.00  0.00    +0.096 C 
ATOM     20  H   UNL     1      33.367 -17.211 -21.666  0.00  0.00    +0.157 HD
ATOM     21  H   UNL     1      33.621 -17.769 -20.075  0.00  0.00    +0.157 HD
ATOM     22  H   UNL     1      34.025 -18.481 -23.468  0.00  0.00    +0.144 HD
ATOM     23  H   UNL     1      34.776 -19.994 -23.231  0.00  0.00    +0.144 HD
ENDBRANCH  12  19
ENDBRANCH  10  11
ENDBRANCH   5  10
BRANCH   6  24
ATOM     24  O   UNL     1      36.045 -23.248 -14.799  0.00  0.00    -0.426 OA
BRANCH  24  25
ATOM     25  C   UNL     1      36.728 -24.424 -14.831  0.00  0.00    +0.148 C 
ATOM     26  C   UNL     1      38.814 -25.637 -14.702  0.00  0.00    +0.034 C 
ATOM     27  C   UNL     1      38.114 -24.431 -14.667  0.00  0.00    +0.040 C 
ATOM     28  C   UNL     1      36.044 -25.623 -15.030  0.00  0.00    +0.038 C 
ATOM     29  C   UNL     1      38.130 -26.836 -14.901  0.00  0.00    +0.003 C 
ATOM     30  C   UNL     1      36.745 -26.829 -15.065  0.00  0.00    +0.003 C 
BRANCH  26  33
ATOM     31  N   UNL     1      40.939 -26.802 -14.160  0.00  0.00    -0.343 N 
ATOM     32  N   UNL     1      40.950 -24.534 -14.724  0.00  0.00    -0.285 NA
ATOM     33  C   UNL     1      40.259 -25.643 -14.531  0.00  0.00    +0.117 C 
ATOM     34  H   UNL     1      41.917 -26.785 -14.050  0.00  0.00    +0.144 HD
ATOM     35  H   UNL     1      40.442 -27.638 -14.008  0.00  0.00    +0.144 HD
ATOM     36  H   UNL     1      41.927 -24.538 -14.609  0.00  0.00    +0.188 HD
ENDBRANCH  26  33
ENDBRANCH  24  25
ENDBRANCH   6  24
TORSDOF 6
ENDMDL
MODEL 3
REMARK VINA RESULT:     -11.2      2.766      5.010
REMARK  Name = 4470378
REMARK  6 active torsions:
REMARK  status: ('A' for Active; 'I' for Inactive)
REMARK    1  A    between atoms: C_5  and  O_10
REMARK    2  A    between atoms: C_6  and  O_24
REMARK    3  A    between atoms: O_10  and  C_11
REMARK    4  A    between atoms: C_12  and  C_19
REMARK    5  A    between atoms: O_24  and  C_25
REMARK    6  A    between atoms: C_26  and  C_33
REMARK                            x       y       z     vdW  Elec       q    Type
REMARK                         _______ _______ _______ _____ _____    ______ ____
ROOT
ATOM      1  F   UNL     1      33.901 -22.628 -19.529  0.00  0.00    -0.221 F 
ATOM      2  F   UNL     1      37.688 -21.137 -17.074  0.00  0.00    -0.199 F 
ATOM      3  N   UNL     1      34.825 -23.120 -16.055  0.00  0.00    -0.331 NA
ATOM      4  C   UNL     1      35.813 -21.858 -18.345  0.00  0.00    +0.031 C 
ATOM      5  C   UNL     1      34.162 -23.159 -17.233  0.00  0.00    +0.298 C 
ATOM      6  C   UNL     1      35.984 -22.438 -16.058  0.00  0.00    +0.312 C 
ATOM      7  C   UNL     1      34.609 -22.551 -18.395  0.00  0.00    +0.270 C 
ATOM      8  C   UNL     1      36.525 -21.796 -17.152  0.00  0.00    +0.201 C 
ATOM      9  C   UNL     1      36.340 -21.183 -19.566  0.00  0.00    +0.032 C 
ENDROOT
BRANCH   5  10
ATOM     10  O   UNL     1      32.977 -23.846 -17.256  0.00  0.00    -0.428 OA
BRANCH  10  11
ATOM     11  C   UNL     1      32.005 -23.466 -16.353  0.00  0.00    +0.148 C 
ATOM     12  C   UNL     1      29.725 -22.886 -15.883  0.00  0.00    +0.032 C 
ATOM     13  C   UNL     1      30.707 -23.271 -16.797  0.00  0.00    +0.040 C 
ATOM     14  C   UNL     1      32.348 -23.287 -15.023  0.00  0.00    +0.038 C 
ATOM     15  C   UNL     1      30.055 -22.702 -14.541  0.00  0.00    +0.003 C 
ATOM     16  C   UNL     1      31.367 -22.902 -14.110  0.00  0.00    +0.003 C 
BRANCH  12  19
ATOM     17  N   UNL     1      27.433 -22.215 -15.479  0.00  0.00    -0.387 N 
ATOM     18  N   UNL     1      28.016 -22.948 -17.598  0.00  0.00    -0.345 N 
ATOM     19  C   UNL     1      28.366 -22.678 -16.329  0.00  0.00    +0.096 C 
ATOM     20  H   UNL     1      26.509 -22.077 -15.790  0.00  0.00    +0.157 HD
ATOM     21  H   UNL     1      27.674 -22.014 -14.545  0.00  0.00    +0.157 HD
ATOM     22  H   UNL     1      27.087 -22.805 -17.894  0.00  0.00    +0.144 HD
ATOM     23  H   UNL     1      28.687 -23.289 -18.232  0.00  0.00    +0.144 HD
ENDBRANCH  12  19
ENDBRANCH  10  11
ENDBRANCH   5  10
BRANCH   6  24
ATOM     24  O   UNL     1      36.672 -22.390 -14.857  0.00  0.00    -0.426 OA
BRANCH  24  25
ATOM     25  C   UNL     1      37.120 -23.565 -14.338  0.00  0.00    +0.148 C 
ATOM     26  C   UNL     1      38.757 -25.342 -14.290  0.00  0.00    +0.034 C 
ATOM     27  C   UNL     1      38.298 -24.137 -14.820  0.00  0.00    +0.040 C 
ATOM     28  C   UNL     1      36.401 -24.201 -13.326  0.00  0.00    +0.038 C 
ATOM     29  C   UNL     1      38.039 -25.977 -13.277  0.00  0.00    +0.003 C 
ATOM     30  C   UNL     1      36.861 -25.406 -12.795  0.00  0.00    +0.003 C 
BRANCH  26  33
ATOM     31  N   UNL     1      40.842 -26.648 -13.954  0.00  0.00    -0.343 N 
ATOM     32  N   UNL     1      40.309 -25.802 -16.067  0.00  0.00    -0.285 NA
ATOM     33  C   UNL     1      39.986 -25.937 -14.793  0.00  0.00    +0.117 C 
ATOM     34  H   UNL     1      41.668 -27.043 -14.315  0.00  0.00    +0.144 HD
ATOM     35  H   UNL     1      40.621 -26.757 -13.001  0.00  0.00    +0.144 HD
ATOM     36  H   UNL     1      41.140 -26.205 -16.408  0.00  0.00    +0.188 HD
ENDBRANCH  26  33
ENDBRANCH  24  25
ENDBRANCH   6  24
TORSDOF 6
ENDMDL
MODEL 4
REMARK VINA RESULT:     -11.0      3.278      5.513
REMARK  Name = 4470378
REMARK  6 active torsions:
REMARK  status: ('A' for Active; 'I' for Inactive)
REMARK    1  A    between atoms: C_5  and  O_10
REMARK    2  A    between atoms: C_6  and  O_24
REMARK    3  A    between atoms: O_10  and  C_11
REMARK    4  A    between atoms: C_12  and  C_19
REMARK    5  A    between atoms: O_24  and  C_25
REMARK    6  A    between atoms: C_26  and  C_33
REMARK                            x       y       z     vdW  Elec       q    Type
REMARK                         _______ _______ _______ _____ _____    ______ ____
ROOT
ATOM      1  F   UNL     1      33.482 -22.432 -19.563  0.00  0.00    -0.221 F 
ATOM      2  F   UNL     1      37.607 -20.914 -17.753  0.00  0.00    -0.199 F 
ATOM      3  N   UNL     1      35.114 -23.183 -16.411  0.00  0.00    -0.331 NA
ATOM      4  C   UNL     1      35.553 -21.643 -18.702  0.00  0.00    +0.031 C 
ATOM      5  C   UNL     1      34.229 -23.157 -17.433  0.00  0.00    +0.298 C 
ATOM      6  C   UNL     1      36.212 -22.423 -16.568  0.00  0.00    +0.312 C 
ATOM      7  C   UNL     1      34.400 -22.412 -18.589  0.00  0.00    +0.270 C 
ATOM      8  C   UNL     1      36.487 -21.643 -17.671  0.00  0.00    +0.201 C 
ATOM      9  C   UNL     1      35.787 -20.820 -19.924  0.00  0.00    +0.032 C 
ENDROOT
BRANCH   5  10
ATOM     10  O   UNL     1      33.101 -23.922 -17.296  0.00  0.00    -0.428 OA
BRANCH  10  11
ATOM     11  C   UNL     1      32.162 -23.509 -16.373  0.00  0.00    +0.148 C 
ATOM     12  C   UNL     1      29.905 -22.886 -15.847  0.00  0.00    +0.032 C 
ATOM     13  C   UNL     1      30.854 -23.305 -16.781  0.00  0.00    +0.040 C 
ATOM     14  C   UNL     1      32.548 -23.307 -15.058  0.00  0.00    +0.038 C 
ATOM     15  C   UNL     1      30.278 -22.679 -14.520  0.00  0.00    +0.003 C 
ATOM     16  C   UNL     1      31.599 -22.889 -14.125  0.00  0.00    +0.003 C 
BRANCH  12  19
ATOM     17  N   UNL     1      28.143 -22.965 -17.507  0.00  0.00    -0.387 N 
ATOM     18  N   UNL     1      27.639 -22.164 -15.392  0.00  0.00    -0.345 N 
ATOM     19  C   UNL     1      28.536 -22.668 -16.256  0.00  0.00    +0.096 C 
ATOM     20  H   UNL     1      27.209 -22.813 -17.778  0.00  0.00    +0.157 HD
ATOM     21  H   UNL     1      28.789 -23.334 -18.152  0.00  0.00    +0.157 HD
ATOM     22  H   UNL     1      26.708 -22.017 -15.679  0.00  0.00    +0.144 HD
ATOM     23  H   UNL     1      27.912 -21.940 -14.473  0.00  0.00    +0.144 HD
ENDBRANCH  12  19
ENDBRANCH  10  11
ENDBRANCH   5  10
BRANCH   6  24
ATOM     24  O   UNL     1      37.125 -22.440 -15.527  0.00  0.00    -0.426 OA
BRANCH  24  25
ATOM     25  C   UNL     1      37.104 -23.509 -14.686  0.00  0.00    +0.148 C 
ATOM     26  C   UNL     1      36.640 -24.451 -12.510  0.00  0.00    +0.034 C 
ATOM     27  C   UNL     1      36.660 -23.355 -13.372  0.00  0.00    +0.040 C 
ATOM     28  C   UNL     1      37.529 -24.759 -15.136  0.00  0.00    +0.038 C 
ATOM     29  C   UNL     1      37.065 -25.701 -12.959  0.00  0.00    +0.003 C 
ATOM     30  C   UNL     1      37.509 -25.855 -14.273  0.00  0.00    +0.003 C 
BRANCH  26  33
ATOM     31  N   UNL     1      36.677 -23.281 -10.320  0.00  0.00    -0.343 N 
ATOM     32  N   UNL     1      35.267 -25.114 -10.652  0.00  0.00    -0.285 NA
ATOM     33  C   UNL     1      36.176 -24.290 -11.140  0.00  0.00    +0.117 C 
ATOM     34  H   UNL     1      36.350 -23.190  -9.396  0.00  0.00    +0.144 HD
ATOM     35  H   UNL     1      37.358 -22.658 -10.664  0.00  0.00    +0.144 HD
ATOM     36  H   UNL     1      34.953 -25.006  -9.725  0.00  0.00    +0.188 HD
ENDBRANCH  26  33
ENDBRANCH  24  25
ENDBRANCH   6  24
TORSDOF 6
ENDMDL
MODEL 5
REMARK VINA RESULT:     -10.9      3.047      7.761
REMARK  Name = 4470378
REMARK  6 active torsions:
REMARK  status: ('A' for Active; 'I' for Inactive)
REMARK    1  A    between atoms: C_5  and  O_10
REMARK    2  A    between atoms: C_6  and  O_24
REMARK    3  A    between atoms: O_10  and  C_11
REMARK    4  A    between atoms: C_12  and  C_19
REMARK    5  A    between atoms: O_24  and  C_25
REMARK    6  A    between atoms: C_26  and  C_33
REMARK                            x       y       z     vdW  Elec       q    Type
REMARK                         _______ _______ _______ _____ _____    ______ ____
ROOT
ATOM      1  F   UNL     1      37.455 -20.414 -18.669  0.00  0.00    -0.221 F 
ATOM      2  F   UNL     1      33.260 -22.373 -19.740  0.00  0.00    -0.199 F 
ATOM      3  N   UNL     1      35.491 -22.922 -16.933  0.00  0.00    -0.331 NA
ATOM      4  C   UNL     1      35.355 -21.364 -19.250  0.00  0.00    +0.031 C 
ATOM      5  C   UNL     1      36.470 -22.050 -17.265  0.00  0.00    +0.298 C 
ATOM      6  C   UNL     1      34.454 -22.989 -17.786  0.00  0.00    +0.312 C 
ATOM      7  C   UNL     1      36.450 -21.256 -18.400  0.00  0.00    +0.270 C 
ATOM      8  C   UNL     1      34.327 -22.249 -18.942  0.00  0.00    +0.201 C 
ATOM      9  C   UNL     1      35.282 -20.534 -20.486  0.00  0.00    +0.032 C 
ENDROOT
BRANCH   5  10
ATOM     10  O   UNL     1      37.539 -21.964 -16.412  0.00  0.00    -0.428 OA
BRANCH  10  11
ATOM     11  C   UNL     1      37.646 -22.926 -15.429  0.00  0.00    +0.148 C 
ATOM     12  C   UNL     1      37.010 -23.768 -13.273  0.00  0.00    +0.032 C 
ATOM     13  C   UNL     1      36.901 -22.795 -14.268  0.00  0.00    +0.040 C 
ATOM     14  C   UNL     1      38.497 -24.002 -15.622  0.00  0.00    +0.038 C 
ATOM     15  C   UNL     1      37.862 -24.857 -13.454  0.00  0.00    +0.003 C 
ATOM     16  C   UNL     1      38.606 -24.974 -14.628  0.00  0.00    +0.003 C 
BRANCH  12  19
ATOM     17  N   UNL     1      34.897 -23.619 -12.100  0.00  0.00    -0.387 N 
ATOM     18  N   UNL     1      36.856 -23.557 -10.866  0.00  0.00    -0.345 N 
ATOM     19  C   UNL     1      36.240 -23.646 -12.056  0.00  0.00    +0.096 C 
ATOM     20  H   UNL     1      34.379 -23.536 -11.267  0.00  0.00    +0.157 HD
ATOM     21  H   UNL     1      34.430 -23.683 -12.965  0.00  0.00    +0.157 HD
ATOM     22  H   UNL     1      36.324 -23.473 -10.041  0.00  0.00    +0.144 HD
ATOM     23  H   UNL     1      37.839 -23.574 -10.818  0.00  0.00    +0.144 HD
ENDBRANCH  12  19
ENDBRANCH  10  11
ENDBRANCH   5  10
BRANCH   6  24
ATOM     24  O   UNL     1      33.445 -23.879 -17.457  0.00  0.00    -0.426 OA
BRANCH  24  25
ATOM     25  C   UNL     1      32.551 -23.498 -16.505  0.00  0.00    +0.148 C 
ATOM     26  C   UNL     1      30.303 -22.871 -15.878  0.00  0.00    +0.034 C 
ATOM     27  C   UNL     1      31.220 -23.263 -16.853  0.00  0.00    +0.040 C 
ATOM     28  C   UNL     1      32.964 -23.340 -15.183  0.00  0.00    +0.038 C 
ATOM     29  C   UNL     1      30.717 -22.713 -14.555  0.00  0.00    +0.003 C 
ATOM     30  C   UNL     1      32.047 -22.948 -14.207  0.00  0.00    +0.003 C 
BRANCH  26  33
ATOM     31  N   UNL     1      28.384 -23.106 -17.435  0.00  0.00    -0.343 N 
ATOM     32  N   UNL     1      28.137 -21.930 -15.431  0.00  0.00    -0.285 NA
ATOM     33  C   UNL     1      28.916 -22.626 -16.240  0.00  0.00    +0.117 C 
ATOM     34  H   UNL     1      27.443 -22.929 -17.662  0.00  0.00    +0.144 HD
ATOM     35  H   UNL     1      28.949 -23.624 -18.054  0.00  0.00    +0.144 HD
ATOM     36  H   UNL     1      27.198 -21.764 -15.675  0.00  0.00    +0.188 HD
ENDBRANCH  26  33
ENDBRANCH  24  25
ENDBRANCH   6  24
TORSDOF 6
ENDMDL
MODEL 6
REMARK VINA RESULT:     -10.8      9.798     15.097
REMARK  Name = 4470378
REMARK  6 active torsions:
REMARK  status: ('A' for Active; 'I' for Inactive)
REMARK    1  A    between atoms: C_5  and  O_10
REMARK    2  A    between atoms: C_6  and  O_24
REMARK    3  A    between atoms: O_10  and  C_11
REMARK    4  A    between atoms: C_12  and  C_19
REMARK    5  A    between atoms: O_24  and  C_25
REMARK    6  A    between atoms: C_26  and  C_33
REMARK                            x       y       z     vdW  Elec       q    Type
REMARK                         _______ _______ _______ _____ _____    ______ ____
ROOT
ATOM      1  F   UNL     1      32.557 -14.112 -25.615  0.00  0.00    -0.221 F 
ATOM      2  F   UNL     1      35.338 -10.375 -26.562  0.00  0.00    -0.199 F 
ATOM      3  N   UNL     1      33.788 -11.460 -23.466  0.00  0.00    -0.331 NA
ATOM      4  C   UNL     1      33.951 -12.258 -26.140  0.00  0.00    +0.031 C 
ATOM      5  C   UNL     1      33.157 -12.567 -23.920  0.00  0.00    +0.298 C 
ATOM      6  C   UNL     1      34.493 -10.772 -24.382  0.00  0.00    +0.312 C 
ATOM      7  C   UNL     1      33.207 -13.005 -25.233  0.00  0.00    +0.270 C 
ATOM      8  C   UNL     1      34.613 -11.113 -25.712  0.00  0.00    +0.201 C 
ATOM      9  C   UNL     1      34.037 -12.683 -27.567  0.00  0.00    +0.032 C 
ENDROOT
BRANCH   5  10
ATOM     10  O   UNL     1      32.430 -13.284 -23.007  0.00  0.00    -0.428 OA
BRANCH  10  11
ATOM     11  C   UNL     1      33.096 -14.253 -22.284  0.00  0.00    +0.148 C 
ATOM     12  C   UNL     1      34.527 -16.178 -22.225  0.00  0.00    +0.032 C 
ATOM     13  C   UNL     1      33.854 -15.198 -22.956  0.00  0.00    +0.040 C 
ATOM     14  C   UNL     1      32.993 -14.260 -20.903  0.00  0.00    +0.038 C 
ATOM     15  C   UNL     1      34.433 -16.198 -20.834  0.00  0.00    +0.003 C 
ATOM     16  C   UNL     1      33.665 -15.239 -20.172  0.00  0.00    +0.003 C 
BRANCH  12  19
ATOM     17  N   UNL     1      36.052 -18.061 -22.213  0.00  0.00    -0.387 N 
ATOM     18  N   UNL     1      35.345 -17.220 -24.252  0.00  0.00    -0.345 N 
ATOM     19  C   UNL     1      35.322 -17.172 -22.910  0.00  0.00    +0.096 C 
ATOM     20  H   UNL     1      36.591 -18.734 -22.686  0.00  0.00    +0.157 HD
ATOM     21  H   UNL     1      36.046 -18.038 -21.228  0.00  0.00    +0.157 HD
ATOM     22  H   UNL     1      35.890 -17.899 -24.712  0.00  0.00    +0.144 HD
ATOM     23  H   UNL     1      34.818 -16.575 -24.777  0.00  0.00    +0.144 HD
ENDBRANCH  12  19
ENDBRANCH  10  11
ENDBRANCH   5  10
BRANCH   6  24
ATOM     24  O   UNL     1      35.142  -9.635 -23.930  0.00  0.00    -0.426 OA
BRANCH  24  25
ATOM     25  C   UNL     1      34.393  -8.516 -23.733  0.00  0.00    +0.148 C 
ATOM     26  C   UNL     1      33.030  -7.138 -22.290  0.00  0.00    +0.034 C 
ATOM     27  C   UNL     1      33.799  -8.284 -22.492  0.00  0.00    +0.040 C 
ATOM     28  C   UNL     1      34.217  -7.603 -24.772  0.00  0.00    +0.038 C 
ATOM     29  C   UNL     1      32.853  -6.224 -23.329  0.00  0.00    +0.003 C 
ATOM     30  C   UNL     1      33.448  -6.457 -24.570  0.00  0.00    +0.003 C 
BRANCH  26  33
ATOM     31  N   UNL     1      32.704  -7.694 -19.892  0.00  0.00    -0.343 N 
ATOM     32  N   UNL     1      31.546  -5.907 -20.855  0.00  0.00    -0.285 NA
ATOM     33  C   UNL     1      32.410  -6.896 -20.996  0.00  0.00    +0.117 C 
ATOM     34  H   UNL     1      32.274  -7.513 -19.026  0.00  0.00    +0.144 HD
ATOM     35  H   UNL     1      33.343  -8.438 -19.978  0.00  0.00    +0.144 HD
ATOM     36  H   UNL     1      31.126  -5.742 -19.980  0.00  0.00    +0.188 HD
ENDBRANCH  26  33
ENDBRANCH  24  25
ENDBRANCH   6  24
TORSDOF 6
ENDMDL
MODEL 7
REMARK VINA RESULT:     -10.8      0.386      7.634
REMARK  Name = 4470378
REMARK  6 active torsions:
REMARK  status: ('A' for Active; 'I' for Inactive)
REMARK    1  A    between atoms: C_5  and  O_10
REMARK    2  A    between atoms: C_6  and  O_24
REMARK    3  A    between atoms: O_10  and  C_11
REMARK    4  A    between atoms: C_12  and  C_19
REMARK    5  A    between atoms: O_24  and  C_25
REMARK    6  A    between atoms: C_26  and  C_33
REMARK                            x       y       z     vdW  Elec       q    Type
REMARK                         _______ _______ _______ _____ _____    ______ ____
ROOT
ATOM      1  F   UNL     1      33.638 -23.169 -13.427  0.00  0.00    -0.221 F 
ATOM      2  F   UNL     1      32.046 -23.634 -17.881  0.00  0.00    -0.199 F 
ATOM      3  N   UNL     1      35.348 -22.834 -16.610  0.00  0.00    -0.331 NA
ATOM      4  C   UNL     1      32.792 -23.412 -15.636  0.00  0.00    +0.031 C 
ATOM      5  C   UNL     1      35.081 -22.869 -15.284  0.00  0.00    +0.298 C 
ATOM      6  C   UNL     1      34.309 -23.093 -17.423  0.00  0.00    +0.312 C 
ATOM      7  C   UNL     1      33.834 -23.151 -14.751  0.00  0.00    +0.270 C 
ATOM      8  C   UNL     1      33.028 -23.385 -17.006  0.00  0.00    +0.201 C 
ATOM      9  C   UNL     1      31.429 -23.720 -15.117  0.00  0.00    +0.032 C 
ENDROOT
BRANCH   5  10
ATOM     10  O   UNL     1      36.123 -22.607 -14.435  0.00  0.00    -0.428 OA
BRANCH  10  11
ATOM     11  C   UNL     1      36.801 -23.688 -13.909  0.00  0.00    +0.148 C 
ATOM     12  C   UNL     1      38.635 -25.232 -14.004  0.00  0.00    +0.032 C 
ATOM     13  C   UNL     1      37.950 -24.138 -14.536  0.00  0.00    +0.040 C 
ATOM     14  C   UNL     1      36.317 -24.299 -12.764  0.00  0.00    +0.038 C 
ATOM     15  C   UNL     1      38.160 -25.858 -12.852  0.00  0.00    +0.003 C 
ATOM     16  C   UNL     1      37.001 -25.392 -12.232  0.00  0.00    +0.003 C 
BRANCH  12  19
ATOM     17  N   UNL     1      40.643 -26.586 -14.017  0.00  0.00    -0.387 N 
ATOM     18  N   UNL     1      40.163 -25.298 -15.882  0.00  0.00    -0.345 N 
ATOM     19  C   UNL     1      39.836 -25.715 -14.647  0.00  0.00    +0.096 C 
ATOM     20  H   UNL     1      41.459 -26.910 -14.461  0.00  0.00    +0.157 HD
ATOM     21  H   UNL     1      40.417 -26.900 -13.111  0.00  0.00    +0.157 HD
ATOM     22  H   UNL     1      40.984 -25.631 -16.313  0.00  0.00    +0.144 HD
ATOM     23  H   UNL     1      39.583 -24.659 -16.355  0.00  0.00    +0.144 HD
ENDBRANCH  12  19
ENDBRANCH  10  11
ENDBRANCH   5  10
BRANCH   6  24
ATOM     24  O   UNL     1      34.570 -23.058 -18.783  0.00  0.00    -0.426 OA
BRANCH  24  25
ATOM     25  C   UNL     1      34.361 -21.883 -19.436  0.00  0.00    +0.148 C 
ATOM     26  C   UNL     1      35.231 -19.949 -20.594  0.00  0.00    +0.034 C 
ATOM     27  C   UNL     1      35.445 -21.154 -19.925  0.00  0.00    +0.040 C 
ATOM     28  C   UNL     1      33.062 -21.406 -19.616  0.00  0.00    +0.038 C 
ATOM     29  C   UNL     1      33.933 -19.472 -20.773  0.00  0.00    +0.003 C 
ATOM     30  C   UNL     1      32.848 -20.201 -20.285  0.00  0.00    +0.003 C 
BRANCH  26  33
ATOM     31  N   UNL     1      36.199 -18.229 -22.100  0.00  0.00    -0.343 N 
ATOM     32  N   UNL     1      37.573 -19.409 -20.623  0.00  0.00    -0.285 NA
ATOM     33  C   UNL     1      36.362 -19.189 -21.103  0.00  0.00    +0.117 C 
ATOM     34  H   UNL     1      36.978 -17.726 -22.430  0.00  0.00    +0.144 HD
ATOM     35  H   UNL     1      35.305 -18.052 -22.473  0.00  0.00    +0.144 HD
ATOM     36  H   UNL     1      38.339 -18.895 -20.967  0.00  0.00    +0.188 HD
ENDBRANCH  26  33
ENDBRANCH  24  25
ENDBRANCH   6  24
TORSDOF 6
ENDMDL
MODEL 8
REMARK VINA RESULT:     -10.8     10.082     14.215
REMARK  Name = 4470378
REMARK  6 active torsions:
REMARK  status: ('A' for Active; 'I' for Inactive)
REMARK    1  A    between atoms: C_5  and  O_10
REMARK    2  A    between atoms: C_6  and  O_24
REMARK    3  A    between atoms: O_10  and  C_11
REMARK    4  A    between atoms: C_12  and  C_19
REMARK    5  A    between atoms: O_24  and  C_25
REMARK    6  A    between atoms: C_26  and  C_33
REMARK                            x       y       z     vdW  Elec       q    Type
REMARK                         _______ _______ _______ _____ _____    ______ ____
ROOT
ATOM      1  F   UNL     1      35.666  -9.997 -26.325  0.00  0.00    -0.221 F 
ATOM      2  F   UNL     1      32.867 -13.801 -25.792  0.00  0.00    -0.199 F 
ATOM      3  N   UNL     1      33.701 -11.124 -23.491  0.00  0.00    -0.331 NA
ATOM      4  C   UNL     1      34.278 -11.915 -26.109  0.00  0.00    +0.031 C 
ATOM      5  C   UNL     1      34.524 -10.405 -24.288  0.00  0.00    +0.298 C 
ATOM      6  C   UNL     1      33.181 -12.237 -24.038  0.00  0.00    +0.312 C 
ATOM      7  C   UNL     1      34.841 -10.754 -25.591  0.00  0.00    +0.270 C 
ATOM      8  C   UNL     1      33.425 -12.680 -25.320  0.00  0.00    +0.201 C 
ATOM      9  C   UNL     1      34.586 -12.338 -27.505  0.00  0.00    +0.032 C 
ENDROOT
BRANCH   5  10
ATOM     10  O   UNL     1      35.068  -9.268 -23.753  0.00  0.00    -0.428 OA
BRANCH  10  11
ATOM     11  C   UNL     1      34.246  -8.165 -23.638  0.00  0.00    +0.148 C 
ATOM     12  C   UNL     1      32.758  -6.816 -22.325  0.00  0.00    +0.032 C 
ATOM     13  C   UNL     1      33.590  -7.931 -22.441  0.00  0.00    +0.040 C 
ATOM     14  C   UNL     1      34.095  -7.316 -24.722  0.00  0.00    +0.038 C 
ATOM     15  C   UNL     1      32.596  -5.952 -23.407  0.00  0.00    +0.003 C 
ATOM     16  C   UNL     1      33.264  -6.202 -24.606  0.00  0.00    +0.003 C 
BRANCH  12  19
ATOM     17  N   UNL     1      32.326  -7.296 -19.990  0.00  0.00    -0.387 N 
ATOM     18  N   UNL     1      31.149  -5.577 -21.004  0.00  0.00    -0.345 N 
ATOM     19  C   UNL     1      32.065  -6.558 -21.083  0.00  0.00    +0.096 C 
ATOM     20  H   UNL     1      31.850  -7.114 -19.148  0.00  0.00    +0.157 HD
ATOM     21  H   UNL     1      32.994  -8.018 -20.032  0.00  0.00    +0.157 HD
ATOM     22  H   UNL     1      30.681  -5.408 -20.155  0.00  0.00    +0.144 HD
ATOM     23  H   UNL     1      30.946  -5.029 -21.797  0.00  0.00    +0.144 HD
ENDBRANCH  12  19
ENDBRANCH  10  11
ENDBRANCH   5  10
BRANCH   6  24
ATOM     24  O   UNL     1      32.337 -12.981 -23.231  0.00  0.00    -0.426 OA
BRANCH  24  25
ATOM     25  C   UNL     1      32.898 -13.942 -22.447  0.00  0.00    +0.148 C 
ATOM     26  C   UNL     1      34.323 -15.879 -22.207  0.00  0.00    +0.034 C 
ATOM     27  C   UNL     1      33.749 -14.893 -23.010  0.00  0.00    +0.040 C 
ATOM     28  C   UNL     1      32.619 -13.978 -21.081  0.00  0.00    +0.038 C 
ATOM     29  C   UNL     1      34.044 -15.915 -20.841  0.00  0.00    +0.003 C 
ATOM     30  C   UNL     1      33.193 -14.964 -20.277  0.00  0.00    +0.003 C 
BRANCH  26  33
ATOM     31  N   UNL     1      35.475 -16.885 -24.163  0.00  0.00    -0.343 N 
ATOM     32  N   UNL     1      35.778 -17.783 -22.027  0.00  0.00    -0.285 NA
ATOM     33  C   UNL     1      35.210 -16.870 -22.794  0.00  0.00    +0.117 C 
ATOM     34  H   UNL     1      36.079 -17.565 -24.540  0.00  0.00    +0.144 HD
ATOM     35  H   UNL     1      35.059 -16.215 -24.753  0.00  0.00    +0.144 HD
ATOM     36  H   UNL     1      36.379 -18.454 -22.423  0.00  0.00    +0.188 HD
ENDBRANCH  26  33
ENDBRANCH  24  25
ENDBRANCH   6  24
TORSDOF 6
ENDMDL
MODEL 9
REMARK VINA RESULT:     -10.8      3.353      5.748
REMARK  Name = 4470378
REMARK  6 active torsions:
REMARK  status: ('A' for Active; 'I' for Inactive)
REMARK    1  A    between atoms: C_5  and  O_10
REMARK    2  A    between atoms: C_6  and  O_24
REMARK    3  A    between atoms: O_10  and  C_11
REMARK    4  A    between atoms: C_12  and  C_19
REMARK    5  A    between atoms: O_24  and  C_25
REMARK    6  A    between atoms: C_26  and  C_33
REMARK                            x       y       z     vdW  Elec       q    Type
REMARK                         _______ _______ _______ _____ _____    ______ ____
ROOT
ATOM      1  F   UNL     1      37.017 -20.956 -18.853  0.00  0.00    -0.221 F 
ATOM      2  F   UNL     1      35.714 -23.210 -14.876  0.00  0.00    -0.199 F 
ATOM      3  N   UNL     1      34.205 -23.146 -18.175  0.00  0.00    -0.331 NA
ATOM      4  C   UNL     1      36.408 -22.062 -16.838  0.00  0.00    +0.031 C 
ATOM      5  C   UNL     1      35.082 -22.325 -18.795  0.00  0.00    +0.298 C 
ATOM      6  C   UNL     1      34.461 -23.405 -16.880  0.00  0.00    +0.312 C 
ATOM      7  C   UNL     1      36.188 -21.763 -18.179  0.00  0.00    +0.270 C 
ATOM      8  C   UNL     1      35.528 -22.903 -16.166  0.00  0.00    +0.201 C 
ATOM      9  C   UNL     1      37.583 -21.484 -16.125  0.00  0.00    +0.032 C 
ENDROOT
BRANCH   5  10
ATOM     10  O   UNL     1      34.843 -22.044 -20.114  0.00  0.00    -0.428 OA
BRANCH  10  11
ATOM     11  C   UNL     1      34.269 -20.825 -20.410  0.00  0.00    +0.148 C 
ATOM     12  C   UNL     1      34.450 -18.617 -21.332  0.00  0.00    +0.032 C 
ATOM     13  C   UNL     1      35.031 -19.850 -21.034  0.00  0.00    +0.040 C 
ATOM     14  C   UNL     1      32.943 -20.600 -20.077  0.00  0.00    +0.038 C 
ATOM     15  C   UNL     1      33.117 -18.376 -21.003  0.00  0.00    +0.003 C 
ATOM     16  C   UNL     1      32.363 -19.367 -20.374  0.00  0.00    +0.003 C 
BRANCH  12  19
ATOM     17  N   UNL     1      36.176 -17.917 -22.881  0.00  0.00    -0.387 N 
ATOM     18  N   UNL     1      35.025 -16.292 -21.696  0.00  0.00    -0.345 N 
ATOM     19  C   UNL     1      35.231 -17.589 -21.983  0.00  0.00    +0.096 C 
ATOM     20  H   UNL     1      36.704 -17.211 -23.320  0.00  0.00    +0.157 HD
ATOM     21  H   UNL     1      36.339 -18.863 -23.101  0.00  0.00    +0.157 HD
ATOM     22  H   UNL     1      35.562 -15.598 -22.143  0.00  0.00    +0.144 HD
ATOM     23  H   UNL     1      34.338 -16.037 -21.039  0.00  0.00    +0.144 HD
ENDBRANCH  12  19
ENDBRANCH  10  11
ENDBRANCH   5  10
BRANCH   6  24
ATOM     24  O   UNL     1      33.568 -24.243 -16.233  0.00  0.00    -0.426 OA
BRANCH  24  25
ATOM     25  C   UNL     1      32.448 -23.684 -15.701  0.00  0.00    +0.148 C 
ATOM     26  C   UNL     1      30.106 -23.116 -15.878  0.00  0.00    +0.034 C 
ATOM     27  C   UNL     1      31.254 -23.690 -16.423  0.00  0.00    +0.040 C 
ATOM     28  C   UNL     1      32.493 -23.102 -14.434  0.00  0.00    +0.038 C 
ATOM     29  C   UNL     1      30.151 -22.534 -14.611  0.00  0.00    +0.003 C 
ATOM     30  C   UNL     1      31.344 -22.528 -13.889  0.00  0.00    +0.003 C 
BRANCH  26  33
ATOM     31  N   UNL     1      28.192 -24.312 -16.914  0.00  0.00    -0.343 N 
ATOM     32  N   UNL     1      28.349 -21.985 -17.067  0.00  0.00    -0.285 NA
ATOM     33  C   UNL     1      28.861 -23.122 -16.632  0.00  0.00    +0.117 C 
ATOM     34  H   UNL     1      27.352 -24.294 -17.426  0.00  0.00    +0.144 HD
ATOM     35  H   UNL     1      28.560 -25.170 -16.602  0.00  0.00    +0.144 HD
ATOM     36  H   UNL     1      27.507 -21.988 -17.576  0.00  0.00    +0.188 HD
ENDBRANCH  26  33
ENDBRANCH  24  25
ENDBRANCH   6  24
TORSDOF 6
ENDMDL
