MODEL 1
REMARK VINA RESULT:      -6.4      0.000      0.000
REMARK  Name = 338
REMARK  3 active torsions:
REMARK  status: ('A' for Active; 'I' for Inactive)
REMARK    1  A    between atoms: C_1  and  C_10
REMARK    2  A    between atoms: C_2  and  O_7
REMARK    3  A    between atoms: C_10  and  O_11
REMARK                            x       y       z     vdW  Elec       q    Type
REMARK                         _______ _______ _______ _____ _____    ______ ____
ROOT
ATOM      1  C   UNL     1      34.368 -21.338 -19.737  0.00  0.00    +0.109 C 
ATOM      2  C   UNL     1      33.782 -20.321 -20.490  0.00  0.00    +0.140 C 
ATOM      3  C   UNL     1      35.750 -21.360 -19.551  0.00  0.00    +0.009 C 
ATOM      4  C   UNL     1      34.578 -19.326 -21.058  0.00  0.00    +0.037 C 
ATOM      5  C   UNL     1      36.547 -20.366 -20.119  0.00  0.00    +0.000 C 
ATOM      6  C   UNL     1      35.961 -19.348 -20.872  0.00  0.00    +0.003 C 
ENDROOT
BRANCH   2   7
ATOM      7  O   UNL     1      32.434 -20.282 -20.684  0.00  0.00    -0.505 OA
ATOM      8  H   UNL     1      32.081 -19.842 -21.432  0.00  0.00    +0.292 HD
ENDBRANCH   2   7
BRANCH   1  10
ATOM      9  O   UNL     1      32.535 -22.204 -18.466  0.00  0.00    -0.245 OA
ATOM     10  C   UNL     1      33.556 -22.387 -19.137  0.00  0.00    +0.341 C 
BRANCH  10  11
ATOM     11  O   UNL     1      34.043 -23.631 -19.392  0.00  0.00    -0.477 OA
ATOM     12  H   UNL     1      33.992 -24.298 -18.736  0.00  0.00    +0.295 HD
ENDBRANCH  10  11
ENDBRANCH   1  10
TORSDOF 3
ENDMDL
MODEL 2
REMARK VINA RESULT:      -6.4      1.578      2.415
REMARK  Name = 338
REMARK  3 active torsions:
REMARK  status: ('A' for Active; 'I' for Inactive)
REMARK    1  A    between atoms: C_1  and  C_10
REMARK    2  A    between atoms: C_2  and  O_7
REMARK    3  A    between atoms: C_10  and  O_11
REMARK                            x       y       z     vdW  Elec       q    Type
REMARK                         _______ _______ _______ _____ _____    ______ ____
ROOT
ATOM      1  C   UNL     1      34.381 -21.359 -19.623  0.00  0.00    +0.109 C 
ATOM      2  C   UNL     1      35.478 -20.714 -20.192  0.00  0.00    +0.140 C 
ATOM      3  C   UNL     1      33.091 -20.883 -19.860  0.00  0.00    +0.009 C 
ATOM      4  C   UNL     1      35.286 -19.592 -20.999  0.00  0.00    +0.037 C 
ATOM      5  C   UNL     1      32.899 -19.761 -20.667  0.00  0.00    +0.000 C 
ATOM      6  C   UNL     1      33.997 -19.116 -21.237  0.00  0.00    +0.003 C 
ENDROOT
BRANCH   2   7
ATOM      7  O   UNL     1      36.745 -21.163 -19.971  0.00  0.00    -0.505 OA
ATOM      8  H   UNL     1      37.465 -20.563 -19.991  0.00  0.00    +0.292 HD
ENDBRANCH   2   7
BRANCH   1  10
ATOM      9  O   UNL     1      35.266 -22.580 -17.766  0.00  0.00    -0.245 OA
ATOM     10  C   UNL     1      34.559 -22.530 -18.776  0.00  0.00    +0.341 C 
BRANCH  10  11
ATOM     11  O   UNL     1      33.846 -23.602 -19.218  0.00  0.00    -0.477 OA
ATOM     12  H   UNL     1      33.638 -23.684 -20.127  0.00  0.00    +0.295 HD
ENDBRANCH  10  11
ENDBRANCH   1  10
TORSDOF 3
ENDMDL
MODEL 3
REMARK VINA RESULT:      -6.2      7.999      9.041
REMARK  Name = 338
REMARK  3 active torsions:
REMARK  status: ('A' for Active; 'I' for Inactive)
REMARK    1  A    between atoms: C_1  and  C_10
REMARK    2  A    between atoms: C_2  and  O_7
REMARK    3  A    between atoms: C_10  and  O_11
REMARK                            x       y       z     vdW  Elec       q    Type
REMARK                         _______ _______ _______ _____ _____    ______ ____
ROOT
ATOM      1  C   UNL     1      38.962 -25.651 -14.144  0.00  0.00    +0.109 C 
ATOM      2  C   UNL     1      37.740 -25.982 -14.727  0.00  0.00    +0.140 C 
ATOM      3  C   UNL     1      38.993 -24.915 -12.960  0.00  0.00    +0.009 C 
ATOM      4  C   UNL     1      36.548 -25.575 -14.128  0.00  0.00    +0.037 C 
ATOM      5  C   UNL     1      37.801 -24.508 -12.359  0.00  0.00    +0.000 C 
ATOM      6  C   UNL     1      36.578 -24.839 -12.943  0.00  0.00    +0.003 C 
ENDROOT
BRANCH   2   7
ATOM      7  O   UNL     1      37.689 -26.699 -15.885  0.00  0.00    -0.505 OA
ATOM      8  H   UNL     1      38.291 -26.513 -16.578  0.00  0.00    +0.292 HD
ENDBRANCH   2   7
BRANCH   1  10
ATOM      9  O   UNL     1      41.149 -26.621 -14.164  0.00  0.00    -0.245 OA
ATOM     10  C   UNL     1      40.218 -26.064 -14.754  0.00  0.00    +0.341 C 
BRANCH  10  11
ATOM     11  O   UNL     1      40.273 -25.769 -16.081  0.00  0.00    -0.477 OA
ATOM     12  H   UNL     1      40.049 -24.910 -16.379  0.00  0.00    +0.295 HD
ENDBRANCH  10  11
ENDBRANCH   1  10
TORSDOF 3
ENDMDL
MODEL 4
REMARK VINA RESULT:      -6.1      1.776      3.451
REMARK  Name = 338
REMARK  3 active torsions:
REMARK  status: ('A' for Active; 'I' for Inactive)
REMARK    1  A    between atoms: C_1  and  C_10
REMARK    2  A    between atoms: C_2  and  O_7
REMARK    3  A    between atoms: C_10  and  O_11
REMARK                            x       y       z     vdW  Elec       q    Type
REMARK                         _______ _______ _______ _____ _____    ______ ____
ROOT
ATOM      1  C   UNL     1      34.769 -20.106 -20.517  0.00  0.00    +0.109 C 
ATOM      2  C   UNL     1      33.516 -20.620 -20.188  0.00  0.00    +0.140 C 
ATOM      3  C   UNL     1      35.922 -20.686 -19.991  0.00  0.00    +0.009 C 
ATOM      4  C   UNL     1      33.415 -21.716 -19.330  0.00  0.00    +0.037 C 
ATOM      5  C   UNL     1      35.823 -21.782 -19.133  0.00  0.00    +0.000 C 
ATOM      6  C   UNL     1      34.569 -22.298 -18.803  0.00  0.00    +0.003 C 
ENDROOT
BRANCH   2   7
ATOM      7  O   UNL     1      32.377 -20.066 -20.691  0.00  0.00    -0.505 OA
ATOM      8  H   UNL     1      31.543 -20.434 -20.477  0.00  0.00    +0.292 HD
ENDBRANCH   2   7
BRANCH   1  10
ATOM      9  O   UNL     1      34.529 -18.930 -22.587  0.00  0.00    -0.245 OA
ATOM     10  C   UNL     1      34.896 -18.961 -21.409  0.00  0.00    +0.341 C 
BRANCH  10  11
ATOM     11  O   UNL     1      35.478 -17.892 -20.802  0.00  0.00    -0.477 OA
ATOM     12  H   UNL     1      36.366 -17.666 -21.000  0.00  0.00    +0.295 HD
ENDBRANCH  10  11
ENDBRANCH   1  10
TORSDOF 3
ENDMDL
MODEL 5
REMARK VINA RESULT:      -6.1      4.087      5.229
REMARK  Name = 338
REMARK  3 active torsions:
REMARK  status: ('A' for Active; 'I' for Inactive)
REMARK    1  A    between atoms: C_1  and  C_10
REMARK    2  A    between atoms: C_2  and  O_7
REMARK    3  A    between atoms: C_10  and  O_11
REMARK                            x       y       z     vdW  Elec       q    Type
REMARK                         _______ _______ _______ _____ _____    ______ ____
ROOT
ATOM      1  C   UNL     1      35.047 -17.631 -22.518  0.00  0.00    +0.109 C 
ATOM      2  C   UNL     1      34.920 -16.518 -23.348  0.00  0.00    +0.140 C 
ATOM      3  C   UNL     1      34.894 -18.914 -23.043  0.00  0.00    +0.009 C 
ATOM      4  C   UNL     1      34.639 -16.687 -24.704  0.00  0.00    +0.037 C 
ATOM      5  C   UNL     1      34.614 -19.084 -24.399  0.00  0.00    +0.000 C 
ATOM      6  C   UNL     1      34.487 -17.970 -25.230  0.00  0.00    +0.003 C 
ENDROOT
BRANCH   2   7
ATOM      7  O   UNL     1      35.064 -15.256 -22.853  0.00  0.00    -0.505 OA
ATOM      8  H   UNL     1      34.319 -14.796 -22.519  0.00  0.00    +0.292 HD
ENDBRANCH   2   7
BRANCH   1  10
ATOM      9  O   UNL     1      35.086 -16.474 -20.424  0.00  0.00    -0.245 OA
ATOM     10  C   UNL     1      35.338 -17.477 -21.099  0.00  0.00    +0.341 C 
BRANCH  10  11
ATOM     11  O   UNL     1      35.933 -18.579 -20.568  0.00  0.00    -0.477 OA
ATOM     12  H   UNL     1      36.592 -18.485 -19.910  0.00  0.00    +0.295 HD
ENDBRANCH  10  11
ENDBRANCH   1  10
TORSDOF 3
ENDMDL
MODEL 6
REMARK VINA RESULT:      -6.1      5.647      7.127
REMARK  Name = 338
REMARK  3 active torsions:
REMARK  status: ('A' for Active; 'I' for Inactive)
REMARK    1  A    between atoms: C_1  and  C_10
REMARK    2  A    between atoms: C_2  and  O_7
REMARK    3  A    between atoms: C_10  and  O_11
REMARK                            x       y       z     vdW  Elec       q    Type
REMARK                         _______ _______ _______ _____ _____    ______ ____
ROOT
ATOM      1  C   UNL     1      29.524 -23.652 -16.041  0.00  0.00    +0.109 C 
ATOM      2  C   UNL     1      30.810 -23.170 -16.285  0.00  0.00    +0.140 C 
ATOM      3  C   UNL     1      29.295 -24.516 -14.971  0.00  0.00    +0.009 C 
ATOM      4  C   UNL     1      31.867 -23.553 -15.460  0.00  0.00    +0.037 C 
ATOM      5  C   UNL     1      30.352 -24.900 -14.145  0.00  0.00    +0.000 C 
ATOM      6  C   UNL     1      31.639 -24.418 -14.390  0.00  0.00    +0.003 C 
ENDROOT
BRANCH   2   7
ATOM      7  O   UNL     1      31.054 -22.325 -17.327  0.00  0.00    -0.505 OA
ATOM      8  H   UNL     1      31.121 -21.403 -17.176  0.00  0.00    +0.292 HD
ENDBRANCH   2   7
BRANCH   1  10
ATOM      9  O   UNL     1      27.716 -24.041 -17.558  0.00  0.00    -0.245 OA
ATOM     10  C   UNL     1      28.407 -23.265 -16.891  0.00  0.00    +0.341 C 
BRANCH  10  11
ATOM     11  O   UNL     1      28.186 -21.923 -16.880  0.00  0.00    -0.477 OA
ATOM     12  H   UNL     1      28.357 -21.413 -17.647  0.00  0.00    +0.295 HD
ENDBRANCH  10  11
ENDBRANCH   1  10
TORSDOF 3
ENDMDL
MODEL 7
REMARK VINA RESULT:      -6.1      6.049      7.406
REMARK  Name = 338
REMARK  3 active torsions:
REMARK  status: ('A' for Active; 'I' for Inactive)
REMARK    1  A    between atoms: C_1  and  C_10
REMARK    2  A    between atoms: C_2  and  O_7
REMARK    3  A    between atoms: C_10  and  O_11
REMARK                            x       y       z     vdW  Elec       q    Type
REMARK                         _______ _______ _______ _____ _____    ______ ____
ROOT
ATOM      1  C   UNL     1      29.758 -23.672 -15.917  0.00  0.00    +0.109 C 
ATOM      2  C   UNL     1      29.642 -24.576 -14.863  0.00  0.00    +0.140 C 
ATOM      3  C   UNL     1      30.972 -23.027 -16.153  0.00  0.00    +0.009 C 
ATOM      4  C   UNL     1      30.740 -24.836 -14.043  0.00  0.00    +0.037 C 
ATOM      5  C   UNL     1      32.070 -23.286 -15.333  0.00  0.00    +0.000 C 
ATOM      6  C   UNL     1      31.955 -24.192 -14.278  0.00  0.00    +0.003 C 
ENDROOT
BRANCH   2   7
ATOM      7  O   UNL     1      28.464 -25.216 -14.616  0.00  0.00    -0.505 OA
ATOM      8  H   UNL     1      28.373 -26.125 -14.821  0.00  0.00    +0.292 HD
ENDBRANCH   2   7
BRANCH   1  10
ATOM      9  O   UNL     1      27.876 -24.230 -17.284  0.00  0.00    -0.245 OA
ATOM     10  C   UNL     1      28.624 -23.385 -16.785  0.00  0.00    +0.341 C 
BRANCH  10  11
ATOM     11  O   UNL     1      28.459 -22.051 -17.000  0.00  0.00    -0.477 OA
ATOM     12  H   UNL     1      29.027 -21.599 -17.593  0.00  0.00    +0.295 HD
ENDBRANCH  10  11
ENDBRANCH   1  10
TORSDOF 3
ENDMDL
MODEL 8
REMARK VINA RESULT:      -6.0      2.907      4.453
REMARK  Name = 338
REMARK  3 active torsions:
REMARK  status: ('A' for Active; 'I' for Inactive)
REMARK    1  A    between atoms: C_1  and  C_10
REMARK    2  A    between atoms: C_2  and  O_7
REMARK    3  A    between atoms: C_10  and  O_11
REMARK                            x       y       z     vdW  Elec       q    Type
REMARK                         _______ _______ _______ _____ _____    ______ ____
ROOT
ATOM      1  C   UNL     1      34.908 -18.976 -21.116  0.00  0.00    +0.109 C 
ATOM      2  C   UNL     1      35.783 -19.876 -20.511  0.00  0.00    +0.140 C 
ATOM      3  C   UNL     1      33.532 -19.196 -21.060  0.00  0.00    +0.009 C 
ATOM      4  C   UNL     1      35.283 -20.998 -19.849  0.00  0.00    +0.037 C 
ATOM      5  C   UNL     1      33.031 -20.318 -20.399  0.00  0.00    +0.000 C 
ATOM      6  C   UNL     1      33.907 -21.219 -19.793  0.00  0.00    +0.003 C 
ENDROOT
BRANCH   2   7
ATOM      7  O   UNL     1      37.131 -19.679 -20.556  0.00  0.00    -0.505 OA
ATOM      8  H   UNL     1      37.614 -19.562 -19.761  0.00  0.00    +0.292 HD
ENDBRANCH   2   7
BRANCH   1  10
ATOM      9  O   UNL     1      35.133 -16.630 -21.527  0.00  0.00    -0.245 OA
ATOM     10  C   UNL     1      35.408 -17.799 -21.812  0.00  0.00    +0.341 C 
BRANCH  10  11
ATOM     11  O   UNL     1      36.237 -18.119 -22.842  0.00  0.00    -0.477 OA
ATOM     12  H   UNL     1      36.545 -18.998 -22.940  0.00  0.00    +0.295 HD
ENDBRANCH  10  11
ENDBRANCH   1  10
TORSDOF 3
ENDMDL
MODEL 9
REMARK VINA RESULT:      -5.9      2.980      4.039
REMARK  Name = 338
REMARK  3 active torsions:
REMARK  status: ('A' for Active; 'I' for Inactive)
REMARK    1  A    between atoms: C_1  and  C_10
REMARK    2  A    between atoms: C_2  and  O_7
REMARK    3  A    between atoms: C_10  and  O_11
REMARK                            x       y       z     vdW  Elec       q    Type
REMARK                         _______ _______ _______ _____ _____    ______ ____
ROOT
ATOM      1  C   UNL     1      35.009 -18.699 -21.956  0.00  0.00    +0.109 C 
ATOM      2  C   UNL     1      35.102 -17.323 -21.753  0.00  0.00    +0.140 C 
ATOM      3  C   UNL     1      34.837 -19.204 -23.244  0.00  0.00    +0.009 C 
ATOM      4  C   UNL     1      35.023 -16.450 -22.839  0.00  0.00    +0.037 C 
ATOM      5  C   UNL     1      34.758 -18.332 -24.331  0.00  0.00    +0.000 C 
ATOM      6  C   UNL     1      34.851 -16.955 -24.128  0.00  0.00    +0.003 C 
ENDROOT
BRANCH   2   7
ATOM      7  O   UNL     1      35.269 -16.809 -20.501  0.00  0.00    -0.505 OA
ATOM      8  H   UNL     1      35.676 -15.973 -20.388  0.00  0.00    +0.292 HD
ENDBRANCH   2   7
BRANCH   1  10
ATOM      9  O   UNL     1      34.179 -20.374 -20.463  0.00  0.00    -0.245 OA
ATOM     10  C   UNL     1      35.088 -19.627 -20.836  0.00  0.00    +0.341 C 
BRANCH  10  11
ATOM     11  O   UNL     1      36.300 -19.593 -20.218  0.00  0.00    -0.477 OA
ATOM     12  H   UNL     1      36.433 -19.034 -19.479  0.00  0.00    +0.295 HD
ENDBRANCH  10  11
ENDBRANCH   1  10
TORSDOF 3
ENDMDL
