MODEL 1
REMARK VINA RESULT:     -12.2      0.000      0.000
REMARK  Name = 445849
REMARK  5 active torsions:
REMARK  status: ('A' for Active; 'I' for Inactive)
REMARK    1  A    between atoms: C_3  and  C_20
REMARK    2  A    between atoms: C_9  and  C_14
REMARK    3  A    between atoms: C_18  and  O_26
REMARK    4  A    between atoms: C_19  and  O_24
REMARK    5  A    between atoms: O_26  and  C_28
REMARK                            x       y       z     vdW  Elec       q    Type
REMARK                         _______ _______ _______ _____ _____    ______ ____
ROOT
ATOM      1  F   UNL     1      30.817 -10.178 -20.587  0.00  0.00    -0.204 F 
ATOM      2  N   UNL     1      32.849 -14.286 -22.221  0.00  0.00    -0.312 N 
ATOM      3  C   UNL     1      33.670 -14.527 -23.289  0.00  0.00    +0.051 C 
ATOM      4  C   UNL     1      33.173 -12.324 -23.232  0.00  0.00    +0.015 C 
ATOM      5  C   UNL     1      32.528 -12.948 -22.162  0.00  0.00    +0.051 C 
ATOM      6  C   UNL     1      33.889 -13.333 -23.933  0.00  0.00    +0.016 C 
ATOM      7  C   UNL     1      33.010 -10.935 -23.404  0.00  0.00    +0.006 C 
ATOM      8  C   UNL     1      31.726 -12.250 -21.252  0.00  0.00    +0.044 C 
ATOM      9  C   UNL     1      32.211 -10.224 -22.502  0.00  0.00    +0.058 C 
ATOM     10  C   UNL     1      31.579 -10.874 -21.443  0.00  0.00    +0.144 C 
ATOM     11  H   UNL     1      32.532 -14.970 -21.587  0.00  0.00    +0.152 HD
ENDROOT
BRANCH   9  14
ATOM     12  N   UNL     1      32.739  -7.875 -21.894  0.00  0.00    -0.343 N 
ATOM     13  N   UNL     1      31.204  -8.335 -23.596  0.00  0.00    -0.285 NA
ATOM     14  C   UNL     1      32.040  -8.790 -22.679  0.00  0.00    +0.119 C 
ATOM     15  H   UNL     1      32.608  -6.909 -22.031  0.00  0.00    +0.144 HD
ATOM     16  H   UNL     1      33.364  -8.195 -21.204  0.00  0.00    +0.144 HD
ATOM     17  H   UNL     1      31.086  -7.365 -23.717  0.00  0.00    +0.188 HD
ENDBRANCH   9  14
BRANCH   3  20
ATOM     18  C   UNL     1      35.276 -17.887 -22.939  0.00  0.00    +0.172 C 
ATOM     19  C   UNL     1      34.811 -16.614 -22.621  0.00  0.00    +0.169 C 
ATOM     20  C   UNL     1      34.163 -15.850 -23.592  0.00  0.00    +0.050 C 
ATOM     21  C   UNL     1      35.099 -18.403 -24.219  0.00  0.00    +0.040 C 
ATOM     22  C   UNL     1      33.984 -16.363 -24.876  0.00  0.00    +0.004 C 
ATOM     23  C   UNL     1      34.451 -17.639 -25.191  0.00  0.00    +0.003 C 
BRANCH  19  24
ATOM     24  O   UNL     1      34.993 -16.126 -21.358  0.00  0.00    -0.503 OA
ATOM     25  H   UNL     1      35.721 -16.417 -20.844  0.00  0.00    +0.292 HD
ENDBRANCH  19  24
BRANCH  18  26
ATOM     26  O   UNL     1      35.913 -18.648 -21.996  0.00  0.00    -0.476 OA
BRANCH  26  28
ATOM     27  C   UNL     1      35.702 -20.529 -20.491  0.00  0.00    +0.040 C 
ATOM     28  C   UNL     1      35.101 -19.193 -20.960  0.00  0.00    +0.166 C 
ATOM     29  C   UNL     1      34.782 -21.216 -19.471  0.00  0.00    +0.004 C 
ATOM     30  C   UNL     1      33.677 -19.373 -21.490  0.00  0.00    +0.044 C 
ATOM     31  C   UNL     1      33.365 -21.387 -20.011  0.00  0.00    +0.000 C 
ATOM     32  C   UNL     1      32.774 -20.059 -20.472  0.00  0.00    +0.004 C 
ATOM     33  C   UNL     1      37.101 -20.335 -19.899  0.00  0.00    +0.004 C 
ENDBRANCH  26  28
ENDBRANCH  18  26
ENDBRANCH   3  20
TORSDOF 5
ENDMDL
MODEL 2
REMARK VINA RESULT:     -11.9      4.210      9.150
REMARK  Name = 445849
REMARK  5 active torsions:
REMARK  status: ('A' for Active; 'I' for Inactive)
REMARK    1  A    between atoms: C_3  and  C_20
REMARK    2  A    between atoms: C_9  and  C_14
REMARK    3  A    between atoms: C_18  and  O_26
REMARK    4  A    between atoms: C_19  and  O_24
REMARK    5  A    between atoms: O_26  and  C_28
REMARK                            x       y       z     vdW  Elec       q    Type
REMARK                         _______ _______ _______ _____ _____    ______ ____
ROOT
ATOM      1  F   UNL     1      37.091 -22.062 -18.495  0.00  0.00    -0.204 F 
ATOM      2  N   UNL     1      35.791 -18.545 -21.597  0.00  0.00    -0.312 N 
ATOM      3  C   UNL     1      34.568 -18.181 -22.091  0.00  0.00    +0.051 C 
ATOM      4  C   UNL     1      34.298 -19.934 -20.692  0.00  0.00    +0.015 C 
ATOM      5  C   UNL     1      35.657 -19.614 -20.739  0.00  0.00    +0.051 C 
ATOM      6  C   UNL     1      33.624 -19.021 -21.550  0.00  0.00    +0.016 C 
ATOM      7  C   UNL     1      33.882 -21.005 -19.876  0.00  0.00    +0.006 C 
ATOM      8  C   UNL     1      36.624 -20.314 -20.009  0.00  0.00    +0.044 C 
ATOM      9  C   UNL     1      34.838 -21.714 -19.141  0.00  0.00    +0.058 C 
ATOM     10  C   UNL     1      36.187 -21.373 -19.207  0.00  0.00    +0.144 C 
ATOM     11  H   UNL     1      36.644 -18.107 -21.822  0.00  0.00    +0.152 HD
ENDROOT
BRANCH   9  14
ATOM     12  N   UNL     1      34.635 -22.815 -16.924  0.00  0.00    -0.343 N 
ATOM     13  N   UNL     1      33.801 -23.862 -18.840  0.00  0.00    -0.285 NA
ATOM     14  C   UNL     1      34.411 -22.822 -18.299  0.00  0.00    +0.119 C 
ATOM     15  H   UNL     1      34.338 -23.575 -16.373  0.00  0.00    +0.144 HD
ATOM     16  H   UNL     1      35.091 -22.051 -16.503  0.00  0.00    +0.144 HD
ATOM     17  H   UNL     1      33.511 -24.613 -18.272  0.00  0.00    +0.188 HD
ENDBRANCH   9  14
BRANCH   3  20
ATOM     18  C   UNL     1      34.322 -14.724 -23.496  0.00  0.00    +0.172 C 
ATOM     19  C   UNL     1      34.475 -15.762 -22.581  0.00  0.00    +0.169 C 
ATOM     20  C   UNL     1      34.414 -17.085 -23.019  0.00  0.00    +0.050 C 
ATOM     21  C   UNL     1      34.109 -14.996 -24.843  0.00  0.00    +0.040 C 
ATOM     22  C   UNL     1      34.199 -17.363 -24.368  0.00  0.00    +0.004 C 
ATOM     23  C   UNL     1      34.047 -16.320 -25.281  0.00  0.00    +0.003 C 
BRANCH  19  24
ATOM     24  O   UNL     1      34.684 -15.473 -21.263  0.00  0.00    -0.503 OA
ATOM     25  H   UNL     1      34.942 -16.150 -20.670  0.00  0.00    +0.292 HD
ENDBRANCH  19  24
BRANCH  18  26
ATOM     26  O   UNL     1      34.381 -13.420 -23.081  0.00  0.00    -0.476 OA
BRANCH  26  28
ATOM     27  C   UNL     1      33.536 -11.209 -23.577  0.00  0.00    +0.040 C 
ATOM     28  C   UNL     1      33.182 -12.658 -23.200  0.00  0.00    +0.166 C 
ATOM     29  C   UNL     1      32.282 -10.323 -23.581  0.00  0.00    +0.004 C 
ATOM     30  C   UNL     1      32.420 -12.724 -21.875  0.00  0.00    +0.044 C 
ATOM     31  C   UNL     1      31.529 -10.400 -22.255  0.00  0.00    +0.000 C 
ATOM     32  C   UNL     1      31.181 -11.838 -21.888  0.00  0.00    +0.004 C 
ATOM     33  C   UNL     1      34.239 -11.141 -24.936  0.00  0.00    +0.004 C 
ENDBRANCH  26  28
ENDBRANCH  18  26
ENDBRANCH   3  20
TORSDOF 5
ENDMDL
MODEL 3
REMARK VINA RESULT:     -11.8      4.952      9.657
REMARK  Name = 445849
REMARK  5 active torsions:
REMARK  status: ('A' for Active; 'I' for Inactive)
REMARK    1  A    between atoms: C_3  and  C_20
REMARK    2  A    between atoms: C_9  and  C_14
REMARK    3  A    between atoms: C_18  and  O_26
REMARK    4  A    between atoms: C_19  and  O_24
REMARK    5  A    between atoms: O_26  and  C_28
REMARK                            x       y       z     vdW  Elec       q    Type
REMARK                         _______ _______ _______ _____ _____    ______ ____
ROOT
ATOM      1  F   UNL     1      37.586 -22.594 -15.803  0.00  0.00    -0.204 F 
ATOM      2  N   UNL     1      36.427 -20.155 -19.850  0.00  0.00    -0.312 N 
ATOM      3  C   UNL     1      35.276 -20.124 -20.590  0.00  0.00    +0.051 C 
ATOM      4  C   UNL     1      34.985 -21.528 -18.845  0.00  0.00    +0.015 C 
ATOM      5  C   UNL     1      36.278 -21.004 -18.777  0.00  0.00    +0.051 C 
ATOM      6  C   UNL     1      34.365 -20.963 -19.994  0.00  0.00    +0.016 C 
ATOM      7  C   UNL     1      34.569 -22.436 -17.851  0.00  0.00    +0.006 C 
ATOM      8  C   UNL     1      37.179 -21.346 -17.763  0.00  0.00    +0.044 C 
ATOM      9  C   UNL     1      35.460 -22.787 -16.831  0.00  0.00    +0.058 C 
ATOM     10  C   UNL     1      36.745 -22.249 -16.789  0.00  0.00    +0.144 C 
ATOM     11  H   UNL     1      37.244 -19.644 -20.056  0.00  0.00    +0.152 HD
ENDROOT
BRANCH   9  14
ATOM     12  N   UNL     1      34.121 -23.356 -14.817  0.00  0.00    -0.343 N 
ATOM     13  N   UNL     1      35.518 -24.955 -15.795  0.00  0.00    -0.285 NA
ATOM     14  C   UNL     1      35.033 -23.726 -15.804  0.00  0.00    +0.119 C 
ATOM     15  H   UNL     1      33.846 -24.007 -14.132  0.00  0.00    +0.144 HD
ATOM     16  H   UNL     1      33.752 -22.443 -14.806  0.00  0.00    +0.144 HD
ATOM     17  H   UNL     1      35.230 -25.592 -15.101  0.00  0.00    +0.188 HD
ENDBRANCH   9  14
BRANCH   3  20
ATOM     18  C   UNL     1      35.042 -17.162 -22.861  0.00  0.00    +0.172 C 
ATOM     19  C   UNL     1      35.164 -17.920 -21.701  0.00  0.00    +0.169 C 
ATOM     20  C   UNL     1      35.152 -19.313 -21.779  0.00  0.00    +0.050 C 
ATOM     21  C   UNL     1      34.910 -17.783 -24.099  0.00  0.00    +0.040 C 
ATOM     22  C   UNL     1      35.018 -19.940 -23.017  0.00  0.00    +0.004 C 
ATOM     23  C   UNL     1      34.897 -19.176 -24.178  0.00  0.00    +0.003 C 
BRANCH  19  24
ATOM     24  O   UNL     1      35.294 -17.291 -20.496  0.00  0.00    -0.503 OA
ATOM     25  H   UNL     1      34.734 -16.572 -20.279  0.00  0.00    +0.292 HD
ENDBRANCH  19  24
BRANCH  18  26
ATOM     26  O   UNL     1      35.053 -15.794 -22.800  0.00  0.00    -0.476 OA
BRANCH  26  28
ATOM     27  C   UNL     1      33.551 -14.080 -23.611  0.00  0.00    +0.040 C 
ATOM     28  C   UNL     1      33.804 -15.157 -22.542  0.00  0.00    +0.166 C 
ATOM     29  C   UNL     1      32.282 -13.278 -23.290  0.00  0.00    +0.004 C 
ATOM     30  C   UNL     1      33.836 -14.556 -21.135  0.00  0.00    +0.044 C 
ATOM     31  C   UNL     1      32.326 -12.685 -21.884  0.00  0.00    +0.000 C 
ATOM     32  C   UNL     1      32.575 -13.758 -20.829  0.00  0.00    +0.004 C 
ATOM     33  C   UNL     1      33.452 -14.694 -25.010  0.00  0.00    +0.004 C 
ENDBRANCH  26  28
ENDBRANCH  18  26
ENDBRANCH   3  20
TORSDOF 5
ENDMDL
MODEL 4
REMARK VINA RESULT:     -11.7      6.525     11.517
REMARK  Name = 445849
REMARK  5 active torsions:
REMARK  status: ('A' for Active; 'I' for Inactive)
REMARK    1  A    between atoms: C_3  and  C_20
REMARK    2  A    between atoms: C_9  and  C_14
REMARK    3  A    between atoms: C_18  and  O_26
REMARK    4  A    between atoms: C_19  and  O_24
REMARK    5  A    between atoms: O_26  and  C_28
REMARK                            x       y       z     vdW  Elec       q    Type
REMARK                         _______ _______ _______ _____ _____    ______ ____
ROOT
ATOM      1  F   UNL     1      38.909 -24.285 -13.816  0.00  0.00    -0.204 F 
ATOM      2  N   UNL     1      36.345 -22.174 -17.372  0.00  0.00    -0.312 N 
ATOM      3  C   UNL     1      35.034 -22.303 -17.741  0.00  0.00    +0.051 C 
ATOM      4  C   UNL     1      35.430 -23.648 -15.970  0.00  0.00    +0.015 C 
ATOM      5  C   UNL     1      36.616 -22.985 -16.293  0.00  0.00    +0.051 C 
ATOM      6  C   UNL     1      34.441 -23.207 -16.893  0.00  0.00    +0.016 C 
ATOM      7  C   UNL     1      35.430 -24.549 -14.887  0.00  0.00    +0.006 C 
ATOM      8  C   UNL     1      37.807 -23.179 -15.584  0.00  0.00    +0.044 C 
ATOM      9  C   UNL     1      36.614 -24.754 -14.170  0.00  0.00    +0.058 C 
ATOM     10  C   UNL     1      37.783 -24.078 -14.514  0.00  0.00    +0.144 C 
ATOM     11  H   UNL     1      37.001 -21.587 -17.815  0.00  0.00    +0.152 HD
ENDROOT
BRANCH   9  14
ATOM     12  N   UNL     1      37.190 -26.951 -13.165  0.00  0.00    -0.343 N 
ATOM     13  N   UNL     1      36.062 -25.337 -11.904  0.00  0.00    -0.285 NA
ATOM     14  C   UNL     1      36.617 -25.686 -13.052  0.00  0.00    +0.119 C 
ATOM     15  H   UNL     1      37.181 -27.565 -12.396  0.00  0.00    +0.144 HD
ATOM     16  H   UNL     1      37.605 -27.229 -14.013  0.00  0.00    +0.144 HD
ATOM     17  H   UNL     1      36.063 -25.966 -11.147  0.00  0.00    +0.188 HD
ENDBRANCH   9  14
BRANCH   3  20
ATOM     18  C   UNL     1      34.708 -20.017 -20.684  0.00  0.00    +0.172 C 
ATOM     19  C   UNL     1      35.271 -20.716 -19.620  0.00  0.00    +0.169 C 
ATOM     20  C   UNL     1      34.475 -21.565 -18.851  0.00  0.00    +0.050 C 
ATOM     21  C   UNL     1      33.357 -20.158 -20.984  0.00  0.00    +0.040 C 
ATOM     22  C   UNL     1      33.121 -21.710 -19.148  0.00  0.00    +0.004 C 
ATOM     23  C   UNL     1      32.561 -21.007 -20.214  0.00  0.00    +0.003 C 
BRANCH  19  24
ATOM     24  O   UNL     1      36.599 -20.564 -19.342  0.00  0.00    -0.503 OA
ATOM     25  H   UNL     1      37.243 -20.892 -19.939  0.00  0.00    +0.292 HD
ENDBRANCH  19  24
BRANCH  18  26
ATOM     26  O   UNL     1      35.477 -19.180 -21.448  0.00  0.00    -0.476 OA
BRANCH  26  28
ATOM     27  C   UNL     1      35.266 -18.071 -23.587  0.00  0.00    +0.040 C 
ATOM     28  C   UNL     1      34.796 -18.126 -22.123  0.00  0.00    +0.166 C 
ATOM     29  C   UNL     1      34.658 -16.862 -24.312  0.00  0.00    +0.004 C 
ATOM     30  C   UNL     1      35.075 -16.810 -21.394  0.00  0.00    +0.044 C 
ATOM     31  C   UNL     1      34.941 -15.557 -23.574  0.00  0.00    +0.000 C 
ATOM     32  C   UNL     1      34.472 -15.617 -22.124  0.00  0.00    +0.004 C 
ATOM     33  C   UNL     1      34.924 -19.365 -24.332  0.00  0.00    +0.004 C 
ENDBRANCH  26  28
ENDBRANCH  18  26
ENDBRANCH   3  20
TORSDOF 5
ENDMDL
MODEL 5
REMARK VINA RESULT:     -11.6      1.387      2.291
REMARK  Name = 445849
REMARK  5 active torsions:
REMARK  status: ('A' for Active; 'I' for Inactive)
REMARK    1  A    between atoms: C_3  and  C_20
REMARK    2  A    between atoms: C_9  and  C_14
REMARK    3  A    between atoms: C_18  and  O_26
REMARK    4  A    between atoms: C_19  and  O_24
REMARK    5  A    between atoms: O_26  and  C_28
REMARK                            x       y       z     vdW  Elec       q    Type
REMARK                         _______ _______ _______ _____ _____    ______ ____
ROOT
ATOM      1  F   UNL     1      33.725  -8.366 -24.371  0.00  0.00    -0.204 F 
ATOM      2  N   UNL     1      34.426 -13.160 -23.915  0.00  0.00    -0.312 N 
ATOM      3  C   UNL     1      33.752 -14.108 -23.195  0.00  0.00    +0.051 C 
ATOM      4  C   UNL     1      32.773 -12.101 -22.855  0.00  0.00    +0.015 C 
ATOM      5  C   UNL     1      33.850 -11.924 -23.726  0.00  0.00    +0.051 C 
ATOM      6  C   UNL     1      32.724 -13.485 -22.529  0.00  0.00    +0.016 C 
ATOM      7  C   UNL     1      32.002 -10.979 -22.493  0.00  0.00    +0.006 C 
ATOM      8  C   UNL     1      34.197 -10.675 -24.254  0.00  0.00    +0.044 C 
ATOM      9  C   UNL     1      32.337  -9.724 -23.013  0.00  0.00    +0.058 C 
ATOM     10  C   UNL     1      33.418  -9.576 -23.880  0.00  0.00    +0.144 C 
ATOM     11  H   UNL     1      35.210 -13.336 -24.485  0.00  0.00    +0.152 HD
ENDROOT
BRANCH   9  14
ATOM     12  N   UNL     1      30.607  -8.013 -23.513  0.00  0.00    -0.343 N 
ATOM     13  N   UNL     1      31.709  -8.008 -21.451  0.00  0.00    -0.285 NA
ATOM     14  C   UNL     1      31.543  -8.563 -22.639  0.00  0.00    +0.119 C 
ATOM     15  H   UNL     1      30.081  -7.228 -23.239  0.00  0.00    +0.144 HD
ATOM     16  H   UNL     1      30.472  -8.411 -24.403  0.00  0.00    +0.144 HD
ATOM     17  H   UNL     1      31.173  -7.223 -21.196  0.00  0.00    +0.188 HD
ENDBRANCH   9  14
BRANCH   3  20
ATOM     18  C   UNL     1      34.918 -17.481 -22.075  0.00  0.00    +0.172 C 
ATOM     19  C   UNL     1      34.546 -16.141 -22.036  0.00  0.00    +0.169 C 
ATOM     20  C   UNL     1      34.143 -15.499 -23.207  0.00  0.00    +0.050 C 
ATOM     21  C   UNL     1      34.891 -18.186 -23.274  0.00  0.00    +0.040 C 
ATOM     22  C   UNL     1      34.115 -16.201 -24.412  0.00  0.00    +0.004 C 
ATOM     23  C   UNL     1      34.488 -17.545 -24.446  0.00  0.00    +0.003 C 
BRANCH  19  24
ATOM     24  O   UNL     1      34.578 -15.467 -20.848  0.00  0.00    -0.503 OA
ATOM     25  H   UNL     1      33.854 -14.928 -20.595  0.00  0.00    +0.292 HD
ENDBRANCH  19  24
BRANCH  18  26
ATOM     26  O   UNL     1      35.315 -18.124 -20.933  0.00  0.00    -0.476 OA
BRANCH  26  28
ATOM     27  C   UNL     1      33.906 -19.937 -20.172  0.00  0.00    +0.040 C 
ATOM     28  C   UNL     1      35.190 -19.544 -20.923  0.00  0.00    +0.166 C 
ATOM     29  C   UNL     1      33.807 -21.462 -20.020  0.00  0.00    +0.004 C 
ATOM     30  C   UNL     1      36.433 -20.145 -20.264  0.00  0.00    +0.044 C 
ATOM     31  C   UNL     1      35.054 -22.049 -19.364  0.00  0.00    +0.000 C 
ATOM     32  C   UNL     1      36.321 -21.657 -20.114  0.00  0.00    +0.004 C 
ATOM     33  C   UNL     1      32.659 -19.390 -20.872  0.00  0.00    +0.004 C 
ENDBRANCH  26  28
ENDBRANCH  18  26
ENDBRANCH   3  20
TORSDOF 5
ENDMDL
MODEL 6
REMARK VINA RESULT:     -11.5      3.582      9.632
REMARK  Name = 445849
REMARK  5 active torsions:
REMARK  status: ('A' for Active; 'I' for Inactive)
REMARK    1  A    between atoms: C_3  and  C_20
REMARK    2  A    between atoms: C_9  and  C_14
REMARK    3  A    between atoms: C_18  and  O_26
REMARK    4  A    between atoms: C_19  and  O_24
REMARK    5  A    between atoms: O_26  and  C_28
REMARK                            x       y       z     vdW  Elec       q    Type
REMARK                         _______ _______ _______ _____ _____    ______ ____
ROOT
ATOM      1  F   UNL     1      35.662 -18.925 -23.810  0.00  0.00    -0.204 F 
ATOM      2  N   UNL     1      33.447 -14.715 -22.787  0.00  0.00    -0.312 N 
ATOM      3  C   UNL     1      33.179 -14.100 -21.595  0.00  0.00    +0.051 C 
ATOM      4  C   UNL     1      34.251 -16.046 -21.188  0.00  0.00    +0.015 C 
ATOM      5  C   UNL     1      34.101 -15.907 -22.570  0.00  0.00    +0.051 C 
ATOM      6  C   UNL     1      33.665 -14.897 -20.587  0.00  0.00    +0.016 C 
ATOM      7  C   UNL     1      34.898 -17.194 -20.689  0.00  0.00    +0.006 C 
ATOM      8  C   UNL     1      34.566 -16.862 -23.480  0.00  0.00    +0.044 C 
ATOM      9  C   UNL     1      35.368 -18.157 -21.588  0.00  0.00    +0.058 C 
ATOM     10  C   UNL     1      35.204 -17.992 -22.962  0.00  0.00    +0.144 C 
ATOM     11  H   UNL     1      33.205 -14.358 -23.673  0.00  0.00    +0.152 HD
ENDROOT
BRANCH   9  14
ATOM     12  N   UNL     1      35.312 -20.466 -20.674  0.00  0.00    -0.343 N 
ATOM     13  N   UNL     1      37.353 -19.368 -20.976  0.00  0.00    -0.285 NA
ATOM     14  C   UNL     1      36.035 -19.345 -21.074  0.00  0.00    +0.119 C 
ATOM     15  H   UNL     1      35.784 -21.259 -20.329  0.00  0.00    +0.144 HD
ATOM     16  H   UNL     1      34.330 -20.466 -20.736  0.00  0.00    +0.144 HD
ATOM     17  H   UNL     1      37.807 -20.170 -20.629  0.00  0.00    +0.188 HD
ENDBRANCH   9  14
BRANCH   3  20
ATOM     18  C   UNL     1      31.856 -10.723 -22.511  0.00  0.00    +0.172 C 
ATOM     19  C   UNL     1      32.522 -11.942 -22.603  0.00  0.00    +0.169 C 
ATOM     20  C   UNL     1      32.497 -12.828 -21.526  0.00  0.00    +0.050 C 
ATOM     21  C   UNL     1      31.166 -10.383 -21.352  0.00  0.00    +0.040 C 
ATOM     22  C   UNL     1      31.807 -12.491 -20.362  0.00  0.00    +0.004 C 
ATOM     23  C   UNL     1      31.141 -11.269 -20.274  0.00  0.00    +0.003 C 
BRANCH  19  24
ATOM     24  O   UNL     1      33.193 -12.258 -23.750  0.00  0.00    -0.503 OA
ATOM     25  H   UNL     1      32.787 -12.120 -24.583  0.00  0.00    +0.292 HD
ENDBRANCH  19  24
BRANCH  18  26
ATOM     26  O   UNL     1      31.871  -9.844 -23.560  0.00  0.00    -0.476 OA
BRANCH  26  28
ATOM     27  C   UNL     1      32.068  -7.551 -24.305  0.00  0.00    +0.040 C 
ATOM     28  C   UNL     1      32.624  -8.647 -23.379  0.00  0.00    +0.166 C 
ATOM     29  C   UNL     1      32.937  -6.287 -24.240  0.00  0.00    +0.004 C 
ATOM     30  C   UNL     1      34.096  -8.938 -23.674  0.00  0.00    +0.044 C 
ATOM     31  C   UNL     1      34.404  -6.592 -24.534  0.00  0.00    +0.000 C 
ATOM     32  C   UNL     1      34.948  -7.677 -23.612  0.00  0.00    +0.004 C 
ATOM     33  C   UNL     1      30.614  -7.215 -23.963  0.00  0.00    +0.004 C 
ENDBRANCH  26  28
ENDBRANCH  18  26
ENDBRANCH   3  20
TORSDOF 5
ENDMDL
MODEL 7
REMARK VINA RESULT:     -11.3      3.579      9.508
REMARK  Name = 445849
REMARK  5 active torsions:
REMARK  status: ('A' for Active; 'I' for Inactive)
REMARK    1  A    between atoms: C_3  and  C_20
REMARK    2  A    between atoms: C_9  and  C_14
REMARK    3  A    between atoms: C_18  and  O_26
REMARK    4  A    between atoms: C_19  and  O_24
REMARK    5  A    between atoms: O_26  and  C_28
REMARK                            x       y       z     vdW  Elec       q    Type
REMARK                         _______ _______ _______ _____ _____    ______ ____
ROOT
ATOM      1  F   UNL     1      34.969 -19.691 -23.748  0.00  0.00    -0.204 F 
ATOM      2  N   UNL     1      34.130 -14.918 -24.182  0.00  0.00    -0.312 N 
ATOM      3  C   UNL     1      33.879 -13.954 -23.243  0.00  0.00    +0.051 C 
ATOM      4  C   UNL     1      34.159 -15.937 -22.198  0.00  0.00    +0.015 C 
ATOM      5  C   UNL     1      34.305 -16.140 -23.572  0.00  0.00    +0.051 C 
ATOM      6  C   UNL     1      33.891 -14.553 -22.006  0.00  0.00    +0.016 C 
ATOM      7  C   UNL     1      34.293 -17.040 -21.332  0.00  0.00    +0.006 C 
ATOM      8  C   UNL     1      34.579 -17.396 -24.125  0.00  0.00    +0.044 C 
ATOM      9  C   UNL     1      34.566 -18.302 -21.871  0.00  0.00    +0.058 C 
ATOM     10  C   UNL     1      34.706 -18.475 -23.247  0.00  0.00    +0.144 C 
ATOM     11  H   UNL     1      34.178 -14.760 -25.153  0.00  0.00    +0.152 HD
ENDROOT
BRANCH   9  14
ATOM     12  N   UNL     1      35.940 -19.804 -20.448  0.00  0.00    -0.343 N 
ATOM     13  N   UNL     1      33.640 -20.164 -20.664  0.00  0.00    -0.285 NA
ATOM     14  C   UNL     1      34.703 -19.444 -20.979  0.00  0.00    +0.119 C 
ATOM     15  H   UNL     1      36.010 -20.580 -19.846  0.00  0.00    +0.144 HD
ATOM     16  H   UNL     1      36.743 -19.281 -20.673  0.00  0.00    +0.144 HD
ATOM     17  H   UNL     1      33.731 -20.937 -20.061  0.00  0.00    +0.188 HD
ENDBRANCH   9  14
BRANCH   3  20
ATOM     18  C   UNL     1      32.556 -10.456 -23.260  0.00  0.00    +0.172 C 
ATOM     19  C   UNL     1      32.755 -11.783 -22.891  0.00  0.00    +0.169 C 
ATOM     20  C   UNL     1      33.654 -12.574 -23.605  0.00  0.00    +0.050 C 
ATOM     21  C   UNL     1      33.249  -9.912 -24.337  0.00  0.00    +0.040 C 
ATOM     22  C   UNL     1      34.351 -12.034 -24.686  0.00  0.00    +0.004 C 
ATOM     23  C   UNL     1      34.149 -10.703 -25.052  0.00  0.00    +0.003 C 
BRANCH  19  24
ATOM     24  O   UNL     1      32.065 -12.297 -21.829  0.00  0.00    -0.503 OA
ATOM     25  H   UNL     1      32.490 -12.401 -21.001  0.00  0.00    +0.292 HD
ENDBRANCH  19  24
BRANCH  18  26
ATOM     26  O   UNL     1      31.677  -9.668 -22.567  0.00  0.00    -0.476 OA
BRANCH  26  28
ATOM     27  C   UNL     1      31.676  -7.634 -21.258  0.00  0.00    +0.040 C 
ATOM     28  C   UNL     1      31.880  -8.260 -22.649  0.00  0.00    +0.166 C 
ATOM     29  C   UNL     1      31.751  -6.102 -21.331  0.00  0.00    +0.004 C 
ATOM     30  C   UNL     1      30.907  -7.677 -23.676  0.00  0.00    +0.044 C 
ATOM     31  C   UNL     1      30.778  -5.534 -22.360  0.00  0.00    +0.000 C 
ATOM     32  C   UNL     1      30.987  -6.157 -23.736  0.00  0.00    +0.004 C 
ATOM     33  C   UNL     1      32.695  -8.169 -20.249  0.00  0.00    +0.004 C 
ENDBRANCH  26  28
ENDBRANCH  18  26
ENDBRANCH   3  20
TORSDOF 5
ENDMDL
MODEL 8
REMARK VINA RESULT:     -11.3      6.488     10.932
REMARK  Name = 445849
REMARK  5 active torsions:
REMARK  status: ('A' for Active; 'I' for Inactive)
REMARK    1  A    between atoms: C_3  and  C_20
REMARK    2  A    between atoms: C_9  and  C_14
REMARK    3  A    between atoms: C_18  and  O_26
REMARK    4  A    between atoms: C_19  and  O_24
REMARK    5  A    between atoms: O_26  and  C_28
REMARK                            x       y       z     vdW  Elec       q    Type
REMARK                         _______ _______ _______ _____ _____    ______ ____
ROOT
ATOM      1  F   UNL     1      33.229 -25.136 -13.004  0.00  0.00    -0.204 F 
ATOM      2  N   UNL     1      34.687 -22.717 -16.966  0.00  0.00    -0.312 N 
ATOM      3  C   UNL     1      33.988 -22.225 -18.034  0.00  0.00    +0.051 C 
ATOM      4  C   UNL     1      32.544 -23.226 -16.614  0.00  0.00    +0.015 C 
ATOM      5  C   UNL     1      33.830 -23.335 -16.083  0.00  0.00    +0.051 C 
ATOM      6  C   UNL     1      32.659 -22.522 -17.846  0.00  0.00    +0.016 C 
ATOM      7  C   UNL     1      31.465 -23.781 -15.898  0.00  0.00    +0.006 C 
ATOM      8  C   UNL     1      34.094 -23.974 -14.866  0.00  0.00    +0.044 C 
ATOM      9  C   UNL     1      31.713 -24.424 -14.680  0.00  0.00    +0.058 C 
ATOM     10  C   UNL     1      33.008 -24.518 -14.173  0.00  0.00    +0.144 C 
ATOM     11  H   UNL     1      35.662 -22.642 -16.847  0.00  0.00    +0.152 HD
ENDROOT
BRANCH   9  14
ATOM     12  N   UNL     1      29.681 -25.847 -14.554  0.00  0.00    -0.343 N 
ATOM     13  N   UNL     1      30.447 -24.714 -12.658  0.00  0.00    -0.285 NA
ATOM     14  C   UNL     1      30.601 -24.999 -13.939  0.00  0.00    +0.119 C 
ATOM     15  H   UNL     1      28.936 -26.225 -14.033  0.00  0.00    +0.144 HD
ATOM     16  H   UNL     1      29.778 -26.068 -15.508  0.00  0.00    +0.144 HD
ATOM     17  H   UNL     1      29.694 -25.102 -12.154  0.00  0.00    +0.188 HD
ENDBRANCH   9  14
BRANCH   3  20
ATOM     18  C   UNL     1      34.560 -20.055 -21.026  0.00  0.00    +0.172 C 
ATOM     19  C   UNL     1      33.909 -20.717 -19.989  0.00  0.00    +0.169 C 
ATOM     20  C   UNL     1      34.638 -21.527 -19.119  0.00  0.00    +0.050 C 
ATOM     21  C   UNL     1      35.933 -20.197 -21.201  0.00  0.00    +0.040 C 
ATOM     22  C   UNL     1      36.014 -21.673 -19.290  0.00  0.00    +0.004 C 
ATOM     23  C   UNL     1      36.663 -21.008 -20.331  0.00  0.00    +0.003 C 
BRANCH  19  24
ATOM     24  O   UNL     1      32.561 -20.563 -19.834  0.00  0.00    -0.503 OA
ATOM     25  H   UNL     1      32.051 -21.254 -19.460  0.00  0.00    +0.292 HD
ENDBRANCH  19  24
BRANCH  18  26
ATOM     26  O   UNL     1      33.858 -19.256 -21.888  0.00  0.00    -0.476 OA
BRANCH  26  28
ATOM     27  C   UNL     1      34.377 -16.939 -22.348  0.00  0.00    +0.040 C 
ATOM     28  C   UNL     1      34.623 -18.407 -22.739  0.00  0.00    +0.166 C 
ATOM     29  C   UNL     1      35.076 -15.987 -23.329  0.00  0.00    +0.004 C 
ATOM     30  C   UNL     1      34.227 -18.675 -24.192  0.00  0.00    +0.044 C 
ATOM     31  C   UNL     1      34.675 -16.267 -24.775  0.00  0.00    +0.000 C 
ATOM     32  C   UNL     1      34.923 -17.722 -25.156  0.00  0.00    +0.004 C 
ATOM     33  C   UNL     1      34.836 -16.658 -20.915  0.00  0.00    +0.004 C 
ENDBRANCH  26  28
ENDBRANCH  18  26
ENDBRANCH   3  20
TORSDOF 5
ENDMDL
MODEL 9
REMARK VINA RESULT:     -10.8      4.006      9.202
REMARK  Name = 445849
REMARK  5 active torsions:
REMARK  status: ('A' for Active; 'I' for Inactive)
REMARK    1  A    between atoms: C_3  and  C_20
REMARK    2  A    between atoms: C_9  and  C_14
REMARK    3  A    between atoms: C_18  and  O_26
REMARK    4  A    between atoms: C_19  and  O_24
REMARK    5  A    between atoms: O_26  and  C_28
REMARK                            x       y       z     vdW  Elec       q    Type
REMARK                         _______ _______ _______ _____ _____    ______ ____
ROOT
ATOM      1  F   UNL     1      37.249 -21.305 -19.902  0.00  0.00    -0.204 F 
ATOM      2  N   UNL     1      35.334 -17.281 -21.857  0.00  0.00    -0.312 N 
ATOM      3  C   UNL     1      34.038 -16.860 -21.972  0.00  0.00    +0.051 C 
ATOM      4  C   UNL     1      34.065 -18.860 -20.923  0.00  0.00    +0.015 C 
ATOM      5  C   UNL     1      35.382 -18.502 -21.221  0.00  0.00    +0.051 C 
ATOM      6  C   UNL     1      33.229 -17.814 -21.403  0.00  0.00    +0.016 C 
ATOM      7  C   UNL     1      33.829 -20.081 -20.261  0.00  0.00    +0.006 C 
ATOM      8  C   UNL     1      36.478 -19.306 -20.889  0.00  0.00    +0.044 C 
ATOM      9  C   UNL     1      34.915 -20.896 -19.924  0.00  0.00    +0.058 C 
ATOM     10  C   UNL     1      36.219 -20.513 -20.234  0.00  0.00    +0.144 C 
ATOM     11  H   UNL     1      36.120 -16.785 -22.184  0.00  0.00    +0.152 HD
ENDROOT
BRANCH   9  14
ATOM     12  N   UNL     1      33.809 -23.115 -19.771  0.00  0.00    -0.343 N 
ATOM     13  N   UNL     1      35.275 -22.411 -18.092  0.00  0.00    -0.285 NA
ATOM     14  C   UNL     1      34.673 -22.159 -19.241  0.00  0.00    +0.119 C 
ATOM     15  H   UNL     1      33.660 -23.962 -19.293  0.00  0.00    +0.144 HD
ATOM     16  H   UNL     1      33.349 -22.944 -20.624  0.00  0.00    +0.144 HD
ATOM     17  H   UNL     1      35.113 -23.264 -17.628  0.00  0.00    +0.188 HD
ENDBRANCH   9  14
BRANCH   3  20
ATOM     18  C   UNL     1      32.541 -13.489 -22.595  0.00  0.00    +0.172 C 
ATOM     19  C   UNL     1      32.857 -14.690 -21.966  0.00  0.00    +0.169 C 
ATOM     20  C   UNL     1      33.694 -15.607 -22.602  0.00  0.00    +0.050 C 
ATOM     21  C   UNL     1      33.053 -13.198 -23.856  0.00  0.00    +0.040 C 
ATOM     22  C   UNL     1      34.209 -15.319 -23.866  0.00  0.00    +0.004 C 
ATOM     23  C   UNL     1      33.889 -14.115 -24.493  0.00  0.00    +0.003 C 
BRANCH  19  24
ATOM     24  O   UNL     1      32.345 -14.956 -20.728  0.00  0.00    -0.503 OA
ATOM     25  H   UNL     1      31.676 -15.604 -20.627  0.00  0.00    +0.292 HD
ENDBRANCH  19  24
BRANCH  18  26
ATOM     26  O   UNL     1      31.722 -12.580 -21.982  0.00  0.00    -0.476 OA
BRANCH  26  28
ATOM     27  C   UNL     1      31.497 -10.661 -20.526  0.00  0.00    +0.040 C 
ATOM     28  C   UNL     1      32.296 -11.314 -21.668  0.00  0.00    +0.166 C 
ATOM     29  C   UNL     1      31.999  -9.237 -20.251  0.00  0.00    +0.004 C 
ATOM     30  C   UNL     1      32.291 -10.442 -22.926  0.00  0.00    +0.044 C 
ATOM     31  C   UNL     1      31.992  -8.379 -21.513  0.00  0.00    +0.000 C 
ATOM     32  C   UNL     1      32.787  -9.030 -22.640  0.00  0.00    +0.004 C 
ATOM     33  C   UNL     1      31.560 -11.504 -19.249  0.00  0.00    +0.004 C 
ENDBRANCH  26  28
ENDBRANCH  18  26
ENDBRANCH   3  20
TORSDOF 5
ENDMDL
