MODEL 1
REMARK VINA RESULT:      -7.2      0.000      0.000
REMARK  Name = 25245776
REMARK  10 active torsions:
REMARK  status: ('A' for Active; 'I' for Inactive)
REMARK    1  A    between atoms: C_1  and  C_3
REMARK    2  A    between atoms: C_1  and  S_13
REMARK    3  A    between atoms: C_4  and  O_7
REMARK    4  A    between atoms: C_5  and  O_9
REMARK    5  A    between atoms: C_6  and  O_11
REMARK    6  A    between atoms: S_13  and  C_14
REMARK    7  A    between atoms: C_14  and  C_15
REMARK    8  A    between atoms: C_15  and  C_16
REMARK    9  A    between atoms: C_16  and  N_17
REMARK   10  A    between atoms: C_16  and  C_23
REMARK                            x       y       z     vdW  Elec       q    Type
REMARK                         _______ _______ _______ _____ _____    ______ ____
ROOT
ATOM      1  C   UNK     1      33.985 -23.756 -14.765  0.00  0.00    +0.090 C 
ENDROOT
BRANCH   1   3
ATOM      2  O   UNK     1      36.042 -24.875 -15.362  0.00  0.00    -0.328 OA
ATOM      3  C   UNK     1      34.995 -24.820 -14.377  0.00  0.00    +0.158 C 
ATOM      4  C   UNK     1      35.686 -24.541 -13.052  0.00  0.00    +0.170 C 
ATOM      5  C   UNK     1      37.001 -25.271 -13.232  0.00  0.00    +0.196 C 
ATOM      6  C   UNK     1      37.314 -24.965 -14.689  0.00  0.00    +0.262 C 
BRANCH   4   7
ATOM      7  O   UNK     1      34.931 -25.006 -11.954  0.00  0.00    -0.379 OA
ATOM      8  H   UNK     1      35.216 -25.905 -11.724  0.00  0.00    +0.211 HD
ENDBRANCH   4   7
BRANCH   5   9
ATOM      9  O   UNK     1      36.803 -26.674 -13.076  0.00  0.00    -0.378 OA
ATOM     10  H   UNK     1      37.606 -27.146 -13.346  0.00  0.00    +0.211 HD
ENDBRANCH   5   9
BRANCH   6  11
ATOM     11  O   UNK     1      38.005 -23.723 -14.765  0.00  0.00    -0.358 OA
ATOM     12  H   UNK     1      38.957 -23.876 -14.669  0.00  0.00    +0.213 HD
ENDBRANCH   6  11
ENDBRANCH   1   3
BRANCH   1  13
ATOM     13  S   UNK     1      32.321 -24.234 -14.227  0.00  0.00    -0.138 S 
BRANCH  13  14
ATOM     14  C   UNK     1      31.415 -22.803 -14.862  0.00  0.00    +0.056 C 
BRANCH  14  15
ATOM     15  C   UNK     1      30.559 -23.203 -16.066  0.00  0.00    +0.001 C 
BRANCH  15  16
ATOM     16  C   UNK     1      29.059 -23.323 -15.753  0.00  0.00    +0.041 C 
BRANCH  16  17
ATOM     17  N   UNK     1      28.828 -24.684 -15.173  0.00  0.00    +0.389 N 
ATOM     18  H   UNK     1      28.739 -25.365 -15.927  0.00  0.00    -0.088 HD
ATOM     19  H   UNK     1      27.971 -24.676 -14.619  0.00  0.00    -0.088 HD
ATOM     20  H   UNK     1      29.615 -24.938 -14.577  0.00  0.00    -0.088 HD
ENDBRANCH  16  17
BRANCH  16  23
ATOM     21  O   UNK     1      27.699 -23.921 -17.610  0.00  0.00    -0.248 OA
ATOM     22  O   UNK     1      27.831 -21.726 -17.002  0.00  0.00    -0.248 OA
ATOM     23  C   UNK     1      28.111 -22.955 -16.907  0.00  0.00    +0.345 C 
ENDBRANCH  16  23
ENDBRANCH  15  16
ENDBRANCH  14  15
ENDBRANCH  13  14
ENDBRANCH   1  13
TORSDOF 10
ENDMDL
MODEL 2
REMARK VINA RESULT:      -7.2      4.830      5.309
REMARK  Name = 25245776
REMARK  10 active torsions:
REMARK  status: ('A' for Active; 'I' for Inactive)
REMARK    1  A    between atoms: C_1  and  C_3
REMARK    2  A    between atoms: C_1  and  S_13
REMARK    3  A    between atoms: C_4  and  O_7
REMARK    4  A    between atoms: C_5  and  O_9
REMARK    5  A    between atoms: C_6  and  O_11
REMARK    6  A    between atoms: S_13  and  C_14
REMARK    7  A    between atoms: C_14  and  C_15
REMARK    8  A    between atoms: C_15  and  C_16
REMARK    9  A    between atoms: C_16  and  N_17
REMARK   10  A    between atoms: C_16  and  C_23
REMARK                            x       y       z     vdW  Elec       q    Type
REMARK                         _______ _______ _______ _____ _____    ______ ____
ROOT
ATOM      1  C   UNK     1      37.573 -23.262 -15.745  0.00  0.00    +0.090 C 
ENDROOT
BRANCH   1   3
ATOM      2  O   UNK     1      36.134 -25.176 -15.414  0.00  0.00    -0.328 OA
ATOM      3  C   UNK     1      37.127 -24.348 -14.783  0.00  0.00    +0.158 C 
ATOM      4  C   UNK     1      38.250 -25.286 -14.372  0.00  0.00    +0.170 C 
ATOM      5  C   UNK     1      37.486 -26.551 -14.037  0.00  0.00    +0.196 C 
ATOM      6  C   UNK     1      36.431 -26.559 -15.132  0.00  0.00    +0.262 C 
BRANCH   4   7
ATOM      7  O   UNK     1      38.995 -24.776 -13.287  0.00  0.00    -0.379 OA
ATOM      8  H   UNK     1      39.230 -23.852 -13.461  0.00  0.00    +0.211 HD
ENDBRANCH   4   7
BRANCH   5   9
ATOM      9  O   UNK     1      36.851 -26.412 -12.769  0.00  0.00    -0.378 OA
ATOM     10  H   UNK     1      37.081 -25.551 -12.385  0.00  0.00    +0.211 HD
ENDBRANCH   5   9
BRANCH   6  11
ATOM     11  O   UNK     1      36.962 -27.198 -16.286  0.00  0.00    -0.358 OA
ATOM     12  H   UNK     1      36.696 -26.709 -17.079  0.00  0.00    +0.213 HD
ENDBRANCH   6  11
ENDBRANCH   1   3
BRANCH   1  13
ATOM     13  S   UNK     1      36.185 -22.171 -16.160  0.00  0.00    -0.138 S 
BRANCH  13  14
ATOM     14  C   UNK     1      36.570 -21.904 -17.906  0.00  0.00    +0.056 C 
BRANCH  14  15
ATOM     15  C   UNK     1      35.297 -21.979 -18.753  0.00  0.00    +0.001 C 
BRANCH  15  16
ATOM     16  C   UNK     1      35.304 -21.047 -19.975  0.00  0.00    +0.041 C 
BRANCH  16  17
ATOM     17  N   UNK     1      36.410 -20.057 -19.779  0.00  0.00    +0.389 N 
ATOM     18  H   UNK     1      37.168 -20.260 -20.431  0.00  0.00    -0.088 HD
ATOM     19  H   UNK     1      36.758 -20.120 -18.822  0.00  0.00    -0.088 HD
ATOM     20  H   UNK     1      36.058 -19.116 -19.951  0.00  0.00    -0.088 HD
ENDBRANCH  16  17
BRANCH  16  23
ATOM     21  O   UNK     1      33.973 -19.527 -21.229  0.00  0.00    -0.248 OA
ATOM     22  O   UNK     1      32.954 -20.890 -19.710  0.00  0.00    -0.248 OA
ATOM     23  C   UNK     1      33.946 -20.419 -20.335  0.00  0.00    +0.345 C 
ENDBRANCH  16  23
ENDBRANCH  15  16
ENDBRANCH  14  15
ENDBRANCH  13  14
ENDBRANCH   1  13
TORSDOF 10
ENDMDL
MODEL 3
REMARK VINA RESULT:      -7.1      1.409      2.125
REMARK  Name = 25245776
REMARK  10 active torsions:
REMARK  status: ('A' for Active; 'I' for Inactive)
REMARK    1  A    between atoms: C_1  and  C_3
REMARK    2  A    between atoms: C_1  and  S_13
REMARK    3  A    between atoms: C_4  and  O_7
REMARK    4  A    between atoms: C_5  and  O_9
REMARK    5  A    between atoms: C_6  and  O_11
REMARK    6  A    between atoms: S_13  and  C_14
REMARK    7  A    between atoms: C_14  and  C_15
REMARK    8  A    between atoms: C_15  and  C_16
REMARK    9  A    between atoms: C_16  and  N_17
REMARK   10  A    between atoms: C_16  and  C_23
REMARK                            x       y       z     vdW  Elec       q    Type
REMARK                         _______ _______ _______ _____ _____    ______ ____
ROOT
ATOM      1  C   UNK     1      34.582 -24.728 -14.646  0.00  0.00    +0.090 C 
ENDROOT
BRANCH   1   3
ATOM      2  O   UNK     1      36.779 -24.358 -13.708  0.00  0.00    -0.328 OA
ATOM      3  C   UNK     1      36.076 -24.916 -14.833  0.00  0.00    +0.158 C 
ATOM      4  C   UNK     1      36.496 -26.375 -14.902  0.00  0.00    +0.170 C 
ATOM      5  C   UNK     1      37.929 -26.306 -14.414  0.00  0.00    +0.196 C 
ATOM      6  C   UNK     1      37.813 -25.277 -13.300  0.00  0.00    +0.262 C 
BRANCH   4   7
ATOM      7  O   UNK     1      36.373 -26.899 -16.207  0.00  0.00    -0.379 OA
ATOM      8  H   UNK     1      35.541 -26.594 -16.602  0.00  0.00    +0.211 HD
ENDBRANCH   4   7
BRANCH   5   9
ATOM      9  O   UNK     1      38.769 -25.795 -15.445  0.00  0.00    -0.378 OA
ATOM     10  H   UNK     1      38.799 -24.827 -15.387  0.00  0.00    +0.211 HD
ENDBRANCH   5   9
BRANCH   6  11
ATOM     11  O   UNK     1      37.445 -25.935 -12.094  0.00  0.00    -0.358 OA
ATOM     12  H   UNK     1      36.835 -25.374 -11.591  0.00  0.00    +0.213 HD
ENDBRANCH   6  11
ENDBRANCH   1   3
BRANCH   1  13
ATOM     13  S   UNK     1      33.939 -23.523 -15.838  0.00  0.00    -0.138 S 
BRANCH  13  14
ATOM     14  C   UNK     1      32.292 -23.297 -15.125  0.00  0.00    +0.056 C 
BRANCH  14  15
ATOM     15  C   UNK     1      31.249 -23.122 -16.231  0.00  0.00    +0.001 C 
BRANCH  15  16
ATOM     16  C   UNK     1      29.850 -23.636 -15.857  0.00  0.00    +0.041 C 
BRANCH  16  17
ATOM     17  N   UNK     1      29.960 -25.111 -15.626  0.00  0.00    +0.389 N 
ATOM     18  H   UNK     1      30.022 -25.295 -14.624  0.00  0.00    -0.088 HD
ATOM     19  H   UNK     1      30.796 -25.467 -16.089  0.00  0.00    -0.088 HD
ATOM     20  H   UNK     1      29.137 -25.577 -16.007  0.00  0.00    -0.088 HD
ENDBRANCH  16  17
BRANCH  16  23
ATOM     21  O   UNK     1      28.009 -24.171 -17.265  0.00  0.00    -0.248 OA
ATOM     22  O   UNK     1      28.609 -21.984 -17.019  0.00  0.00    -0.248 OA
ATOM     23  C   UNK     1      28.717 -23.227 -16.815  0.00  0.00    +0.345 C 
ENDBRANCH  16  23
ENDBRANCH  15  16
ENDBRANCH  14  15
ENDBRANCH  13  14
ENDBRANCH   1  13
TORSDOF 10
ENDMDL
MODEL 4
REMARK VINA RESULT:      -7.0      4.523      5.024
REMARK  Name = 25245776
REMARK  10 active torsions:
REMARK  status: ('A' for Active; 'I' for Inactive)
REMARK    1  A    between atoms: C_1  and  C_3
REMARK    2  A    between atoms: C_1  and  S_13
REMARK    3  A    between atoms: C_4  and  O_7
REMARK    4  A    between atoms: C_5  and  O_9
REMARK    5  A    between atoms: C_6  and  O_11
REMARK    6  A    between atoms: S_13  and  C_14
REMARK    7  A    between atoms: C_14  and  C_15
REMARK    8  A    between atoms: C_15  and  C_16
REMARK    9  A    between atoms: C_16  and  N_17
REMARK   10  A    between atoms: C_16  and  C_23
REMARK                            x       y       z     vdW  Elec       q    Type
REMARK                         _______ _______ _______ _____ _____    ______ ____
ROOT
ATOM      1  C   UNK     1      36.544 -23.274 -15.052  0.00  0.00    +0.090 C 
ENDROOT
BRANCH   1   3
ATOM      2  O   UNK     1      38.308 -24.349 -13.796  0.00  0.00    -0.328 OA
ATOM      3  C   UNK     1      37.391 -24.523 -14.891  0.00  0.00    +0.158 C 
ATOM      4  C   UNK     1      36.578 -25.763 -14.558  0.00  0.00    +0.170 C 
ATOM      5  C   UNK     1      37.596 -26.608 -13.819  0.00  0.00    +0.196 C 
ATOM      6  C   UNK     1      38.321 -25.551 -13.000  0.00  0.00    +0.262 C 
BRANCH   4   7
ATOM      7  O   UNK     1      36.066 -26.387 -15.716  0.00  0.00    -0.379 OA
ATOM      8  H   UNK     1      36.568 -26.092 -16.491  0.00  0.00    +0.211 HD
ENDBRANCH   4   7
BRANCH   5   9
ATOM      9  O   UNK     1      38.505 -27.194 -14.747  0.00  0.00    -0.378 OA
ATOM     10  H   UNK     1      38.230 -28.104 -14.938  0.00  0.00    +0.211 HD
ENDBRANCH   5   9
BRANCH   6  11
ATOM     11  O   UNK     1      37.621 -25.346 -11.779  0.00  0.00    -0.358 OA
ATOM     12  H   UNK     1      37.392 -26.203 -11.389  0.00  0.00    +0.213 HD
ENDBRANCH   6  11
ENDBRANCH   1   3
BRANCH   1  13
ATOM     13  S   UNK     1      37.289 -22.155 -16.269  0.00  0.00    -0.138 S 
BRANCH  13  14
ATOM     14  C   UNK     1      35.883 -22.018 -17.399  0.00  0.00    +0.056 C 
BRANCH  14  15
ATOM     15  C   UNK     1      36.353 -21.576 -18.787  0.00  0.00    +0.001 C 
BRANCH  15  16
ATOM     16  C   UNK     1      35.232 -21.524 -19.837  0.00  0.00    +0.041 C 
BRANCH  16  17
ATOM     17  N   UNK     1      35.061 -20.093 -20.242  0.00  0.00    +0.389 N 
ATOM     18  H   UNK     1      34.434 -19.627 -19.587  0.00  0.00    -0.088 HD
ATOM     19  H   UNK     1      34.665 -20.050 -21.182  0.00  0.00    -0.088 HD
ATOM     20  H   UNK     1      35.968 -19.627 -20.235  0.00  0.00    -0.088 HD
ENDBRANCH  16  17
BRANCH  16  23
ATOM     21  O   UNK     1      33.960 -23.497 -19.451  0.00  0.00    -0.248 OA
ATOM     22  O   UNK     1      32.969 -21.467 -19.134  0.00  0.00    -0.248 OA
ATOM     23  C   UNK     1      33.924 -22.234 -19.445  0.00  0.00    +0.345 C 
ENDBRANCH  16  23
ENDBRANCH  15  16
ENDBRANCH  14  15
ENDBRANCH  13  14
ENDBRANCH   1  13
TORSDOF 10
ENDMDL
MODEL 5
REMARK VINA RESULT:      -6.9      4.229      4.654
REMARK  Name = 25245776
REMARK  10 active torsions:
REMARK  status: ('A' for Active; 'I' for Inactive)
REMARK    1  A    between atoms: C_1  and  C_3
REMARK    2  A    between atoms: C_1  and  S_13
REMARK    3  A    between atoms: C_4  and  O_7
REMARK    4  A    between atoms: C_5  and  O_9
REMARK    5  A    between atoms: C_6  and  O_11
REMARK    6  A    between atoms: S_13  and  C_14
REMARK    7  A    between atoms: C_14  and  C_15
REMARK    8  A    between atoms: C_15  and  C_16
REMARK    9  A    between atoms: C_16  and  N_17
REMARK   10  A    between atoms: C_16  and  C_23
REMARK                            x       y       z     vdW  Elec       q    Type
REMARK                         _______ _______ _______ _____ _____    ______ ____
ROOT
ATOM      1  C   UNK     1      36.066 -23.164 -15.108  0.00  0.00    +0.090 C 
ENDROOT
BRANCH   1   3
ATOM      2  O   UNK     1      37.780 -23.763 -13.512  0.00  0.00    -0.328 OA
ATOM      3  C   UNK     1      36.429 -24.040 -13.924  0.00  0.00    +0.158 C 
ATOM      4  C   UNK     1      35.563 -23.791 -12.701  0.00  0.00    +0.170 C 
ATOM      5  C   UNK     1      36.488 -24.213 -11.577  0.00  0.00    +0.196 C 
ATOM      6  C   UNK     1      37.821 -23.674 -12.074  0.00  0.00    +0.262 C 
BRANCH   4   7
ATOM      7  O   UNK     1      34.361 -24.530 -12.745  0.00  0.00    -0.379 OA
ATOM      8  H   UNK     1      34.098 -24.774 -11.843  0.00  0.00    +0.211 HD
ENDBRANCH   4   7
BRANCH   5   9
ATOM      9  O   UNK     1      36.549 -25.635 -11.508  0.00  0.00    -0.378 OA
ATOM     10  H   UNK     1      36.912 -25.984 -12.337  0.00  0.00    +0.211 HD
ENDBRANCH   5   9
BRANCH   6  11
ATOM     11  O   UNK     1      37.958 -22.319 -11.663  0.00  0.00    -0.358 OA
ATOM     12  H   UNK     1      38.886 -22.136 -11.454  0.00  0.00    +0.213 HD
ENDBRANCH   6  11
ENDBRANCH   1   3
BRANCH   1  13
ATOM     13  S   UNK     1      37.557 -22.664 -16.011  0.00  0.00    -0.138 S 
BRANCH  13  14
ATOM     14  C   UNK     1      36.762 -21.721 -17.334  0.00  0.00    +0.056 C 
BRANCH  14  15
ATOM     15  C   UNK     1      35.400 -22.327 -17.681  0.00  0.00    +0.001 C 
BRANCH  15  16
ATOM     16  C   UNK     1      34.894 -21.963 -19.085  0.00  0.00    +0.041 C 
BRANCH  16  17
ATOM     17  N   UNK     1      35.699 -20.796 -19.565  0.00  0.00    +0.389 N 
ATOM     18  H   UNK     1      36.232 -21.066 -20.391  0.00  0.00    -0.088 HD
ATOM     19  H   UNK     1      36.339 -20.498 -18.829  0.00  0.00    -0.088 HD
ATOM     20  H   UNK     1      35.073 -20.026 -19.802  0.00  0.00    -0.088 HD
ENDBRANCH  16  17
BRANCH  16  23
ATOM     21  O   UNK     1      32.666 -22.486 -18.438  0.00  0.00    -0.248 OA
ATOM     22  O   UNK     1      33.003 -20.921 -20.064  0.00  0.00    -0.248 OA
ATOM     23  C   UNK     1      33.372 -21.780 -19.213  0.00  0.00    +0.345 C 
ENDBRANCH  16  23
ENDBRANCH  15  16
ENDBRANCH  14  15
ENDBRANCH  13  14
ENDBRANCH   1  13
TORSDOF 10
ENDMDL
MODEL 6
REMARK VINA RESULT:      -6.9      1.688      2.587
REMARK  Name = 25245776
REMARK  10 active torsions:
REMARK  status: ('A' for Active; 'I' for Inactive)
REMARK    1  A    between atoms: C_1  and  C_3
REMARK    2  A    between atoms: C_1  and  S_13
REMARK    3  A    between atoms: C_4  and  O_7
REMARK    4  A    between atoms: C_5  and  O_9
REMARK    5  A    between atoms: C_6  and  O_11
REMARK    6  A    between atoms: S_13  and  C_14
REMARK    7  A    between atoms: C_14  and  C_15
REMARK    8  A    between atoms: C_15  and  C_16
REMARK    9  A    between atoms: C_16  and  N_17
REMARK   10  A    between atoms: C_16  and  C_23
REMARK                            x       y       z     vdW  Elec       q    Type
REMARK                         _______ _______ _______ _____ _____    ______ ____
ROOT
ATOM      1  C   UNK     1      35.586 -23.865 -15.220  0.00  0.00    +0.090 C 
ENDROOT
BRANCH   1   3
ATOM      2  O   UNK     1      37.255 -24.496 -13.589  0.00  0.00    -0.328 OA
ATOM      3  C   UNK     1      36.748 -24.788 -14.903  0.00  0.00    +0.158 C 
ATOM      4  C   UNK     1      36.362 -26.258 -14.881  0.00  0.00    +0.170 C 
ATOM      5  C   UNK     1      37.400 -26.835 -13.940  0.00  0.00    +0.196 C 
ATOM      6  C   UNK     1      37.492 -25.736 -12.892  0.00  0.00    +0.262 C 
BRANCH   4   7
ATOM      7  O   UNK     1      36.394 -26.833 -16.170  0.00  0.00    -0.379 OA
ATOM      8  H   UNK     1      36.003 -27.720 -16.139  0.00  0.00    +0.211 HD
ENDBRANCH   4   7
BRANCH   5   9
ATOM      9  O   UNK     1      38.651 -26.955 -14.611  0.00  0.00    -0.378 OA
ATOM     10  H   UNK     1      38.839 -27.892 -14.779  0.00  0.00    +0.211 HD
ENDBRANCH   5   9
BRANCH   6  11
ATOM     11  O   UNK     1      36.492 -25.949 -11.903  0.00  0.00    -0.358 OA
ATOM     12  H   UNK     1      36.768 -26.667 -11.313  0.00  0.00    +0.213 HD
ENDBRANCH   6  11
ENDBRANCH   1   3
BRANCH   1  13
ATOM     13  S   UNK     1      34.141 -24.294 -14.212  0.00  0.00    -0.138 S 
BRANCH  13  14
ATOM     14  C   UNK     1      32.859 -23.576 -15.267  0.00  0.00    +0.056 C 
BRANCH  14  15
ATOM     15  C   UNK     1      31.809 -22.856 -14.419  0.00  0.00    +0.001 C 
BRANCH  15  16
ATOM     16  C   UNK     1      30.406 -23.477 -14.502  0.00  0.00    +0.041 C 
BRANCH  16  17
ATOM     17  N   UNK     1      30.390 -24.674 -13.602  0.00  0.00    +0.389 N 
ATOM     18  H   UNK     1      29.451 -25.071 -13.581  0.00  0.00    -0.088 HD
ATOM     19  H   UNK     1      30.662 -24.393 -12.659  0.00  0.00    -0.088 HD
ATOM     20  H   UNK     1      31.047 -25.371 -13.951  0.00  0.00    -0.088 HD
ENDBRANCH  16  17
BRANCH  16  23
ATOM     21  O   UNK     1      29.846 -22.746 -16.695  0.00  0.00    -0.248 OA
ATOM     22  O   UNK     1      29.582 -24.950 -16.168  0.00  0.00    -0.248 OA
ATOM     23  C   UNK     1      29.886 -23.747 -15.925  0.00  0.00    +0.345 C 
ENDBRANCH  16  23
ENDBRANCH  15  16
ENDBRANCH  14  15
ENDBRANCH  13  14
ENDBRANCH   1  13
TORSDOF 10
ENDMDL
MODEL 7
REMARK VINA RESULT:      -6.7      1.096      2.266
REMARK  Name = 25245776
REMARK  10 active torsions:
REMARK  status: ('A' for Active; 'I' for Inactive)
REMARK    1  A    between atoms: C_1  and  C_3
REMARK    2  A    between atoms: C_1  and  S_13
REMARK    3  A    between atoms: C_4  and  O_7
REMARK    4  A    between atoms: C_5  and  O_9
REMARK    5  A    between atoms: C_6  and  O_11
REMARK    6  A    between atoms: S_13  and  C_14
REMARK    7  A    between atoms: C_14  and  C_15
REMARK    8  A    between atoms: C_15  and  C_16
REMARK    9  A    between atoms: C_16  and  N_17
REMARK   10  A    between atoms: C_16  and  C_23
REMARK                            x       y       z     vdW  Elec       q    Type
REMARK                         _______ _______ _______ _____ _____    ______ ____
ROOT
ATOM      1  C   UNK     1      34.563 -24.037 -14.870  0.00  0.00    +0.090 C 
ENDROOT
BRANCH   1   3
ATOM      2  O   UNK     1      35.378 -24.551 -12.653  0.00  0.00    -0.328 OA
ATOM      3  C   UNK     1      35.595 -23.717 -13.805  0.00  0.00    +0.158 C 
ATOM      4  C   UNK     1      37.023 -23.987 -14.249  0.00  0.00    +0.170 C 
ATOM      5  C   UNK     1      37.712 -24.250 -12.926  0.00  0.00    +0.196 C 
ATOM      6  C   UNK     1      36.648 -25.053 -12.193  0.00  0.00    +0.262 C 
BRANCH   4   7
ATOM      7  O   UNK     1      37.571 -22.897 -14.959  0.00  0.00    -0.379 OA
ATOM      8  H   UNK     1      36.897 -22.521 -15.547  0.00  0.00    +0.211 HD
ENDBRANCH   4   7
BRANCH   5   9
ATOM      9  O   UNK     1      37.932 -23.021 -12.240  0.00  0.00    -0.378 OA
ATOM     10  H   UNK     1      37.098 -22.714 -11.851  0.00  0.00    +0.211 HD
ENDBRANCH   5   9
BRANCH   6  11
ATOM     11  O   UNK     1      36.790 -26.429 -12.528  0.00  0.00    -0.358 OA
ATOM     12  H   UNK     1      35.917 -26.850 -12.544  0.00  0.00    +0.213 HD
ENDBRANCH   6  11
ENDBRANCH   1   3
BRANCH   1  13
ATOM     13  S   UNK     1      32.888 -23.752 -14.238  0.00  0.00    -0.138 S 
BRANCH  13  14
ATOM     14  C   UNK     1      32.020 -23.649 -15.822  0.00  0.00    +0.056 C 
BRANCH  14  15
ATOM     15  C   UNK     1      30.735 -22.830 -15.677  0.00  0.00    +0.001 C 
BRANCH  15  16
ATOM     16  C   UNK     1      29.449 -23.662 -15.795  0.00  0.00    +0.041 C 
BRANCH  16  17
ATOM     17  N   UNK     1      29.851 -25.099 -15.909  0.00  0.00    +0.389 N 
ATOM     18  H   UNK     1      30.866 -25.165 -15.972  0.00  0.00    -0.088 HD
ATOM     19  H   UNK     1      29.432 -25.504 -16.747  0.00  0.00    -0.088 HD
ATOM     20  H   UNK     1      29.527 -25.609 -15.088  0.00  0.00    -0.088 HD
ENDBRANCH  16  17
BRANCH  16  23
ATOM     21  O   UNK     1      28.422 -21.948 -17.086  0.00  0.00    -0.248 OA
ATOM     22  O   UNK     1      27.802 -24.115 -17.439  0.00  0.00    -0.248 OA
ATOM     23  C   UNK     1      28.454 -23.193 -16.872  0.00  0.00    +0.345 C 
ENDBRANCH  16  23
ENDBRANCH  15  16
ENDBRANCH  14  15
ENDBRANCH  13  14
ENDBRANCH   1  13
TORSDOF 10
ENDMDL
MODEL 8
REMARK VINA RESULT:      -6.7     10.378     12.496
REMARK  Name = 25245776
REMARK  10 active torsions:
REMARK  status: ('A' for Active; 'I' for Inactive)
REMARK    1  A    between atoms: C_1  and  C_3
REMARK    2  A    between atoms: C_1  and  S_13
REMARK    3  A    between atoms: C_4  and  O_7
REMARK    4  A    between atoms: C_5  and  O_9
REMARK    5  A    between atoms: C_6  and  O_11
REMARK    6  A    between atoms: S_13  and  C_14
REMARK    7  A    between atoms: C_14  and  C_15
REMARK    8  A    between atoms: C_15  and  C_16
REMARK    9  A    between atoms: C_16  and  N_17
REMARK   10  A    between atoms: C_16  and  C_23
REMARK                            x       y       z     vdW  Elec       q    Type
REMARK                         _______ _______ _______ _____ _____    ______ ____
ROOT
ATOM      1  C   UNK     1      34.982 -15.915 -23.861  0.00  0.00    +0.090 C 
ENDROOT
BRANCH   1   3
ATOM      2  O   UNK     1      33.029 -15.824 -22.438  0.00  0.00    -0.328 OA
ATOM      3  C   UNK     1      33.741 -15.129 -23.478  0.00  0.00    +0.158 C 
ATOM      4  C   UNK     1      34.050 -13.750 -22.920  0.00  0.00    +0.170 C 
ATOM      5  C   UNK     1      32.839 -13.495 -22.044  0.00  0.00    +0.196 C 
ATOM      6  C   UNK     1      32.618 -14.872 -21.436  0.00  0.00    +0.262 C 
BRANCH   4   7
ATOM      7  O   UNK     1      34.214 -12.790 -23.942  0.00  0.00    -0.379 OA
ATOM      8  H   UNK     1      34.737 -12.045 -23.605  0.00  0.00    +0.211 HD
ENDBRANCH   4   7
BRANCH   5   9
ATOM      9  O   UNK     1      31.719 -13.150 -22.854  0.00  0.00    -0.378 OA
ATOM     10  H   UNK     1      32.029 -12.744 -23.679  0.00  0.00    +0.211 HD
ENDBRANCH   5   9
BRANCH   6  11
ATOM     11  O   UNK     1      33.422 -15.001 -20.270  0.00  0.00    -0.358 OA
ATOM     12  H   UNK     1      34.355 -15.067 -20.525  0.00  0.00    +0.213 HD
ENDBRANCH   6  11
ENDBRANCH   1   3
BRANCH   1  13
ATOM     13  S   UNK     1      34.566 -17.223 -25.045  0.00  0.00    -0.138 S 
BRANCH  13  14
ATOM     14  C   UNK     1      34.739 -18.645 -23.942  0.00  0.00    +0.056 C 
BRANCH  14  15
ATOM     15  C   UNK     1      35.703 -18.321 -22.798  0.00  0.00    +0.001 C 
BRANCH  15  16
ATOM     16  C   UNK     1      35.100 -18.522 -21.399  0.00  0.00    +0.041 C 
BRANCH  16  17
ATOM     17  N   UNK     1      35.239 -17.229 -20.658  0.00  0.00    +0.389 N 
ATOM     18  H   UNK     1      35.917 -17.339 -19.905  0.00  0.00    -0.088 HD
ATOM     19  H   UNK     1      34.335 -16.962 -20.267  0.00  0.00    -0.088 HD
ATOM     20  H   UNK     1      35.558 -16.503 -21.300  0.00  0.00    -0.088 HD
ENDBRANCH  16  17
BRANCH  16  23
ATOM     21  O   UNK     1      36.796 -19.677 -20.195  0.00  0.00    -0.248 OA
ATOM     22  O   UNK     1      34.774 -20.690 -20.496  0.00  0.00    -0.248 OA
ATOM     23  C   UNK     1      35.612 -19.753 -20.629  0.00  0.00    +0.345 C 
ENDBRANCH  16  23
ENDBRANCH  15  16
ENDBRANCH  14  15
ENDBRANCH  13  14
ENDBRANCH   1  13
TORSDOF 10
ENDMDL
MODEL 9
REMARK VINA RESULT:      -6.6      3.593      4.182
REMARK  Name = 25245776
REMARK  10 active torsions:
REMARK  status: ('A' for Active; 'I' for Inactive)
REMARK    1  A    between atoms: C_1  and  C_3
REMARK    2  A    between atoms: C_1  and  S_13
REMARK    3  A    between atoms: C_4  and  O_7
REMARK    4  A    between atoms: C_5  and  O_9
REMARK    5  A    between atoms: C_6  and  O_11
REMARK    6  A    between atoms: S_13  and  C_14
REMARK    7  A    between atoms: C_14  and  C_15
REMARK    8  A    between atoms: C_15  and  C_16
REMARK    9  A    between atoms: C_16  and  N_17
REMARK   10  A    between atoms: C_16  and  C_23
REMARK                            x       y       z     vdW  Elec       q    Type
REMARK                         _______ _______ _______ _____ _____    ______ ____
ROOT
ATOM      1  C   UNK     1      36.392 -23.507 -15.247  0.00  0.00    +0.090 C 
ENDROOT
BRANCH   1   3
ATOM      2  O   UNK     1      38.196 -24.003 -13.716  0.00  0.00    -0.328 OA
ATOM      3  C   UNK     1      37.563 -24.421 -14.938  0.00  0.00    +0.158 C 
ATOM      4  C   UNK     1      37.157 -25.869 -14.721  0.00  0.00    +0.170 C 
ATOM      5  C   UNK     1      38.268 -26.369 -13.820  0.00  0.00    +0.196 C 
ATOM      6  C   UNK     1      38.477 -25.166 -12.912  0.00  0.00    +0.262 C 
BRANCH   4   7
ATOM      7  O   UNK     1      37.058 -26.580 -15.937  0.00  0.00    -0.379 OA
ATOM      8  H   UNK     1      37.146 -27.530 -15.764  0.00  0.00    +0.211 HD
ENDBRANCH   4   7
BRANCH   5   9
ATOM      9  O   UNK     1      39.449 -26.593 -14.586  0.00  0.00    -0.378 OA
ATOM     10  H   UNK     1      40.195 -26.758 -13.989  0.00  0.00    +0.211 HD
ENDBRANCH   5   9
BRANCH   6  11
ATOM     11  O   UNK     1      37.570 -25.246 -11.819  0.00  0.00    -0.358 OA
ATOM     12  H   UNK     1      36.661 -25.287 -12.154  0.00  0.00    +0.213 HD
ENDBRANCH   6  11
ENDBRANCH   1   3
BRANCH   1  13
ATOM     13  S   UNK     1      34.954 -23.954 -14.237  0.00  0.00    -0.138 S 
BRANCH  13  14
ATOM     14  C   UNK     1      33.666 -23.208 -15.264  0.00  0.00    +0.056 C 
BRANCH  14  15
ATOM     15  C   UNK     1      33.780 -23.701 -16.708  0.00  0.00    +0.001 C 
BRANCH  15  16
ATOM     16  C   UNK     1      33.451 -22.631 -17.761  0.00  0.00    +0.041 C 
BRANCH  16  17
ATOM     17  N   UNK     1      31.961 -22.507 -17.827  0.00  0.00    +0.389 N 
ATOM     18  H   UNK     1      31.711 -21.721 -18.426  0.00  0.00    -0.088 HD
ATOM     19  H   UNK     1      31.591 -22.351 -16.889  0.00  0.00    -0.088 HD
ATOM     20  H   UNK     1      31.565 -23.366 -18.209  0.00  0.00    -0.088 HD
ENDBRANCH  16  17
BRANCH  16  23
ATOM     21  O   UNK     1      34.793 -21.826 -19.553  0.00  0.00    -0.248 OA
ATOM     22  O   UNK     1      33.978 -23.954 -19.657  0.00  0.00    -0.248 OA
ATOM     23  C   UNK     1      34.134 -22.816 -19.128  0.00  0.00    +0.345 C 
ENDBRANCH  16  23
ENDBRANCH  15  16
ENDBRANCH  14  15
ENDBRANCH  13  14
ENDBRANCH   1  13
TORSDOF 10
ENDMDL
