MODEL 1
REMARK VINA RESULT:     -10.9      0.000      0.000
REMARK  Name = 16850
REMARK  2 active torsions:
REMARK  status: ('A' for Active; 'I' for Inactive)
REMARK    1  A    between atoms: C_22  and  O_24
REMARK    2  A    between atoms: C_23  and  O_26
REMARK                            x       y       z     vdW  Elec       q    Type
REMARK                         _______ _______ _______ _____ _____    ______ ____
ROOT
ATOM      1  O   UNL     1      35.374 -22.710 -13.987  0.00  0.00    -0.440 OA
ATOM      2  O   UNL     1      33.059 -23.311 -17.288  0.00  0.00    -0.454 OA
ATOM      3  O   UNL     1      36.840 -22.775 -12.197  0.00  0.00    -0.245 OA
ATOM      4  C   UNL     1      34.965 -23.581 -15.090  0.00  0.00    +0.198 C 
ATOM      5  C   UNL     1      35.815 -24.787 -14.852  0.00  0.00    +0.028 C 
ATOM      6  C   UNL     1      33.483 -23.863 -14.946  0.00  0.00    +0.056 C 
ATOM      7  C   UNL     1      35.291 -22.877 -16.393  0.00  0.00    +0.056 C 
ATOM      8  C   UNL     1      36.604 -24.591 -13.733  0.00  0.00    +0.076 C 
ATOM      9  C   UNL     1      32.634 -23.728 -16.050  0.00  0.00    +0.148 C 
ATOM     10  C   UNL     1      34.330 -22.803 -17.407  0.00  0.00    +0.148 C 
ATOM     11  C   UNL     1      36.328 -23.274 -13.179  0.00  0.00    +0.342 C 
ATOM     12  C   UNL     1      35.895 -25.975 -15.561  0.00  0.00    -0.000 C 
ATOM     13  C   UNL     1      32.928 -24.293 -13.727  0.00  0.00    +0.006 C 
ATOM     14  C   UNL     1      36.557 -22.313 -16.632  0.00  0.00    +0.006 C 
ATOM     15  C   UNL     1      37.493 -25.542 -13.269  0.00  0.00    +0.006 C 
ATOM     16  C   UNL     1      31.270 -24.024 -15.945  0.00  0.00    +0.074 C 
ATOM     17  C   UNL     1      34.626 -22.193 -18.631  0.00  0.00    +0.074 C 
ATOM     18  C   UNL     1      36.786 -26.956 -15.116  0.00  0.00    -0.000 C 
ATOM     19  C   UNL     1      31.567 -24.582 -13.620  0.00  0.00    +0.037 C 
ATOM     20  C   UNL     1      36.851 -21.698 -17.851  0.00  0.00    +0.037 C 
ATOM     21  C   UNL     1      37.580 -26.740 -13.977  0.00  0.00    +0.000 C 
ATOM     22  C   UNL     1      30.738 -24.449 -14.731  0.00  0.00    +0.137 C 
ATOM     23  C   UNL     1      35.884 -21.640 -18.851  0.00  0.00    +0.137 C 
ENDROOT
BRANCH  22  24
ATOM     24  O   UNL     1      29.411 -24.733 -14.629  0.00  0.00    -0.505 OA
ATOM     25  H   UNL     1      29.135 -25.582 -14.342  0.00  0.00    +0.292 HD
ENDBRANCH  22  24
BRANCH  23  26
ATOM     26  O   UNL     1      36.169 -21.043 -20.040  0.00  0.00    -0.505 OA
ATOM     27  H   UNL     1      36.104 -20.113 -20.125  0.00  0.00    +0.292 HD
ENDBRANCH  23  26
TORSDOF 2
ENDMDL
