MODEL 1
REMARK VINA RESULT:      -5.8      0.000      0.000
REMARK  Name = 2526
REMARK  8 active torsions:
REMARK  status: ('A' for Active; 'I' for Inactive)
REMARK    1  A    between atoms: O_1  and  P_2
REMARK    2  A    between atoms: O_1  and  C_8
REMARK    3  A    between atoms: P_2  and  O_4
REMARK    4  A    between atoms: P_2  and  O_6
REMARK    5  A    between atoms: C_8  and  C_9
REMARK    6  A    between atoms: C_8  and  C_12
REMARK    7  A    between atoms: C_9  and  O_10
REMARK    8  A    between atoms: C_12  and  O_13
REMARK                            x       y       z     vdW  Elec       q    Type
REMARK                         _______ _______ _______ _____ _____    ______ ____
ROOT
ATOM      1  O   UNL     1      38.748 -26.782 -14.512  0.00  0.00    -0.271 OA
ENDROOT
BRANCH   1   2
ATOM      2  P   UNL     1      40.189 -26.063 -14.617  0.00  0.00    +0.473 P 
ATOM      3  O   UNL     1      41.327 -26.821 -13.998  0.00  0.00    -0.227 OA
BRANCH   2   4
ATOM      4  O   UNL     1      39.930 -24.588 -14.010  0.00  0.00    -0.303 OA
ATOM      5  H   UNL     1      39.137 -24.603 -13.450  0.00  0.00    +0.222 HD
ENDBRANCH   2   4
BRANCH   2   6
ATOM      6  O   UNL     1      40.331 -25.793 -16.205  0.00  0.00    -0.303 OA
ATOM      7  H   UNL     1      41.175 -26.153 -16.519  0.00  0.00    +0.222 HD
ENDBRANCH   2   6
ENDBRANCH   1   2
BRANCH   1   8
ATOM      8  C   UNL     1      37.615 -25.974 -14.186  0.00  0.00    +0.184 C 
BRANCH   8   9
ATOM      9  C   UNL     1      37.213 -26.286 -12.749  0.00  0.00    +0.170 C 
BRANCH   9  10
ATOM     10  O   UNL     1      37.851 -25.358 -11.879  0.00  0.00    -0.379 OA
ATOM     11  H   UNL     1      37.178 -24.838 -11.413  0.00  0.00    +0.211 HD
ENDBRANCH   9  10
ENDBRANCH   8   9
BRANCH   8  12
ATOM     12  C   UNL     1      36.489 -26.292 -15.162  0.00  0.00    +0.170 C 
BRANCH  12  13
ATOM     13  O   UNL     1      36.952 -27.205 -16.152  0.00  0.00    -0.379 OA
ATOM     14  H   UNL     1      37.602 -26.763 -16.720  0.00  0.00    +0.211 HD
ENDBRANCH  12  13
ENDBRANCH   8  12
ENDBRANCH   1   8
TORSDOF 8
ENDMDL
MODEL 2
REMARK VINA RESULT:      -5.6      1.638      3.154
REMARK  Name = 2526
REMARK  8 active torsions:
REMARK  status: ('A' for Active; 'I' for Inactive)
REMARK    1  A    between atoms: O_1  and  P_2
REMARK    2  A    between atoms: O_1  and  C_8
REMARK    3  A    between atoms: P_2  and  O_4
REMARK    4  A    between atoms: P_2  and  O_6
REMARK    5  A    between atoms: C_8  and  C_9
REMARK    6  A    between atoms: C_8  and  C_12
REMARK    7  A    between atoms: C_9  and  O_10
REMARK    8  A    between atoms: C_12  and  O_13
REMARK                            x       y       z     vdW  Elec       q    Type
REMARK                         _______ _______ _______ _____ _____    ______ ____
ROOT
ATOM      1  O   UNL     1      39.508 -24.745 -13.754  0.00  0.00    -0.271 OA
ENDROOT
BRANCH   1   2
ATOM      2  P   UNL     1      40.072 -26.021 -14.564  0.00  0.00    +0.473 P 
ATOM      3  O   UNL     1      41.308 -26.648 -13.986  0.00  0.00    -0.227 OA
BRANCH   2   4
ATOM      4  O   UNL     1      40.215 -25.483 -16.081  0.00  0.00    -0.303 OA
ATOM      5  H   UNL     1      40.836 -26.049 -16.567  0.00  0.00    +0.222 HD
ENDBRANCH   2   4
BRANCH   2   6
ATOM      6  O   UNL     1      38.781 -26.992 -14.632  0.00  0.00    -0.303 OA
ATOM      7  H   UNL     1      39.041 -27.893 -14.388  0.00  0.00    +0.222 HD
ENDBRANCH   2   6
ENDBRANCH   1   2
BRANCH   1   8
ATOM      8  C   UNL     1      38.116 -24.718 -13.425  0.00  0.00    +0.184 C 
BRANCH   8   9
ATOM      9  C   UNL     1      37.421 -23.777 -14.402  0.00  0.00    +0.170 C 
BRANCH   9  10
ATOM     10  O   UNL     1      37.190 -24.469 -15.624  0.00  0.00    -0.379 OA
ATOM     11  H   UNL     1      37.930 -24.308 -16.231  0.00  0.00    +0.211 HD
ENDBRANCH   9  10
ENDBRANCH   8   9
BRANCH   8  12
ATOM     12  C   UNL     1      37.962 -24.241 -11.986  0.00  0.00    +0.170 C 
BRANCH  12  13
ATOM     13  O   UNL     1      38.851 -23.157 -11.738  0.00  0.00    -0.379 OA
ATOM     14  H   UNL     1      38.975 -23.053 -10.782  0.00  0.00    +0.211 HD
ENDBRANCH  12  13
ENDBRANCH   8  12
ENDBRANCH   1   8
TORSDOF 8
ENDMDL
MODEL 3
REMARK VINA RESULT:      -5.4      2.087      3.917
REMARK  Name = 2526
REMARK  8 active torsions:
REMARK  status: ('A' for Active; 'I' for Inactive)
REMARK    1  A    between atoms: O_1  and  P_2
REMARK    2  A    between atoms: O_1  and  C_8
REMARK    3  A    between atoms: P_2  and  O_4
REMARK    4  A    between atoms: P_2  and  O_6
REMARK    5  A    between atoms: C_8  and  C_9
REMARK    6  A    between atoms: C_8  and  C_12
REMARK    7  A    between atoms: C_9  and  O_10
REMARK    8  A    between atoms: C_12  and  O_13
REMARK                            x       y       z     vdW  Elec       q    Type
REMARK                         _______ _______ _______ _____ _____    ______ ____
ROOT
ATOM      1  O   UNL     1      38.702 -25.140 -12.799  0.00  0.00    -0.271 OA
ENDROOT
BRANCH   1   2
ATOM      2  P   UNL     1      37.728 -23.960 -12.290  0.00  0.00    +0.473 P 
ATOM      3  O   UNL     1      36.782 -23.422 -13.324  0.00  0.00    -0.227 OA
BRANCH   2   4
ATOM      4  O   UNL     1      38.738 -22.875 -11.646  0.00  0.00    -0.303 OA
ATOM      5  H   UNL     1      38.317 -22.001 -11.650  0.00  0.00    +0.222 HD
ENDBRANCH   2   4
BRANCH   2   6
ATOM      6  O   UNL     1      37.020 -24.624 -10.996  0.00  0.00    -0.303 OA
ATOM      7  H   UNL     1      36.082 -24.780 -11.186  0.00  0.00    +0.222 HD
ENDBRANCH   2   6
ENDBRANCH   1   2
BRANCH   1   8
ATOM      8  C   UNL     1      38.763 -25.404 -14.203  0.00  0.00    +0.184 C 
BRANCH   8   9
ATOM      9  C   UNL     1      37.868 -26.602 -14.495  0.00  0.00    +0.170 C 
BRANCH   9  10
ATOM     10  O   UNL     1      37.397 -26.511 -15.835  0.00  0.00    -0.379 OA
ATOM     11  H   UNL     1      37.881 -27.142 -16.391  0.00  0.00    +0.211 HD
ENDBRANCH   9  10
ENDBRANCH   8   9
BRANCH   8  12
ATOM     12  C   UNL     1      40.211 -25.683 -14.588  0.00  0.00    +0.170 C 
BRANCH  12  13
ATOM     13  O   UNL     1      40.302 -25.920 -15.989  0.00  0.00    -0.379 OA
ATOM     14  H   UNL     1      39.573 -25.467 -16.441  0.00  0.00    +0.211 HD
ENDBRANCH  12  13
ENDBRANCH   8  12
ENDBRANCH   1   8
TORSDOF 8
ENDMDL
MODEL 4
REMARK VINA RESULT:      -5.3      2.347      3.853
REMARK  Name = 2526
REMARK  8 active torsions:
REMARK  status: ('A' for Active; 'I' for Inactive)
REMARK    1  A    between atoms: O_1  and  P_2
REMARK    2  A    between atoms: O_1  and  C_8
REMARK    3  A    between atoms: P_2  and  O_4
REMARK    4  A    between atoms: P_2  and  O_6
REMARK    5  A    between atoms: C_8  and  C_9
REMARK    6  A    between atoms: C_8  and  C_12
REMARK    7  A    between atoms: C_9  and  O_10
REMARK    8  A    between atoms: C_12  and  O_13
REMARK                            x       y       z     vdW  Elec       q    Type
REMARK                         _______ _______ _______ _____ _____    ______ ____
ROOT
ATOM      1  O   UNL     1      38.343 -24.050 -13.579  0.00  0.00    -0.271 OA
ENDROOT
BRANCH   1   2
ATOM      2  P   UNL     1      37.558 -23.631 -12.234  0.00  0.00    +0.473 P 
ATOM      3  O   UNL     1      37.544 -24.672 -11.152  0.00  0.00    -0.227 OA
BRANCH   2   4
ATOM      4  O   UNL     1      36.103 -23.166 -12.764  0.00  0.00    -0.303 OA
ATOM      5  H   UNL     1      35.639 -23.928 -13.144  0.00  0.00    +0.222 HD
ENDBRANCH   2   4
BRANCH   2   6
ATOM      6  O   UNL     1      38.271 -22.237 -11.831  0.00  0.00    -0.303 OA
ATOM      7  H   UNL     1      39.156 -22.201 -12.226  0.00  0.00    +0.222 HD
ENDBRANCH   2   6
ENDBRANCH   1   2
BRANCH   1   8
ATOM      8  C   UNL     1      38.801 -25.399 -13.699  0.00  0.00    +0.184 C 
BRANCH   8   9
ATOM      9  C   UNL     1      40.209 -25.367 -14.282  0.00  0.00    +0.170 C 
BRANCH   9  10
ATOM     10  O   UNL     1      40.157 -25.799 -15.637  0.00  0.00    -0.379 OA
ATOM     11  H   UNL     1      41.060 -25.901 -15.978  0.00  0.00    +0.211 HD
ENDBRANCH   9  10
ENDBRANCH   8   9
BRANCH   8  12
ATOM     12  C   UNL     1      37.841 -26.164 -14.601  0.00  0.00    +0.170 C 
BRANCH  12  13
ATOM     13  O   UNL     1      37.237 -25.271 -15.532  0.00  0.00    -0.379 OA
ATOM     14  H   UNL     1      37.369 -24.357 -15.235  0.00  0.00    +0.211 HD
ENDBRANCH  12  13
ENDBRANCH   8  12
ENDBRANCH   1   8
TORSDOF 8
ENDMDL
MODEL 5
REMARK VINA RESULT:      -5.3      2.310      3.489
REMARK  Name = 2526
REMARK  8 active torsions:
REMARK  status: ('A' for Active; 'I' for Inactive)
REMARK    1  A    between atoms: O_1  and  P_2
REMARK    2  A    between atoms: O_1  and  C_8
REMARK    3  A    between atoms: P_2  and  O_4
REMARK    4  A    between atoms: P_2  and  O_6
REMARK    5  A    between atoms: C_8  and  C_9
REMARK    6  A    between atoms: C_8  and  C_12
REMARK    7  A    between atoms: C_9  and  O_10
REMARK    8  A    between atoms: C_12  and  O_13
REMARK                            x       y       z     vdW  Elec       q    Type
REMARK                         _______ _______ _______ _____ _____    ______ ____
ROOT
ATOM      1  O   UNL     1      36.833 -25.873 -13.126  0.00  0.00    -0.271 OA
ENDROOT
BRANCH   1   2
ATOM      2  P   UNL     1      37.276 -26.270 -14.625  0.00  0.00    +0.473 P 
ATOM      3  O   UNL     1      38.595 -26.979 -14.735  0.00  0.00    -0.227 OA
BRANCH   2   4
ATOM      4  O   UNL     1      37.170 -24.878 -15.441  0.00  0.00    -0.303 OA
ATOM      5  H   UNL     1      36.449 -24.343 -15.074  0.00  0.00    +0.222 HD
ENDBRANCH   2   4
BRANCH   2   6
ATOM      6  O   UNL     1      36.001 -27.111 -15.156  0.00  0.00    -0.303 OA
ATOM      7  H   UNL     1      36.075 -28.031 -14.860  0.00  0.00    +0.222 HD
ENDBRANCH   2   6
ENDBRANCH   1   2
BRANCH   1   8
ATOM      8  C   UNL     1      36.681 -24.486 -12.813  0.00  0.00    +0.184 C 
BRANCH   8   9
ATOM      9  C   UNL     1      37.891 -24.054 -11.994  0.00  0.00    +0.170 C 
BRANCH   9  10
ATOM     10  O   UNL     1      37.524 -22.949 -11.176  0.00  0.00    -0.379 OA
ATOM     11  H   UNL     1      36.874 -22.402 -11.644  0.00  0.00    +0.211 HD
ENDBRANCH   9  10
ENDBRANCH   8   9
BRANCH   8  12
ATOM     12  C   UNL     1      35.385 -24.298 -12.035  0.00  0.00    +0.170 C 
BRANCH  12  13
ATOM     13  O   UNL     1      35.419 -25.078 -10.844  0.00  0.00    -0.379 OA
ATOM     14  H   UNL     1      36.268 -25.542 -10.785  0.00  0.00    +0.211 HD
ENDBRANCH  12  13
ENDBRANCH   8  12
ENDBRANCH   1   8
TORSDOF 8
ENDMDL
MODEL 6
REMARK VINA RESULT:      -5.3      1.941      2.697
REMARK  Name = 2526
REMARK  8 active torsions:
REMARK  status: ('A' for Active; 'I' for Inactive)
REMARK    1  A    between atoms: O_1  and  P_2
REMARK    2  A    between atoms: O_1  and  C_8
REMARK    3  A    between atoms: P_2  and  O_4
REMARK    4  A    between atoms: P_2  and  O_6
REMARK    5  A    between atoms: C_8  and  C_9
REMARK    6  A    between atoms: C_8  and  C_12
REMARK    7  A    between atoms: C_9  and  O_10
REMARK    8  A    between atoms: C_12  and  O_13
REMARK                            x       y       z     vdW  Elec       q    Type
REMARK                         _______ _______ _______ _____ _____    ______ ____
ROOT
ATOM      1  O   UNL     1      38.821 -24.610 -12.991  0.00  0.00    -0.271 OA
ENDROOT
BRANCH   1   2
ATOM      2  P   UNL     1      39.419 -25.180 -14.376  0.00  0.00    +0.473 P 
ATOM      3  O   UNL     1      39.116 -26.624 -14.655  0.00  0.00    -0.227 OA
BRANCH   2   4
ATOM      4  O   UNL     1      40.989 -24.805 -14.304  0.00  0.00    -0.303 OA
ATOM      5  H   UNL     1      41.426 -25.082 -15.125  0.00  0.00    +0.222 HD
ENDBRANCH   2   4
BRANCH   2   6
ATOM      6  O   UNL     1      38.836 -24.137 -15.465  0.00  0.00    -0.303 OA
ATOM      7  H   UNL     1      39.421 -24.117 -16.238  0.00  0.00    +0.222 HD
ENDBRANCH   2   6
ENDBRANCH   1   2
BRANCH   1   8
ATOM      8  C   UNL     1      37.486 -24.099 -12.993  0.00  0.00    +0.184 C 
BRANCH   8   9
ATOM      9  C   UNL     1      37.347 -23.139 -11.818  0.00  0.00    +0.170 C 
BRANCH   9  10
ATOM     10  O   UNL     1      38.414 -22.198 -11.863  0.00  0.00    -0.379 OA
ATOM     11  H   UNL     1      38.842 -22.153 -10.993  0.00  0.00    +0.211 HD
ENDBRANCH   9  10
ENDBRANCH   8   9
BRANCH   8  12
ATOM     12  C   UNL     1      36.514 -25.267 -12.877  0.00  0.00    +0.170 C 
BRANCH  12  13
ATOM     13  O   UNL     1      36.932 -26.140 -11.832  0.00  0.00    -0.379 OA
ATOM     14  H   UNL     1      37.212 -25.616 -11.065  0.00  0.00    +0.211 HD
ENDBRANCH  12  13
ENDBRANCH   8  12
ENDBRANCH   1   8
TORSDOF 8
ENDMDL
MODEL 7
REMARK VINA RESULT:      -5.2      2.263      3.418
REMARK  Name = 2526
REMARK  8 active torsions:
REMARK  status: ('A' for Active; 'I' for Inactive)
REMARK    1  A    between atoms: O_1  and  P_2
REMARK    2  A    between atoms: O_1  and  C_8
REMARK    3  A    between atoms: P_2  and  O_4
REMARK    4  A    between atoms: P_2  and  O_6
REMARK    5  A    between atoms: C_8  and  C_9
REMARK    6  A    between atoms: C_8  and  C_12
REMARK    7  A    between atoms: C_9  and  O_10
REMARK    8  A    between atoms: C_12  and  O_13
REMARK                            x       y       z     vdW  Elec       q    Type
REMARK                         _______ _______ _______ _____ _____    ______ ____
ROOT
ATOM      1  O   UNL     1      36.853 -24.787 -13.863  0.00  0.00    -0.271 OA
ENDROOT
BRANCH   1   2
ATOM      2  P   UNL     1      38.179 -25.438 -14.511  0.00  0.00    +0.473 P 
ATOM      3  O   UNL     1      39.087 -26.138 -13.541  0.00  0.00    -0.227 OA
BRANCH   2   4
ATOM      4  O   UNL     1      38.851 -24.216 -15.327  0.00  0.00    -0.303 OA
ATOM      5  H   UNL     1      39.328 -24.565 -16.097  0.00  0.00    +0.222 HD
ENDBRANCH   2   4
BRANCH   2   6
ATOM      6  O   UNL     1      37.573 -26.378 -15.679  0.00  0.00    -0.303 OA
ATOM      7  H   UNL     1      38.293 -26.689 -16.249  0.00  0.00    +0.222 HD
ENDBRANCH   2   6
ENDBRANCH   1   2
BRANCH   1   8
ATOM      8  C   UNL     1      36.843 -24.543 -12.453  0.00  0.00    +0.184 C 
BRANCH   8   9
ATOM      9  C   UNL     1      35.396 -24.591 -11.979  0.00  0.00    +0.170 C 
BRANCH   9  10
ATOM     10  O   UNL     1      35.363 -25.078 -10.643  0.00  0.00    -0.379 OA
ATOM     11  H   UNL     1      34.632 -25.709 -10.547  0.00  0.00    +0.211 HD
ENDBRANCH   9  10
ENDBRANCH   8   9
BRANCH   8  12
ATOM     12  C   UNL     1      37.473 -23.182 -12.187  0.00  0.00    +0.170 C 
BRANCH  12  13
ATOM     13  O   UNL     1      37.284 -22.821 -10.822  0.00  0.00    -0.379 OA
ATOM     14  H   UNL     1      37.946 -23.269 -10.274  0.00  0.00    +0.211 HD
ENDBRANCH  12  13
ENDBRANCH   8  12
ENDBRANCH   1   8
TORSDOF 8
ENDMDL
MODEL 8
REMARK VINA RESULT:      -5.1      2.623      4.656
REMARK  Name = 2526
REMARK  8 active torsions:
REMARK  status: ('A' for Active; 'I' for Inactive)
REMARK    1  A    between atoms: O_1  and  P_2
REMARK    2  A    between atoms: O_1  and  C_8
REMARK    3  A    between atoms: P_2  and  O_4
REMARK    4  A    between atoms: P_2  and  O_6
REMARK    5  A    between atoms: C_8  and  C_9
REMARK    6  A    between atoms: C_8  and  C_12
REMARK    7  A    between atoms: C_9  and  O_10
REMARK    8  A    between atoms: C_12  and  O_13
REMARK                            x       y       z     vdW  Elec       q    Type
REMARK                         _______ _______ _______ _____ _____    ______ ____
ROOT
ATOM      1  O   UNL     1      36.611 -25.564 -11.902  0.00  0.00    -0.271 OA
ENDROOT
BRANCH   1   2
ATOM      2  P   UNL     1      36.053 -24.242 -11.166  0.00  0.00    +0.473 P 
ATOM      3  O   UNL     1      37.083 -23.186 -10.883  0.00  0.00    -0.227 OA
BRANCH   2   4
ATOM      4  O   UNL     1      35.280 -24.818  -9.869  0.00  0.00    -0.303 OA
ATOM      5  H   UNL     1      35.693 -24.467  -9.064  0.00  0.00    +0.222 HD
ENDBRANCH   2   4
BRANCH   2   6
ATOM      6  O   UNL     1      34.850 -23.778 -12.142  0.00  0.00    -0.303 OA
ATOM      7  H   UNL     1      34.987 -24.154 -13.025  0.00  0.00    +0.222 HD
ENDBRANCH   2   6
ENDBRANCH   1   2
BRANCH   1   8
ATOM      8  C   UNL     1      37.237 -25.411 -13.179  0.00  0.00    +0.184 C 
BRANCH   8   9
ATOM      9  C   UNL     1      36.981 -26.679 -13.984  0.00  0.00    +0.170 C 
BRANCH   9  10
ATOM     10  O   UNL     1      38.204 -27.110 -14.568  0.00  0.00    -0.379 OA
ATOM     11  H   UNL     1      38.930 -26.552 -14.247  0.00  0.00    +0.211 HD
ENDBRANCH   9  10
ENDBRANCH   8   9
BRANCH   8  12
ATOM     12  C   UNL     1      38.728 -25.176 -12.967  0.00  0.00    +0.170 C 
BRANCH  12  13
ATOM     13  O   UNL     1      39.291 -24.569 -14.127  0.00  0.00    -0.379 OA
ATOM     14  H   UNL     1      38.922 -23.679 -14.236  0.00  0.00    +0.211 HD
ENDBRANCH  12  13
ENDBRANCH   8  12
ENDBRANCH   1   8
TORSDOF 8
ENDMDL
MODEL 9
REMARK VINA RESULT:      -5.1      9.009     10.379
REMARK  Name = 2526
REMARK  8 active torsions:
REMARK  status: ('A' for Active; 'I' for Inactive)
REMARK    1  A    between atoms: O_1  and  P_2
REMARK    2  A    between atoms: O_1  and  C_8
REMARK    3  A    between atoms: P_2  and  O_4
REMARK    4  A    between atoms: P_2  and  O_6
REMARK    5  A    between atoms: C_8  and  C_9
REMARK    6  A    between atoms: C_8  and  C_12
REMARK    7  A    between atoms: C_9  and  O_10
REMARK    8  A    between atoms: C_12  and  O_13
REMARK                            x       y       z     vdW  Elec       q    Type
REMARK                         _______ _______ _______ _____ _____    ______ ____
ROOT
ATOM      1  O   UNL     1      28.818 -23.442 -15.109  0.00  0.00    -0.271 OA
ENDROOT
BRANCH   1   2
ATOM      2  P   UNL     1      28.432 -22.784 -16.530  0.00  0.00    +0.473 P 
ATOM      3  O   UNL     1      27.490 -21.617 -16.458  0.00  0.00    -0.227 OA
BRANCH   2   4
ATOM      4  O   UNL     1      27.912 -24.038 -17.409  0.00  0.00    -0.303 OA
ATOM      5  H   UNL     1      27.881 -24.831 -16.852  0.00  0.00    +0.222 HD
ENDBRANCH   2   4
BRANCH   2   6
ATOM      6  O   UNL     1      29.880 -22.456 -17.170  0.00  0.00    -0.303 OA
ATOM      7  H   UNL     1      29.949 -22.872 -18.043  0.00  0.00    +0.222 HD
ENDBRANCH   2   6
ENDBRANCH   1   2
BRANCH   1   8
ATOM      8  C   UNL     1      30.114 -24.033 -14.971  0.00  0.00    +0.184 C 
BRANCH   8   9
ATOM      9  C   UNL     1      29.944 -25.547 -14.986  0.00  0.00    +0.170 C 
BRANCH   9  10
ATOM     10  O   UNL     1      28.699 -25.878 -14.382  0.00  0.00    -0.379 OA
ATOM     11  H   UNL     1      28.360 -25.109 -13.898  0.00  0.00    +0.211 HD
ENDBRANCH   9  10
ENDBRANCH   8   9
BRANCH   8  12
ATOM     12  C   UNL     1      30.733 -23.554 -13.663  0.00  0.00    +0.170 C 
BRANCH  12  13
ATOM     13  O   UNL     1      30.560 -24.544 -12.655  0.00  0.00    -0.379 OA
ATOM     14  H   UNL     1      29.773 -24.335 -12.128  0.00  0.00    +0.211 HD
ENDBRANCH  12  13
ENDBRANCH   8  12
ENDBRANCH   1   8
TORSDOF 8
ENDMDL
