MODEL 1
REMARK VINA RESULT:      -5.4      0.000      0.000
REMARK  Name = 130336
REMARK  1 active torsions:
REMARK  status: ('A' for Active; 'I' for Inactive)
REMARK    1  A    between atoms: CA_3  and  C_9
REMARK                            x       y       z     vdW  Elec       q    Type
REMARK                         _______ _______ _______ _____ _____    ______ ____
ROOT
ATOM      1  O   UNL     1      36.180 -26.605 -15.771  0.00  0.00    -0.275 OA
ATOM      2  N   UNL     1      38.085 -25.301 -15.374  0.00  0.00    -0.299 N 
ATOM      3  CA  UNL     1      39.017 -25.090 -14.303  0.00  0.00    +0.137 C 
ATOM      4  C   UNL     1      38.284 -25.604 -13.078  0.00  0.00    +0.037 C 
ATOM      5  C   UNL     1      37.323 -26.658 -13.628  0.00  0.00    +0.087 C 
ATOM      6  C   UNL     1      37.080 -26.206 -15.047  0.00  0.00    +0.223 C 
ATOM      7  H   UNL     1      38.150 -24.853 -16.247  0.00  0.00    +0.150 HD
ENDROOT
BRANCH   3   9
ATOM      8  O   UNL     1      40.662 -26.045 -15.768  0.00  0.00    -0.286 OA
ATOM      9  C   UNL     1      40.236 -25.893 -14.628  0.00  0.00    +0.227 C 
ENDBRANCH   3   9
TORSDOF 1
ENDMDL
MODEL 2
REMARK VINA RESULT:      -5.2      2.211      3.256
REMARK  Name = 130336
REMARK  1 active torsions:
REMARK  status: ('A' for Active; 'I' for Inactive)
REMARK    1  A    between atoms: CA_3  and  C_9
REMARK                            x       y       z     vdW  Elec       q    Type
REMARK                         _______ _______ _______ _____ _____    ______ ____
ROOT
ATOM      1  O   UNL     1      36.786 -27.160 -15.977  0.00  0.00    -0.275 OA
ATOM      2  N   UNL     1      36.820 -26.991 -13.641  0.00  0.00    -0.299 N 
ATOM      3  CA  UNL     1      37.442 -26.160 -12.651  0.00  0.00    +0.137 C 
ATOM      4  C   UNL     1      38.603 -25.523 -13.390  0.00  0.00    +0.037 C 
ATOM      5  C   UNL     1      38.154 -25.498 -14.851  0.00  0.00    +0.087 C 
ATOM      6  C   UNL     1      37.188 -26.654 -14.940  0.00  0.00    +0.223 C 
ATOM      7  H   UNL     1      36.198 -27.722 -13.426  0.00  0.00    +0.150 HD
ENDROOT
BRANCH   3   9
ATOM      8  O   UNL     1      35.857 -25.197 -11.126  0.00  0.00    -0.286 OA
ATOM      9  C   UNL     1      36.415 -25.163 -12.218  0.00  0.00    +0.227 C 
ENDBRANCH   3   9
TORSDOF 1
ENDMDL
MODEL 3
REMARK VINA RESULT:      -5.1      1.889      2.180
REMARK  Name = 130336
REMARK  1 active torsions:
REMARK  status: ('A' for Active; 'I' for Inactive)
REMARK    1  A    between atoms: CA_3  and  C_9
REMARK                            x       y       z     vdW  Elec       q    Type
REMARK                         _______ _______ _______ _____ _____    ______ ____
ROOT
ATOM      1  O   UNL     1      36.852 -26.187 -11.806  0.00  0.00    -0.275 OA
ATOM      2  N   UNL     1      38.113 -26.587 -13.739  0.00  0.00    -0.299 N 
ATOM      3  CA  UNL     1      38.748 -25.812 -14.767  0.00  0.00    +0.137 C 
ATOM      4  C   UNL     1      38.066 -24.460 -14.674  0.00  0.00    +0.037 C 
ATOM      5  C   UNL     1      37.617 -24.362 -13.216  0.00  0.00    +0.087 C 
ATOM      6  C   UNL     1      37.444 -25.804 -12.804  0.00  0.00    +0.223 C 
ATOM      7  H   UNL     1      38.147 -27.569 -13.700  0.00  0.00    +0.150 HD
ENDROOT
BRANCH   3   9
ATOM      8  O   UNL     1      40.991 -26.662 -14.653  0.00  0.00    -0.286 OA
ATOM      9  C   UNL     1      40.202 -25.751 -14.423  0.00  0.00    +0.227 C 
ENDBRANCH   3   9
TORSDOF 1
ENDMDL
MODEL 4
REMARK VINA RESULT:      -5.0     11.772     12.414
REMARK  Name = 130336
REMARK  1 active torsions:
REMARK  status: ('A' for Active; 'I' for Inactive)
REMARK    1  A    between atoms: CA_3  and  C_9
REMARK                            x       y       z     vdW  Elec       q    Type
REMARK                         _______ _______ _______ _____ _____    ______ ____
ROOT
ATOM      1  O   UNL     1      35.310 -17.161 -20.554  0.00  0.00    -0.275 OA
ATOM      2  N   UNL     1      35.836 -17.367 -22.827  0.00  0.00    -0.299 N 
ATOM      3  CA  UNL     1      35.426 -18.178 -23.937  0.00  0.00    +0.137 C 
ATOM      4  C   UNL     1      34.772 -19.381 -23.285  0.00  0.00    +0.037 C 
ATOM      5  C   UNL     1      34.259 -18.852 -21.946  0.00  0.00    +0.087 C 
ATOM      6  C   UNL     1      35.190 -17.704 -21.642  0.00  0.00    +0.223 C 
ATOM      7  H   UNL     1      36.503 -16.647 -22.896  0.00  0.00    +0.150 HD
ENDROOT
BRANCH   3   9
ATOM      8  O   UNL     1      34.755 -16.824 -25.803  0.00  0.00    -0.286 OA
ATOM      9  C   UNL     1      34.465 -17.360 -24.738  0.00  0.00    +0.227 C 
ENDBRANCH   3   9
TORSDOF 1
ENDMDL
MODEL 5
REMARK VINA RESULT:      -4.8     11.586     12.351
REMARK  Name = 130336
REMARK  1 active torsions:
REMARK  status: ('A' for Active; 'I' for Inactive)
REMARK    1  A    between atoms: CA_3  and  C_9
REMARK                            x       y       z     vdW  Elec       q    Type
REMARK                         _______ _______ _______ _____ _____    ______ ____
ROOT
ATOM      1  O   UNL     1      40.495 -13.737 -13.709  0.00  0.00    -0.275 OA
ATOM      2  N   UNL     1      41.906 -13.358 -15.541  0.00  0.00    -0.299 N 
ATOM      3  CA  UNL     1      42.365 -14.086 -16.689  0.00  0.00    +0.137 C 
ATOM      4  C   UNL     1      42.103 -15.536 -16.327  0.00  0.00    +0.037 C 
ATOM      5  C   UNL     1      40.930 -15.476 -15.349  0.00  0.00    +0.087 C 
ATOM      6  C   UNL     1      41.064 -14.108 -14.725  0.00  0.00    +0.223 C 
ATOM      7  H   UNL     1      42.159 -12.427 -15.350  0.00  0.00    +0.150 HD
ENDROOT
BRANCH   3   9
ATOM      8  O   UNL     1      40.934 -14.382 -18.594  0.00  0.00    -0.286 OA
ATOM      9  C   UNL     1      41.545 -13.622 -17.850  0.00  0.00    +0.227 C 
ENDBRANCH   3   9
TORSDOF 1
ENDMDL
MODEL 6
REMARK VINA RESULT:      -4.8      1.945      2.833
REMARK  Name = 130336
REMARK  1 active torsions:
REMARK  status: ('A' for Active; 'I' for Inactive)
REMARK    1  A    between atoms: CA_3  and  C_9
REMARK                            x       y       z     vdW  Elec       q    Type
REMARK                         _______ _______ _______ _____ _____    ______ ____
ROOT
ATOM      1  O   UNL     1      37.620 -22.784 -14.514  0.00  0.00    -0.275 OA
ATOM      2  N   UNL     1      38.068 -24.984 -15.180  0.00  0.00    -0.299 N 
ATOM      3  CA  UNL     1      37.875 -26.307 -14.657  0.00  0.00    +0.137 C 
ATOM      4  C   UNL     1      37.660 -26.082 -13.172  0.00  0.00    +0.037 C 
ATOM      5  C   UNL     1      37.077 -24.672 -13.084  0.00  0.00    +0.087 C 
ATOM      6  C   UNL     1      37.620 -23.990 -14.316  0.00  0.00    +0.223 C 
ATOM      7  H   UNL     1      38.473 -24.800 -16.056  0.00  0.00    +0.150 HD
ENDROOT
BRANCH   3   9
ATOM      8  O   UNL     1      36.712 -27.483 -16.398  0.00  0.00    -0.286 OA
ATOM      9  C   UNL     1      36.667 -26.867 -15.338  0.00  0.00    +0.227 C 
ENDBRANCH   3   9
TORSDOF 1
ENDMDL
MODEL 7
REMARK VINA RESULT:      -4.7     10.853     11.397
REMARK  Name = 130336
REMARK  1 active torsions:
REMARK  status: ('A' for Active; 'I' for Inactive)
REMARK    1  A    between atoms: CA_3  and  C_9
REMARK                            x       y       z     vdW  Elec       q    Type
REMARK                         _______ _______ _______ _____ _____    ______ ____
ROOT
ATOM      1  O   UNL     1      35.325 -15.725 -23.255  0.00  0.00    -0.275 OA
ATOM      2  N   UNL     1      35.144 -17.246 -21.484  0.00  0.00    -0.299 N 
ATOM      3  CA  UNL     1      35.086 -18.670 -21.315  0.00  0.00    +0.137 C 
ATOM      4  C   UNL     1      34.688 -19.182 -22.687  0.00  0.00    +0.037 C 
ATOM      5  C   UNL     1      35.211 -18.119 -23.653  0.00  0.00    +0.087 C 
ATOM      6  C   UNL     1      35.223 -16.861 -22.818  0.00  0.00    +0.223 C 
ATOM      7  H   UNL     1      35.129 -16.609 -20.735  0.00  0.00    +0.150 HD
ENDROOT
BRANCH   3   9
ATOM      8  O   UNL     1      36.679 -19.791 -19.911  0.00  0.00    -0.286 OA
ATOM      9  C   UNL     1      36.455 -19.112 -20.908  0.00  0.00    +0.227 C 
ENDBRANCH   3   9
TORSDOF 1
ENDMDL
MODEL 8
REMARK VINA RESULT:      -4.7      3.036      3.945
REMARK  Name = 130336
REMARK  1 active torsions:
REMARK  status: ('A' for Active; 'I' for Inactive)
REMARK    1  A    between atoms: CA_3  and  C_9
REMARK                            x       y       z     vdW  Elec       q    Type
REMARK                         _______ _______ _______ _____ _____    ______ ____
ROOT
ATOM      1  O   UNL     1      35.321 -25.025 -10.589  0.00  0.00    -0.275 OA
ATOM      2  N   UNL     1      35.065 -24.911 -12.915  0.00  0.00    -0.299 N 
ATOM      3  CA  UNL     1      35.819 -24.435 -14.039  0.00  0.00    +0.137 C 
ATOM      4  C   UNL     1      36.822 -23.477 -13.423  0.00  0.00    +0.037 C 
ATOM      5  C   UNL     1      37.011 -23.995 -11.998  0.00  0.00    +0.087 C 
ATOM      6  C   UNL     1      35.706 -24.690 -11.700  0.00  0.00    +0.223 C 
ATOM      7  H   UNL     1      34.187 -25.348 -12.995  0.00  0.00    +0.150 HD
ENDROOT
BRANCH   3   9
ATOM      8  O   UNL     1      35.972 -26.262 -15.589  0.00  0.00    -0.286 OA
ATOM      9  C   UNL     1      36.467 -25.630 -14.662  0.00  0.00    +0.227 C 
ENDBRANCH   3   9
TORSDOF 1
ENDMDL
MODEL 9
REMARK VINA RESULT:      -4.7     10.343     10.978
REMARK  Name = 130336
REMARK  1 active torsions:
REMARK  status: ('A' for Active; 'I' for Inactive)
REMARK    1  A    between atoms: CA_3  and  C_9
REMARK                            x       y       z     vdW  Elec       q    Type
REMARK                         _______ _______ _______ _____ _____    ______ ____
ROOT
ATOM      1  O   UNL     1      34.869 -20.594 -20.173  0.00  0.00    -0.275 OA
ATOM      2  N   UNL     1      35.722 -18.472 -20.678  0.00  0.00    -0.299 N 
ATOM      3  CA  UNL     1      35.567 -17.489 -21.712  0.00  0.00    +0.137 C 
ATOM      4  C   UNL     1      34.976 -18.272 -22.870  0.00  0.00    +0.037 C 
ATOM      5  C   UNL     1      34.226 -19.424 -22.203  0.00  0.00    +0.087 C 
ATOM      6  C   UNL     1      34.965 -19.617 -20.901  0.00  0.00    +0.223 C 
ATOM      7  H   UNL     1      36.302 -18.348 -19.894  0.00  0.00    +0.150 HD
ENDROOT
BRANCH   3   9
ATOM      8  O   UNL     1      34.916 -15.696 -20.255  0.00  0.00    -0.286 OA
ATOM      9  C   UNL     1      34.634 -16.448 -21.182  0.00  0.00    +0.227 C 
ENDBRANCH   3   9
TORSDOF 1
ENDMDL
