MODEL 1
REMARK VINA RESULT:      -6.3      0.000      0.000
REMARK  Name = 3385
REMARK  0 active torsions:
REMARK  status: ('A' for Active; 'I' for Inactive)
REMARK                            x       y       z     vdW  Elec       q    Type
REMARK                         _______ _______ _______ _____ _____    ______ ____
ROOT
ATOM      1  F   UNL     1      38.671 -24.342 -12.101  0.00  0.00    -0.198 F 
ATOM      2  O   UNL     1      36.826 -26.288 -11.636  0.00  0.00    -0.267 OA
ATOM      3  O   UNL     1      36.718 -27.343 -16.144  0.00  0.00    -0.252 OA
ATOM      4  N   UNL     1      36.753 -26.835 -13.890  0.00  0.00    -0.234 N 
ATOM      5  N   UNL     1      38.102 -25.655 -15.405  0.00  0.00    -0.265 N 
ATOM      6  C   UNL     1      37.201 -26.111 -12.790  0.00  0.00    +0.282 C 
ATOM      7  C   UNL     1      37.160 -26.660 -15.218  0.00  0.00    +0.311 C 
ATOM      8  C   UNL     1      38.199 -25.076 -13.124  0.00  0.00    +0.208 C 
ATOM      9  C   UNL     1      38.598 -24.894 -14.381  0.00  0.00    +0.100 C 
ATOM     10  H   UNL     1      36.085 -27.538 -13.717  0.00  0.00    +0.159 HD
ATOM     11  H   UNL     1      38.429 -25.483 -16.317  0.00  0.00    +0.157 HD
ENDROOT
TORSDOF 0
ENDMDL
MODEL 2
REMARK VINA RESULT:      -5.9      1.590      2.172
REMARK  Name = 3385
REMARK  0 active torsions:
REMARK  status: ('A' for Active; 'I' for Inactive)
REMARK                            x       y       z     vdW  Elec       q    Type
REMARK                         _______ _______ _______ _____ _____    ______ ____
ROOT
ATOM      1  F   UNL     1      37.856 -24.080 -11.868  0.00  0.00    -0.198 F 
ATOM      2  O   UNL     1      37.839 -23.088 -14.403  0.00  0.00    -0.267 OA
ATOM      3  O   UNL     1      36.705 -27.250 -16.087  0.00  0.00    -0.252 OA
ATOM      4  N   UNL     1      37.272 -25.164 -15.272  0.00  0.00    -0.234 N 
ATOM      5  N   UNL     1      36.991 -26.983 -13.816  0.00  0.00    -0.265 N 
ATOM      6  C   UNL     1      37.578 -24.276 -14.245  0.00  0.00    +0.282 C 
ATOM      7  C   UNL     1      36.969 -26.523 -15.128  0.00  0.00    +0.311 C 
ATOM      8  C   UNL     1      37.567 -24.889 -12.903  0.00  0.00    +0.208 C 
ATOM      9  C   UNL     1      37.282 -26.181 -12.746  0.00  0.00    +0.100 C 
ATOM     10  H   UNL     1      37.268 -24.801 -16.187  0.00  0.00    +0.159 HD
ATOM     11  H   UNL     1      36.787 -27.931 -13.648  0.00  0.00    +0.157 HD
ENDROOT
TORSDOF 0
ENDMDL
MODEL 3
REMARK VINA RESULT:      -5.8      2.276      2.453
REMARK  Name = 3385
REMARK  0 active torsions:
REMARK  status: ('A' for Active; 'I' for Inactive)
REMARK                            x       y       z     vdW  Elec       q    Type
REMARK                         _______ _______ _______ _____ _____    ______ ____
ROOT
ATOM      1  F   UNL     1      35.632 -24.825 -13.626  0.00  0.00    -0.198 F 
ATOM      2  O   UNL     1      37.157 -26.379 -11.992  0.00  0.00    -0.267 OA
ATOM      3  O   UNL     1      40.859 -25.679 -14.685  0.00  0.00    -0.252 OA
ATOM      4  N   UNL     1      39.026 -26.045 -13.325  0.00  0.00    -0.234 N 
ATOM      5  N   UNL     1      38.847 -24.704 -15.243  0.00  0.00    -0.265 N 
ATOM      6  C   UNL     1      37.690 -25.878 -12.976  0.00  0.00    +0.282 C 
ATOM      7  C   UNL     1      39.666 -25.489 -14.439  0.00  0.00    +0.311 C 
ATOM      8  C   UNL     1      36.931 -25.025 -13.911  0.00  0.00    +0.208 C 
ATOM      9  C   UNL     1      37.523 -24.487 -14.976  0.00  0.00    +0.100 C 
ATOM     10  H   UNL     1      39.574 -26.608 -12.732  0.00  0.00    +0.159 HD
ATOM     11  H   UNL     1      39.238 -24.285 -16.043  0.00  0.00    +0.157 HD
ENDROOT
TORSDOF 0
ENDMDL
MODEL 4
REMARK VINA RESULT:      -5.5      2.624      3.247
REMARK  Name = 3385
REMARK  0 active torsions:
REMARK  status: ('A' for Active; 'I' for Inactive)
REMARK                            x       y       z     vdW  Elec       q    Type
REMARK                         _______ _______ _______ _____ _____    ______ ____
ROOT
ATOM      1  F   UNL     1      35.689 -25.100 -13.549  0.00  0.00    -0.198 F 
ATOM      2  O   UNL     1      36.691 -23.842 -15.745  0.00  0.00    -0.267 OA
ATOM      3  O   UNL     1      40.917 -25.508 -14.843  0.00  0.00    -0.252 OA
ATOM      4  N   UNL     1      38.818 -24.663 -15.314  0.00  0.00    -0.234 N 
ATOM      5  N   UNL     1      39.165 -26.033 -13.440  0.00  0.00    -0.265 N 
ATOM      6  C   UNL     1      37.460 -24.504 -15.057  0.00  0.00    +0.282 C 
ATOM      7  C   UNL     1      39.723 -25.411 -14.551  0.00  0.00    +0.311 C 
ATOM      8  C   UNL     1      36.995 -25.215 -13.850  0.00  0.00    +0.208 C 
ATOM      9  C   UNL     1      37.841 -25.931 -13.112  0.00  0.00    +0.100 C 
ATOM     10  H   UNL     1      39.176 -24.206 -16.109  0.00  0.00    +0.159 HD
ATOM     11  H   UNL     1      39.750 -26.574 -12.863  0.00  0.00    +0.157 HD
ENDROOT
TORSDOF 0
ENDMDL
MODEL 5
REMARK VINA RESULT:      -5.4      1.940      3.019
REMARK  Name = 3385
REMARK  0 active torsions:
REMARK  status: ('A' for Active; 'I' for Inactive)
REMARK                            x       y       z     vdW  Elec       q    Type
REMARK                         _______ _______ _______ _____ _____    ______ ____
ROOT
ATOM      1  F   UNL     1      40.010 -25.322 -13.765  0.00  0.00    -0.198 F 
ATOM      2  O   UNL     1      38.025 -27.044 -14.474  0.00  0.00    -0.267 OA
ATOM      3  O   UNL     1      35.081 -24.930 -11.592  0.00  0.00    -0.252 OA
ATOM      4  N   UNL     1      36.531 -26.003 -13.036  0.00  0.00    -0.234 N 
ATOM      5  N   UNL     1      37.250 -24.170 -11.759  0.00  0.00    -0.265 N 
ATOM      6  C   UNL     1      37.769 -26.176 -13.646  0.00  0.00    +0.282 C 
ATOM      7  C   UNL     1      36.205 -25.025 -12.090  0.00  0.00    +0.311 C 
ATOM      8  C   UNL     1      38.791 -25.205 -13.209  0.00  0.00    +0.208 C 
ATOM      9  C   UNL     1      38.499 -24.268 -12.309  0.00  0.00    +0.100 C 
ATOM     10  H   UNL     1      35.816 -26.629 -13.296  0.00  0.00    +0.159 HD
ATOM     11  H   UNL     1      37.084 -23.460 -11.098  0.00  0.00    +0.157 HD
ENDROOT
TORSDOF 0
ENDMDL
MODEL 6
REMARK VINA RESULT:      -5.4     12.577     13.282
REMARK  Name = 3385
REMARK  0 active torsions:
REMARK  status: ('A' for Active; 'I' for Inactive)
REMARK                            x       y       z     vdW  Elec       q    Type
REMARK                         _______ _______ _______ _____ _____    ______ ____
ROOT
ATOM      1  F   UNL     1      34.978 -16.315 -20.483  0.00  0.00    -0.198 F 
ATOM      2  O   UNL     1      36.209 -18.396 -21.733  0.00  0.00    -0.267 OA
ATOM      3  O   UNL     1      34.750 -16.861 -25.851  0.00  0.00    -0.252 OA
ATOM      4  N   UNL     1      35.489 -17.649 -23.808  0.00  0.00    -0.234 N 
ATOM      5  N   UNL     1      34.192 -15.697 -23.942  0.00  0.00    -0.265 N 
ATOM      6  C   UNL     1      35.601 -17.586 -22.423  0.00  0.00    +0.282 C 
ATOM      7  C   UNL     1      34.805 -16.742 -24.626  0.00  0.00    +0.311 C 
ATOM      8  C   UNL     1      34.907 -16.431 -21.821  0.00  0.00    +0.208 C 
ATOM      9  C   UNL     1      34.249 -15.558 -22.582  0.00  0.00    +0.100 C 
ATOM     10  H   UNL     1      35.936 -18.404 -24.256  0.00  0.00    +0.159 HD
ATOM     11  H   UNL     1      33.694 -15.026 -24.461  0.00  0.00    +0.157 HD
ENDROOT
TORSDOF 0
ENDMDL
MODEL 7
REMARK VINA RESULT:      -5.4      8.255      8.949
REMARK  Name = 3385
REMARK  0 active torsions:
REMARK  status: ('A' for Active; 'I' for Inactive)
REMARK                            x       y       z     vdW  Elec       q    Type
REMARK                         _______ _______ _______ _____ _____    ______ ____
ROOT
ATOM      1  F   UNL     1      28.104 -24.634 -16.948  0.00  0.00    -0.198 F 
ATOM      2  O   UNL     1      29.555 -22.332 -17.026  0.00  0.00    -0.267 OA
ATOM      3  O   UNL     1      31.553 -23.386 -12.983  0.00  0.00    -0.252 OA
ATOM      4  N   UNL     1      30.569 -22.836 -15.001  0.00  0.00    -0.234 N 
ATOM      5  N   UNL     1      30.003 -24.827 -13.895  0.00  0.00    -0.265 N 
ATOM      6  C   UNL     1      29.706 -23.078 -16.064  0.00  0.00    +0.282 C 
ATOM      7  C   UNL     1      30.766 -23.665 -13.890  0.00  0.00    +0.311 C 
ATOM      8  C   UNL     1      28.956 -24.344 -15.948  0.00  0.00    +0.208 C 
ATOM      9  C   UNL     1      29.129 -25.145 -14.899  0.00  0.00    +0.100 C 
ATOM     10  H   UNL     1      31.092 -22.002 -15.033  0.00  0.00    +0.159 HD
ATOM     11  H   UNL     1      30.096 -25.452 -13.140  0.00  0.00    +0.157 HD
ENDROOT
TORSDOF 0
ENDMDL
MODEL 8
REMARK VINA RESULT:      -5.4      8.631      9.303
REMARK  Name = 3385
REMARK  0 active torsions:
REMARK  status: ('A' for Active; 'I' for Inactive)
REMARK                            x       y       z     vdW  Elec       q    Type
REMARK                         _______ _______ _______ _____ _____    ______ ____
ROOT
ATOM      1  F   UNL     1      35.435 -18.828 -21.847  0.00  0.00    -0.198 F 
ATOM      2  O   UNL     1      36.780 -20.521 -20.193  0.00  0.00    -0.267 OA
ATOM      3  O   UNL     1      32.788 -22.362 -18.737  0.00  0.00    -0.252 OA
ATOM      4  N   UNL     1      34.793 -21.459 -19.446  0.00  0.00    -0.234 N 
ATOM      5  N   UNL     1      32.755 -20.672 -20.303  0.00  0.00    -0.265 N 
ATOM      6  C   UNL     1      35.555 -20.583 -20.212  0.00  0.00    +0.282 C 
ATOM      7  C   UNL     1      33.397 -21.557 -19.444  0.00  0.00    +0.311 C 
ATOM      8  C   UNL     1      34.754 -19.699 -21.081  0.00  0.00    +0.208 C 
ATOM      9  C   UNL     1      33.424 -19.777 -21.092  0.00  0.00    +0.100 C 
ATOM     10  H   UNL     1      35.284 -22.069 -18.849  0.00  0.00    +0.159 HD
ATOM     11  H   UNL     1      31.772 -20.692 -20.347  0.00  0.00    +0.157 HD
ENDROOT
TORSDOF 0
ENDMDL
MODEL 9
REMARK VINA RESULT:      -5.4     11.870     12.767
REMARK  Name = 3385
REMARK  0 active torsions:
REMARK  status: ('A' for Active; 'I' for Inactive)
REMARK                            x       y       z     vdW  Elec       q    Type
REMARK                         _______ _______ _______ _____ _____    ______ ____
ROOT
ATOM      1  F   UNL     1      34.955 -19.774 -24.253  0.00  0.00    -0.198 F 
ATOM      2  O   UNL     1      34.990 -17.123 -24.871  0.00  0.00    -0.267 OA
ATOM      3  O   UNL     1      35.015 -16.015 -20.375  0.00  0.00    -0.252 OA
ATOM      4  N   UNL     1      35.001 -16.542 -22.625  0.00  0.00    -0.234 N 
ATOM      5  N   UNL     1      34.982 -18.233 -20.998  0.00  0.00    -0.265 N 
ATOM      6  C   UNL     1      34.988 -17.440 -23.686  0.00  0.00    +0.282 C 
ATOM      7  C   UNL     1      35.000 -16.869 -21.263  0.00  0.00    +0.311 C 
ATOM      8  C   UNL     1      34.969 -18.856 -23.270  0.00  0.00    +0.208 C 
ATOM      9  C   UNL     1      34.967 -19.187 -21.980  0.00  0.00    +0.100 C 
ATOM     10  H   UNL     1      35.013 -15.584 -22.853  0.00  0.00    +0.159 HD
ATOM     11  H   UNL     1      34.980 -18.528 -20.059  0.00  0.00    +0.157 HD
ENDROOT
TORSDOF 0
ENDMDL
