MODEL 1
REMARK VINA RESULT:      -7.6      0.000      0.000
REMARK  Name = 2796
REMARK  5 active torsions:
REMARK  status: ('A' for Active; 'I' for Inactive)
REMARK    1  A    between atoms: O_1  and  C_3
REMARK    2  A    between atoms: O_1  and  C_9
REMARK    3  A    between atoms: C_9  and  C_13
REMARK    4  A    between atoms: C_13  and  O_14
REMARK    5  A    between atoms: O_14  and  C_15
REMARK                            x       y       z     vdW  Elec       q    Type
REMARK                         _______ _______ _______ _____ _____    ______ ____
ROOT
ATOM      1  O   UNL     1      34.297 -18.070 -21.824  0.00  0.00    -0.472 OA
ENDROOT
BRANCH   1   3
ATOM      2 CL   UNL     1      33.832 -22.954 -18.598  0.00  0.00    -0.082 Cl
ATOM      3  C   UNL     1      34.189 -19.211 -21.071  0.00  0.00    +0.139 C 
ATOM      4  C   UNL     1      35.338 -19.858 -20.634  0.00  0.00    +0.038 C 
ATOM      5  C   UNL     1      32.930 -19.708 -20.753  0.00  0.00    +0.038 C 
ATOM      6  C   UNL     1      35.227 -21.018 -19.867  0.00  0.00    +0.015 C 
ATOM      7  C   UNL     1      32.820 -20.868 -19.988  0.00  0.00    +0.015 C 
ATOM      8  C   UNL     1      33.969 -21.524 -19.545  0.00  0.00    +0.058 C 
ENDBRANCH   1   3
BRANCH   1   9
ATOM      9  C   UNL     1      35.095 -18.151 -22.998  0.00  0.00    +0.221 C 
ATOM     10  C   UNL     1      36.561 -18.224 -22.573  0.00  0.00    +0.055 C 
ATOM     11  C   UNL     1      34.686 -19.406 -23.761  0.00  0.00    +0.055 C 
BRANCH   9  13
ATOM     12  O   UNL     1      34.238 -16.964 -24.941  0.00  0.00    -0.246 OA
ATOM     13  C   UNL     1      34.849 -16.931 -23.880  0.00  0.00    +0.353 C 
BRANCH  13  14
ATOM     14  O   UNL     1      35.369 -15.807 -23.302  0.00  0.00    -0.446 OA
BRANCH  14  15
ATOM     15  C   UNL     1      34.429 -14.766 -23.016  0.00  0.00    +0.209 C 
ATOM     16  C   UNL     1      34.306 -14.611 -21.516  0.00  0.00    +0.051 C 
ENDBRANCH  14  15
ENDBRANCH  13  14
ENDBRANCH   9  13
ENDBRANCH   1   9
TORSDOF 5
ENDMDL
MODEL 2
REMARK VINA RESULT:      -7.4      3.232      5.950
REMARK  Name = 2796
REMARK  5 active torsions:
REMARK  status: ('A' for Active; 'I' for Inactive)
REMARK    1  A    between atoms: O_1  and  C_3
REMARK    2  A    between atoms: O_1  and  C_9
REMARK    3  A    between atoms: C_9  and  C_13
REMARK    4  A    between atoms: C_13  and  O_14
REMARK    5  A    between atoms: O_14  and  C_15
REMARK                            x       y       z     vdW  Elec       q    Type
REMARK                         _______ _______ _______ _____ _____    ______ ____
ROOT
ATOM      1  O   UNL     1      35.262 -17.638 -20.794  0.00  0.00    -0.472 OA
ENDROOT
BRANCH   1   3
ATOM      2 CL   UNL     1      32.248 -13.205 -23.191  0.00  0.00    -0.082 Cl
ATOM      3  C   UNL     1      34.558 -16.603 -21.354  0.00  0.00    +0.139 C 
ATOM      4  C   UNL     1      33.455 -16.081 -20.688  0.00  0.00    +0.038 C 
ATOM      5  C   UNL     1      34.955 -16.086 -22.582  0.00  0.00    +0.038 C 
ATOM      6  C   UNL     1      32.739 -15.029 -21.258  0.00  0.00    +0.015 C 
ATOM      7  C   UNL     1      34.238 -15.034 -23.151  0.00  0.00    +0.015 C 
ATOM      8  C   UNL     1      33.130 -14.505 -22.489  0.00  0.00    +0.058 C 
ENDBRANCH   1   3
BRANCH   1   9
ATOM      9  C   UNL     1      34.915 -18.950 -21.216  0.00  0.00    +0.221 C 
ATOM     10  C   UNL     1      33.432 -19.171 -20.919  0.00  0.00    +0.055 C 
ATOM     11  C   UNL     1      35.192 -19.053 -22.712  0.00  0.00    +0.055 C 
BRANCH   9  13
ATOM     12  O   UNL     1      36.872 -19.734 -20.001  0.00  0.00    -0.246 OA
ATOM     13  C   UNL     1      35.771 -19.977 -20.481  0.00  0.00    +0.353 C 
BRANCH  13  14
ATOM     14  O   UNL     1      35.122 -21.177 -20.405  0.00  0.00    -0.446 OA
BRANCH  14  15
ATOM     15  C   UNL     1      35.240 -21.866 -19.156  0.00  0.00    +0.209 C 
ATOM     16  C   UNL     1      33.887 -22.424 -18.771  0.00  0.00    +0.051 C 
ENDBRANCH  14  15
ENDBRANCH  13  14
ENDBRANCH   9  13
ENDBRANCH   1   9
TORSDOF 5
ENDMDL
MODEL 3
REMARK VINA RESULT:      -7.3      1.437      2.269
REMARK  Name = 2796
REMARK  5 active torsions:
REMARK  status: ('A' for Active; 'I' for Inactive)
REMARK    1  A    between atoms: O_1  and  C_3
REMARK    2  A    between atoms: O_1  and  C_9
REMARK    3  A    between atoms: C_9  and  C_13
REMARK    4  A    between atoms: C_13  and  O_14
REMARK    5  A    between atoms: O_14  and  C_15
REMARK                            x       y       z     vdW  Elec       q    Type
REMARK                         _______ _______ _______ _____ _____    ______ ____
ROOT
ATOM      1  O   UNL     1      34.188 -18.850 -22.470  0.00  0.00    -0.472 OA
ENDROOT
BRANCH   1   3
ATOM      2 CL   UNL     1      34.157 -22.584 -17.940  0.00  0.00    -0.082 Cl
ATOM      3  C   UNL     1      34.181 -19.721 -21.413  0.00  0.00    +0.139 C 
ATOM      4  C   UNL     1      32.984 -20.012 -20.769  0.00  0.00    +0.038 C 
ATOM      5  C   UNL     1      35.371 -20.305 -20.994  0.00  0.00    +0.038 C 
ATOM      6  C   UNL     1      32.977 -20.899 -19.693  0.00  0.00    +0.015 C 
ATOM      7  C   UNL     1      35.364 -21.191 -19.917  0.00  0.00    +0.015 C 
ATOM      8  C   UNL     1      34.166 -21.488 -19.267  0.00  0.00    +0.058 C 
ENDBRANCH   1   3
BRANCH   1   9
ATOM      9  C   UNL     1      35.040 -17.717 -22.361  0.00  0.00    +0.221 C 
ATOM     10  C   UNL     1      36.477 -18.214 -22.205  0.00  0.00    +0.055 C 
ATOM     11  C   UNL     1      34.886 -16.886 -23.630  0.00  0.00    +0.055 C 
BRANCH   9  13
ATOM     12  O   UNL     1      35.340 -16.680 -20.181  0.00  0.00    -0.246 OA
ATOM     13  C   UNL     1      34.630 -16.869 -21.160  0.00  0.00    +0.353 C 
BRANCH  13  14
ATOM     14  O   UNL     1      33.389 -16.331 -21.354  0.00  0.00    -0.446 OA
BRANCH  14  15
ATOM     15  C   UNL     1      33.211 -14.996 -20.870  0.00  0.00    +0.209 C 
ATOM     16  C   UNL     1      32.433 -14.200 -21.896  0.00  0.00    +0.051 C 
ENDBRANCH  14  15
ENDBRANCH  13  14
ENDBRANCH   9  13
ENDBRANCH   1   9
TORSDOF 5
ENDMDL
MODEL 4
REMARK VINA RESULT:      -7.2      2.116      3.352
REMARK  Name = 2796
REMARK  5 active torsions:
REMARK  status: ('A' for Active; 'I' for Inactive)
REMARK    1  A    between atoms: O_1  and  C_3
REMARK    2  A    between atoms: O_1  and  C_9
REMARK    3  A    between atoms: C_9  and  C_13
REMARK    4  A    between atoms: C_13  and  O_14
REMARK    5  A    between atoms: O_14  and  C_15
REMARK                            x       y       z     vdW  Elec       q    Type
REMARK                         _______ _______ _______ _____ _____    ______ ____
ROOT
ATOM      1  O   UNL     1      33.972 -16.791 -22.309  0.00  0.00    -0.472 OA
ENDROOT
BRANCH   1   3
ATOM      2 CL   UNL     1      36.177 -21.557 -19.683  0.00  0.00    -0.082 Cl
ATOM      3  C   UNL     1      34.486 -17.904 -21.696  0.00  0.00    +0.139 C 
ATOM      4  C   UNL     1      33.626 -18.867 -21.184  0.00  0.00    +0.038 C 
ATOM      5  C   UNL     1      35.864 -18.056 -21.592  0.00  0.00    +0.038 C 
ATOM      6  C   UNL     1      34.150 -20.000 -20.561  0.00  0.00    +0.015 C 
ATOM      7  C   UNL     1      36.388 -19.188 -20.967  0.00  0.00    +0.015 C 
ATOM      8  C   UNL     1      35.530 -20.160 -20.452  0.00  0.00    +0.058 C 
ENDBRANCH   1   3
BRANCH   1   9
ATOM      9  C   UNL     1      33.573 -15.720 -21.463  0.00  0.00    +0.221 C 
ATOM     10  C   UNL     1      32.267 -16.116 -20.776  0.00  0.00    +0.055 C 
ATOM     11  C   UNL     1      34.679 -15.491 -20.439  0.00  0.00    +0.055 C 
BRANCH   9  13
ATOM     12  O   UNL     1      34.263 -13.945 -22.977  0.00  0.00    -0.246 OA
ATOM     13  C   UNL     1      33.387 -14.448 -22.285  0.00  0.00    +0.353 C 
BRANCH  13  14
ATOM     14  O   UNL     1      32.107 -13.983 -22.168  0.00  0.00    -0.446 OA
BRANCH  14  15
ATOM     15  C   UNL     1      31.979 -12.580 -21.921  0.00  0.00    +0.209 C 
ATOM     16  C   UNL     1      31.868 -12.351 -20.429  0.00  0.00    +0.051 C 
ENDBRANCH  14  15
ENDBRANCH  13  14
ENDBRANCH   9  13
ENDBRANCH   1   9
TORSDOF 5
ENDMDL
MODEL 5
REMARK VINA RESULT:      -7.1      2.013      3.369
REMARK  Name = 2796
REMARK  5 active torsions:
REMARK  status: ('A' for Active; 'I' for Inactive)
REMARK    1  A    between atoms: O_1  and  C_3
REMARK    2  A    between atoms: O_1  and  C_9
REMARK    3  A    between atoms: C_9  and  C_13
REMARK    4  A    between atoms: C_13  and  O_14
REMARK    5  A    between atoms: O_14  and  C_15
REMARK                            x       y       z     vdW  Elec       q    Type
REMARK                         _______ _______ _______ _____ _____    ______ ____
ROOT
ATOM      1  O   UNL     1      33.810 -16.794 -22.333  0.00  0.00    -0.472 OA
ENDROOT
BRANCH   1   3
ATOM      2 CL   UNL     1      36.389 -21.412 -19.784  0.00  0.00    -0.082 Cl
ATOM      3  C   UNL     1      34.411 -17.872 -21.738  0.00  0.00    +0.139 C 
ATOM      4  C   UNL     1      33.629 -18.895 -21.216  0.00  0.00    +0.038 C 
ATOM      5  C   UNL     1      35.798 -17.930 -21.663  0.00  0.00    +0.038 C 
ATOM      6  C   UNL     1      34.242 -19.992 -20.610  0.00  0.00    +0.015 C 
ATOM      7  C   UNL     1      36.411 -19.026 -21.056  0.00  0.00    +0.015 C 
ATOM      8  C   UNL     1      35.632 -20.058 -20.530  0.00  0.00    +0.058 C 
ENDBRANCH   1   3
BRANCH   1   9
ATOM      9  C   UNL     1      33.419 -15.726 -21.480  0.00  0.00    +0.221 C 
ATOM     10  C   UNL     1      32.201 -16.178 -20.676  0.00  0.00    +0.055 C 
ATOM     11  C   UNL     1      34.591 -15.406 -20.559  0.00  0.00    +0.055 C 
BRANCH   9  13
ATOM     12  O   UNL     1      32.200 -13.694 -22.031  0.00  0.00    -0.246 OA
ATOM     13  C   UNL     1      33.089 -14.489 -22.310  0.00  0.00    +0.353 C 
BRANCH  13  14
ATOM     14  O   UNL     1      33.943 -14.381 -23.372  0.00  0.00    -0.446 OA
BRANCH  14  15
ATOM     15  C   UNL     1      33.332 -14.074 -24.629  0.00  0.00    +0.209 C 
ATOM     16  C   UNL     1      33.420 -15.288 -25.528  0.00  0.00    +0.051 C 
ENDBRANCH  14  15
ENDBRANCH  13  14
ENDBRANCH   9  13
ENDBRANCH   1   9
TORSDOF 5
ENDMDL
MODEL 6
REMARK VINA RESULT:      -7.1      3.084      4.962
REMARK  Name = 2796
REMARK  5 active torsions:
REMARK  status: ('A' for Active; 'I' for Inactive)
REMARK    1  A    between atoms: O_1  and  C_3
REMARK    2  A    between atoms: O_1  and  C_9
REMARK    3  A    between atoms: C_9  and  C_13
REMARK    4  A    between atoms: C_13  and  O_14
REMARK    5  A    between atoms: O_14  and  C_15
REMARK                            x       y       z     vdW  Elec       q    Type
REMARK                         _______ _______ _______ _____ _____    ______ ____
ROOT
ATOM      1  O   UNL     1      34.680 -14.135 -23.212  0.00  0.00    -0.472 OA
ENDROOT
BRANCH   1   3
ATOM      2 CL   UNL     1      35.019 -19.748 -21.523  0.00  0.00    -0.082 Cl
ATOM      3  C   UNL     1      34.759 -15.445 -22.818  0.00  0.00    +0.139 C 
ATOM      4  C   UNL     1      34.919 -16.442 -23.773  0.00  0.00    +0.038 C 
ATOM      5  C   UNL     1      34.678 -15.763 -21.467  0.00  0.00    +0.038 C 
ATOM      6  C   UNL     1      35.000 -17.776 -23.372  0.00  0.00    +0.015 C 
ATOM      7  C   UNL     1      34.758 -17.096 -21.067  0.00  0.00    +0.015 C 
ATOM      8  C   UNL     1      34.919 -18.103 -22.019  0.00  0.00    +0.058 C 
ENDBRANCH   1   3
BRANCH   1   9
ATOM      9  C   UNL     1      33.401 -13.662 -23.614  0.00  0.00    +0.221 C 
ATOM     10  C   UNL     1      33.023 -14.360 -24.920  0.00  0.00    +0.055 C 
ATOM     11  C   UNL     1      32.406 -13.999 -22.509  0.00  0.00    +0.055 C 
BRANCH   9  13
ATOM     12  O   UNL     1      32.900 -11.350 -23.047  0.00  0.00    -0.246 OA
ATOM     13  C   UNL     1      33.440 -12.149 -23.803  0.00  0.00    +0.353 C 
BRANCH  13  14
ATOM     14  O   UNL     1      34.185 -11.820 -24.900  0.00  0.00    -0.446 OA
BRANCH  14  15
ATOM     15  C   UNL     1      34.712 -10.490 -24.914  0.00  0.00    +0.209 C 
ATOM     16  C   UNL     1      35.635 -10.339 -26.104  0.00  0.00    +0.051 C 
ENDBRANCH  14  15
ENDBRANCH  13  14
ENDBRANCH   9  13
ENDBRANCH   1   9
TORSDOF 5
ENDMDL
MODEL 7
REMARK VINA RESULT:      -7.0      3.164      4.931
REMARK  Name = 2796
REMARK  5 active torsions:
REMARK  status: ('A' for Active; 'I' for Inactive)
REMARK    1  A    between atoms: O_1  and  C_3
REMARK    2  A    between atoms: O_1  and  C_9
REMARK    3  A    between atoms: C_9  and  C_13
REMARK    4  A    between atoms: C_13  and  O_14
REMARK    5  A    between atoms: O_14  and  C_15
REMARK                            x       y       z     vdW  Elec       q    Type
REMARK                         _______ _______ _______ _____ _____    ______ ____
ROOT
ATOM      1  O   UNL     1      34.694 -14.116 -23.196  0.00  0.00    -0.472 OA
ENDROOT
BRANCH   1   3
ATOM      2 CL   UNL     1      34.841 -19.760 -21.586  0.00  0.00    -0.082 Cl
ATOM      3  C   UNL     1      34.729 -15.434 -22.821  0.00  0.00    +0.139 C 
ATOM      4  C   UNL     1      34.901 -16.420 -23.785  0.00  0.00    +0.038 C 
ATOM      5  C   UNL     1      34.591 -15.770 -21.479  0.00  0.00    +0.038 C 
ATOM      6  C   UNL     1      34.935 -17.761 -23.402  0.00  0.00    +0.015 C 
ATOM      7  C   UNL     1      34.624 -17.111 -21.097  0.00  0.00    +0.015 C 
ATOM      8  C   UNL     1      34.797 -18.106 -22.059  0.00  0.00    +0.058 C 
ENDBRANCH   1   3
BRANCH   1   9
ATOM      9  C   UNL     1      33.448 -13.614 -23.662  0.00  0.00    +0.221 C 
ATOM     10  C   UNL     1      33.061 -14.392 -24.919  0.00  0.00    +0.055 C 
ATOM     11  C   UNL     1      32.417 -13.816 -22.557  0.00  0.00    +0.055 C 
BRANCH   9  13
ATOM     12  O   UNL     1      34.251 -11.661 -24.869  0.00  0.00    -0.246 OA
ATOM     13  C   UNL     1      33.567 -12.124 -23.965  0.00  0.00    +0.353 C 
BRANCH  13  14
ATOM     14  O   UNL     1      32.779 -11.397 -23.118  0.00  0.00    -0.446 OA
BRANCH  14  15
ATOM     15  C   UNL     1      32.798  -9.980 -23.317  0.00  0.00    +0.209 C 
ATOM     16  C   UNL     1      32.051  -9.313 -22.183  0.00  0.00    +0.051 C 
ENDBRANCH  14  15
ENDBRANCH  13  14
ENDBRANCH   9  13
ENDBRANCH   1   9
TORSDOF 5
ENDMDL
MODEL 8
REMARK VINA RESULT:      -6.9      3.175      5.056
REMARK  Name = 2796
REMARK  5 active torsions:
REMARK  status: ('A' for Active; 'I' for Inactive)
REMARK    1  A    between atoms: O_1  and  C_3
REMARK    2  A    between atoms: O_1  and  C_9
REMARK    3  A    between atoms: C_9  and  C_13
REMARK    4  A    between atoms: C_13  and  O_14
REMARK    5  A    between atoms: O_14  and  C_15
REMARK                            x       y       z     vdW  Elec       q    Type
REMARK                         _______ _______ _______ _____ _____    ______ ____
ROOT
ATOM      1  O   UNL     1      35.269 -17.490 -20.632  0.00  0.00    -0.472 OA
ENDROOT
BRANCH   1   3
ATOM      2 CL   UNL     1      32.108 -13.052 -22.820  0.00  0.00    -0.082 Cl
ATOM      3  C   UNL     1      34.531 -16.454 -21.142  0.00  0.00    +0.139 C 
ATOM      4  C   UNL     1      33.295 -16.149 -20.585  0.00  0.00    +0.038 C 
ATOM      5  C   UNL     1      35.026 -15.719 -22.213  0.00  0.00    +0.038 C 
ATOM      6  C   UNL     1      32.544 -15.095 -21.105  0.00  0.00    +0.015 C 
ATOM      7  C   UNL     1      34.275 -14.666 -22.734  0.00  0.00    +0.015 C 
ATOM      8  C   UNL     1      33.034 -14.354 -22.179  0.00  0.00    +0.058 C 
ENDBRANCH   1   3
BRANCH   1   9
ATOM      9  C   UNL     1      35.068 -18.770 -21.217  0.00  0.00    +0.221 C 
ATOM     10  C   UNL     1      35.961 -19.773 -20.488  0.00  0.00    +0.055 C 
ATOM     11  C   UNL     1      33.596 -19.135 -21.059  0.00  0.00    +0.055 C 
BRANCH   9  13
ATOM     12  O   UNL     1      36.539 -18.530 -23.140  0.00  0.00    -0.246 OA
ATOM     13  C   UNL     1      35.411 -18.723 -22.703  0.00  0.00    +0.353 C 
BRANCH  13  14
ATOM     14  O   UNL     1      34.299 -18.963 -23.461  0.00  0.00    -0.446 OA
BRANCH  14  15
ATOM     15  C   UNL     1      34.474 -18.832 -24.875  0.00  0.00    +0.209 C 
ATOM     16  C   UNL     1      34.163 -17.408 -25.280  0.00  0.00    +0.051 C 
ENDBRANCH  14  15
ENDBRANCH  13  14
ENDBRANCH   9  13
ENDBRANCH   1   9
TORSDOF 5
ENDMDL
MODEL 9
REMARK VINA RESULT:      -6.8      4.515      7.040
REMARK  Name = 2796
REMARK  5 active torsions:
REMARK  status: ('A' for Active; 'I' for Inactive)
REMARK    1  A    between atoms: O_1  and  C_3
REMARK    2  A    between atoms: O_1  and  C_9
REMARK    3  A    between atoms: C_9  and  C_13
REMARK    4  A    between atoms: C_13  and  O_14
REMARK    5  A    between atoms: O_14  and  C_15
REMARK                            x       y       z     vdW  Elec       q    Type
REMARK                         _______ _______ _______ _____ _____    ______ ____
ROOT
ATOM      1  O   UNL     1      33.040 -15.143 -22.788  0.00  0.00    -0.472 OA
ENDROOT
BRANCH   1   3
ATOM      2 CL   UNL     1      32.775  -9.318 -23.475  0.00  0.00    -0.082 Cl
ATOM      3  C   UNL     1      32.978 -13.783 -22.948  0.00  0.00    +0.139 C 
ATOM      4  C   UNL     1      33.819 -13.160 -23.863  0.00  0.00    +0.038 C 
ATOM      5  C   UNL     1      32.075 -13.042 -22.195  0.00  0.00    +0.038 C 
ATOM      6  C   UNL     1      33.756 -11.776 -24.026  0.00  0.00    +0.015 C 
ATOM      7  C   UNL     1      32.014 -11.658 -22.357  0.00  0.00    +0.015 C 
ATOM      8  C   UNL     1      32.854 -11.025 -23.273  0.00  0.00    +0.058 C 
ENDBRANCH   1   3
BRANCH   1   9
ATOM      9  C   UNL     1      33.570 -15.620 -21.557  0.00  0.00    +0.221 C 
ATOM     10  C   UNL     1      34.493 -14.544 -20.988  0.00  0.00    +0.055 C 
ATOM     11  C   UNL     1      32.403 -15.891 -20.615  0.00  0.00    +0.055 C 
BRANCH   9  13
ATOM     12  O   UNL     1      34.195 -17.927 -21.104  0.00  0.00    -0.246 OA
ATOM     13  C   UNL     1      34.334 -16.920 -21.788  0.00  0.00    +0.353 C 
BRANCH  13  14
ATOM     14  O   UNL     1      35.154 -16.809 -22.875  0.00  0.00    -0.446 OA
BRANCH  14  15
ATOM     15  C   UNL     1      34.997 -17.820 -23.875  0.00  0.00    +0.209 C 
ATOM     16  C   UNL     1      34.573 -17.167 -25.173  0.00  0.00    +0.051 C 
ENDBRANCH  14  15
ENDBRANCH  13  14
ENDBRANCH   9  13
ENDBRANCH   1   9
TORSDOF 5
ENDMDL
