MODEL 1
REMARK VINA RESULT:      -7.6      0.000      0.000
REMARK  Name = 30668
REMARK  3 active torsions:
REMARK  status: ('A' for Active; 'I' for Inactive)
REMARK    1  A    between atoms: O_1  and  C_4
REMARK    2  A    between atoms: O_1  and  C_10
REMARK    3  A    between atoms: C_10  and  C_14
REMARK                            x       y       z     vdW  Elec       q    Type
REMARK                         _______ _______ _______ _____ _____    ______ ____
ROOT
ATOM      1  O   UNL     1      34.527 -14.880 -23.648  0.00  0.00    -0.470 OA
ENDROOT
BRANCH   1   4
ATOM      2 CL   UNL     1      34.889 -17.200 -25.490  0.00  0.00    -0.079 Cl
ATOM      3 CL   UNL     1      34.538 -14.710 -20.669  0.00  0.00    -0.079 Cl
ATOM      4  C   UNL     1      34.734 -16.078 -23.015  0.00  0.00    +0.160 C 
ATOM      5  C   UNL     1      34.917 -17.236 -23.766  0.00  0.00    +0.092 C 
ATOM      6  C   UNL     1      34.761 -16.130 -21.623  0.00  0.00    +0.092 C 
ATOM      7  C   UNL     1      35.127 -18.454 -23.121  0.00  0.00    +0.015 C 
ATOM      8  C   UNL     1      34.972 -17.349 -20.979  0.00  0.00    +0.015 C 
ATOM      9  C   UNL     1      35.154 -18.511 -21.728  0.00  0.00    +0.002 C 
ENDBRANCH   1   4
BRANCH   1  10
ATOM     10  C   UNL     1      33.184 -14.557 -23.985  0.00  0.00    +0.219 C 
ATOM     11  C   UNL     1      33.064 -14.534 -25.500  0.00  0.00    +0.055 C 
BRANCH  10  14
ATOM     12  N   UNL     1      31.884 -13.161 -22.407  0.00  0.00    -0.296 N 
ATOM     13  N   UNL     1      33.396 -12.134 -23.780  0.00  0.00    -0.228 NA
ATOM     14  C   UNL     1      32.823 -13.235 -23.382  0.00  0.00    +0.149 C 
ATOM     15  C   UNL     1      31.725 -11.794 -22.007  0.00  0.00    +0.084 C 
ATOM     16  C   UNL     1      32.739 -11.089 -22.929  0.00  0.00    +0.116 C 
ATOM     17  H   UNL     1      31.390 -13.926 -22.031  0.00  0.00    +0.153 HD
ENDBRANCH  10  14
ENDBRANCH   1  10
TORSDOF 3
ENDMDL
MODEL 2
REMARK VINA RESULT:      -7.6      0.052      2.271
REMARK  Name = 30668
REMARK  3 active torsions:
REMARK  status: ('A' for Active; 'I' for Inactive)
REMARK    1  A    between atoms: O_1  and  C_4
REMARK    2  A    between atoms: O_1  and  C_10
REMARK    3  A    between atoms: C_10  and  C_14
REMARK                            x       y       z     vdW  Elec       q    Type
REMARK                         _______ _______ _______ _____ _____    ______ ____
ROOT
ATOM      1  O   UNL     1      34.536 -14.878 -23.631  0.00  0.00    -0.470 OA
ENDROOT
BRANCH   1   4
ATOM      2 CL   UNL     1      34.544 -14.743 -20.650  0.00  0.00    -0.079 Cl
ATOM      3 CL   UNL     1      34.914 -17.173 -25.501  0.00  0.00    -0.079 Cl
ATOM      4  C   UNL     1      34.752 -16.081 -23.011  0.00  0.00    +0.160 C 
ATOM      5  C   UNL     1      34.778 -16.148 -21.621  0.00  0.00    +0.092 C 
ATOM      6  C   UNL     1      34.943 -17.230 -23.776  0.00  0.00    +0.092 C 
ATOM      7  C   UNL     1      34.998 -17.373 -20.991  0.00  0.00    +0.015 C 
ATOM      8  C   UNL     1      35.163 -18.454 -23.145  0.00  0.00    +0.015 C 
ATOM      9  C   UNL     1      35.191 -18.525 -21.753  0.00  0.00    +0.002 C 
ENDBRANCH   1   4
BRANCH   1  10
ATOM     10  C   UNL     1      33.189 -14.560 -23.961  0.00  0.00    +0.219 C 
ATOM     11  C   UNL     1      33.050 -14.587 -25.474  0.00  0.00    +0.055 C 
BRANCH  10  14
ATOM     12  N   UNL     1      31.907 -13.102 -22.424  0.00  0.00    -0.296 N 
ATOM     13  N   UNL     1      33.426 -12.133 -23.832  0.00  0.00    -0.228 NA
ATOM     14  C   UNL     1      32.843 -13.217 -23.399  0.00  0.00    +0.149 C 
ATOM     15  C   UNL     1      31.762 -11.723 -22.067  0.00  0.00    +0.084 C 
ATOM     16  C   UNL     1      32.781 -11.057 -23.012  0.00  0.00    +0.116 C 
ATOM     17  H   UNL     1      31.406 -13.851 -22.024  0.00  0.00    +0.153 HD
ENDBRANCH  10  14
ENDBRANCH   1  10
TORSDOF 3
ENDMDL
MODEL 3
REMARK VINA RESULT:      -7.5      3.974      6.697
REMARK  Name = 30668
REMARK  3 active torsions:
REMARK  status: ('A' for Active; 'I' for Inactive)
REMARK    1  A    between atoms: O_1  and  C_4
REMARK    2  A    between atoms: O_1  and  C_10
REMARK    3  A    between atoms: C_10  and  C_14
REMARK                            x       y       z     vdW  Elec       q    Type
REMARK                         _______ _______ _______ _____ _____    ______ ____
ROOT
ATOM      1  O   UNL     1      35.211 -18.434 -21.522  0.00  0.00    -0.470 OA
ENDROOT
BRANCH   1   4
ATOM      2 CL   UNL     1      34.628 -15.653 -20.609  0.00  0.00    -0.079 Cl
ATOM      3 CL   UNL     1      35.131 -19.674 -24.235  0.00  0.00    -0.079 Cl
ATOM      4  C   UNL     1      34.841 -17.576 -22.524  0.00  0.00    +0.160 C 
ATOM      5  C   UNL     1      34.543 -16.249 -22.225  0.00  0.00    +0.092 C 
ATOM      6  C   UNL     1      34.766 -18.035 -23.837  0.00  0.00    +0.092 C 
ATOM      7  C   UNL     1      34.167 -15.376 -23.246  0.00  0.00    +0.015 C 
ATOM      8  C   UNL     1      34.390 -17.162 -24.857  0.00  0.00    +0.015 C 
ATOM      9  C   UNL     1      34.090 -15.832 -24.561  0.00  0.00    +0.002 C 
ENDBRANCH   1   4
BRANCH   1  10
ATOM     10  C   UNL     1      34.370 -19.560 -21.300  0.00  0.00    +0.219 C 
ATOM     11  C   UNL     1      33.013 -19.059 -20.837  0.00  0.00    +0.055 C 
BRANCH  10  14
ATOM     12  N   UNL     1      34.270 -21.428 -19.678  0.00  0.00    -0.296 N 
ATOM     13  N   UNL     1      36.259 -20.337 -19.962  0.00  0.00    -0.228 NA
ATOM     14  C   UNL     1      35.002 -20.461 -20.285  0.00  0.00    +0.149 C 
ATOM     15  C   UNL     1      35.102 -22.142 -18.757  0.00  0.00    +0.084 C 
ATOM     16  C   UNL     1      36.448 -21.413 -18.937  0.00  0.00    +0.116 C 
ATOM     17  H   UNL     1      33.316 -21.610 -19.845  0.00  0.00    +0.153 HD
ENDBRANCH  10  14
ENDBRANCH   1  10
TORSDOF 3
ENDMDL
MODEL 4
REMARK VINA RESULT:      -7.5      3.961      6.320
REMARK  Name = 30668
REMARK  3 active torsions:
REMARK  status: ('A' for Active; 'I' for Inactive)
REMARK    1  A    between atoms: O_1  and  C_4
REMARK    2  A    between atoms: O_1  and  C_10
REMARK    3  A    between atoms: C_10  and  C_14
REMARK                            x       y       z     vdW  Elec       q    Type
REMARK                         _______ _______ _______ _____ _____    ______ ____
ROOT
ATOM      1  O   UNL     1      35.199 -18.404 -21.507  0.00  0.00    -0.470 OA
ENDROOT
BRANCH   1   4
ATOM      2 CL   UNL     1      35.115 -19.650 -24.217  0.00  0.00    -0.079 Cl
ATOM      3 CL   UNL     1      34.627 -15.620 -20.600  0.00  0.00    -0.079 Cl
ATOM      4  C   UNL     1      34.835 -17.547 -22.512  0.00  0.00    +0.160 C 
ATOM      5  C   UNL     1      34.758 -18.010 -23.823  0.00  0.00    +0.092 C 
ATOM      6  C   UNL     1      34.541 -16.218 -22.216  0.00  0.00    +0.092 C 
ATOM      7  C   UNL     1      34.386 -17.137 -24.845  0.00  0.00    +0.015 C 
ATOM      8  C   UNL     1      34.169 -15.346 -23.239  0.00  0.00    +0.015 C 
ATOM      9  C   UNL     1      34.092 -15.805 -24.553  0.00  0.00    +0.002 C 
ENDBRANCH   1   4
BRANCH   1  10
ATOM     10  C   UNL     1      34.370 -19.542 -21.302  0.00  0.00    +0.219 C 
ATOM     11  C   UNL     1      33.006 -19.060 -20.838  0.00  0.00    +0.055 C 
BRANCH  10  14
ATOM     12  N   UNL     1      34.283 -21.427 -19.700  0.00  0.00    -0.296 N 
ATOM     13  N   UNL     1      36.263 -20.317 -19.969  0.00  0.00    -0.228 NA
ATOM     14  C   UNL     1      35.007 -20.448 -20.296  0.00  0.00    +0.149 C 
ATOM     15  C   UNL     1      35.119 -22.145 -18.785  0.00  0.00    +0.084 C 
ATOM     16  C   UNL     1      36.459 -21.403 -18.954  0.00  0.00    +0.116 C 
ATOM     17  H   UNL     1      33.331 -21.616 -19.871  0.00  0.00    +0.153 HD
ENDBRANCH  10  14
ENDBRANCH   1  10
TORSDOF 3
ENDMDL
MODEL 5
REMARK VINA RESULT:      -7.5      7.722     10.272
REMARK  Name = 30668
REMARK  3 active torsions:
REMARK  status: ('A' for Active; 'I' for Inactive)
REMARK    1  A    between atoms: O_1  and  C_4
REMARK    2  A    between atoms: O_1  and  C_10
REMARK    3  A    between atoms: C_10  and  C_14
REMARK                            x       y       z     vdW  Elec       q    Type
REMARK                         _______ _______ _______ _____ _____    ______ ____
ROOT
ATOM      1  O   UNL     1      35.614 -22.602 -18.117  0.00  0.00    -0.470 OA
ENDROOT
BRANCH   1   4
ATOM      2 CL   UNL     1      32.670 -22.873 -17.709  0.00  0.00    -0.079 Cl
ATOM      3 CL   UNL     1      37.196 -20.902 -19.990  0.00  0.00    -0.079 Cl
ATOM      4  C   UNL     1      34.855 -21.807 -18.934  0.00  0.00    +0.160 C 
ATOM      5  C   UNL     1      33.467 -21.842 -18.840  0.00  0.00    +0.092 C 
ATOM      6  C   UNL     1      35.477 -20.965 -19.854  0.00  0.00    +0.092 C 
ATOM      7  C   UNL     1      32.694 -21.031 -19.671  0.00  0.00    +0.015 C 
ATOM      8  C   UNL     1      34.704 -20.155 -20.685  0.00  0.00    +0.015 C 
ATOM      9  C   UNL     1      33.313 -20.189 -20.595  0.00  0.00    +0.002 C 
ENDBRANCH   1   4
BRANCH   1  10
ATOM     10  C   UNL     1      35.898 -22.100 -16.816  0.00  0.00    +0.219 C 
ATOM     11  C   UNL     1      37.383 -21.790 -16.738  0.00  0.00    +0.055 C 
BRANCH  10  14
ATOM     12  N   UNL     1      34.621 -22.778 -14.806  0.00  0.00    -0.296 N 
ATOM     13  N   UNL     1      35.960 -24.328 -15.821  0.00  0.00    -0.228 NA
ATOM     14  C   UNL     1      35.491 -23.112 -15.792  0.00  0.00    +0.149 C 
ATOM     15  C   UNL     1      34.401 -23.916 -13.964  0.00  0.00    +0.084 C 
ATOM     16  C   UNL     1      35.302 -24.969 -14.637  0.00  0.00    +0.116 C 
ATOM     17  H   UNL     1      34.206 -21.893 -14.688  0.00  0.00    +0.153 HD
ENDBRANCH  10  14
ENDBRANCH   1  10
TORSDOF 3
ENDMDL
MODEL 6
REMARK VINA RESULT:      -7.5      7.771     10.257
REMARK  Name = 30668
REMARK  3 active torsions:
REMARK  status: ('A' for Active; 'I' for Inactive)
REMARK    1  A    between atoms: O_1  and  C_4
REMARK    2  A    between atoms: O_1  and  C_10
REMARK    3  A    between atoms: C_10  and  C_14
REMARK                            x       y       z     vdW  Elec       q    Type
REMARK                         _______ _______ _______ _____ _____    ______ ____
ROOT
ATOM      1  O   UNL     1      35.643 -22.602 -18.060  0.00  0.00    -0.470 OA
ENDROOT
BRANCH   1   4
ATOM      2 CL   UNL     1      37.185 -20.898 -19.964  0.00  0.00    -0.079 Cl
ATOM      3 CL   UNL     1      32.707 -22.921 -17.633  0.00  0.00    -0.079 Cl
ATOM      4  C   UNL     1      34.867 -21.830 -18.882  0.00  0.00    +0.160 C 
ATOM      5  C   UNL     1      35.469 -20.990 -19.816  0.00  0.00    +0.092 C 
ATOM      6  C   UNL     1      33.478 -21.888 -18.781  0.00  0.00    +0.092 C 
ATOM      7  C   UNL     1      34.677 -20.204 -20.653  0.00  0.00    +0.015 C 
ATOM      8  C   UNL     1      32.688 -21.102 -19.618  0.00  0.00    +0.015 C 
ATOM      9  C   UNL     1      33.287 -20.260 -20.555  0.00  0.00    +0.002 C 
ENDBRANCH   1   4
BRANCH   1  10
ATOM     10  C   UNL     1      35.907 -22.089 -16.759  0.00  0.00    +0.219 C 
ATOM     11  C   UNL     1      37.375 -21.702 -16.688  0.00  0.00    +0.055 C 
BRANCH  10  14
ATOM     12  N   UNL     1      34.709 -22.824 -14.721  0.00  0.00    -0.296 N 
ATOM     13  N   UNL     1      36.063 -24.325 -15.791  0.00  0.00    -0.228 NA
ATOM     14  C   UNL     1      35.559 -23.123 -15.735  0.00  0.00    +0.149 C 
ATOM     15  C   UNL     1      34.546 -23.976 -13.886  0.00  0.00    +0.084 C 
ATOM     16  C   UNL     1      35.457 -24.997 -14.596  0.00  0.00    +0.116 C 
ATOM     17  H   UNL     1      34.272 -21.953 -14.582  0.00  0.00    +0.153 HD
ENDBRANCH  10  14
ENDBRANCH   1  10
TORSDOF 3
ENDMDL
MODEL 7
REMARK VINA RESULT:      -7.4      2.965      5.498
REMARK  Name = 30668
REMARK  3 active torsions:
REMARK  status: ('A' for Active; 'I' for Inactive)
REMARK    1  A    between atoms: O_1  and  C_4
REMARK    2  A    between atoms: O_1  and  C_10
REMARK    3  A    between atoms: C_10  and  C_14
REMARK                            x       y       z     vdW  Elec       q    Type
REMARK                         _______ _______ _______ _____ _____    ______ ____
ROOT
ATOM      1  O   UNL     1      35.029 -15.989 -22.640  0.00  0.00    -0.470 OA
ENDROOT
BRANCH   1   4
ATOM      2 CL   UNL     1      33.901 -13.234 -22.847  0.00  0.00    -0.079 Cl
ATOM      3 CL   UNL     1      34.950 -18.297 -24.530  0.00  0.00    -0.079 Cl
ATOM      4  C   UNL     1      34.356 -15.740 -23.807  0.00  0.00    +0.160 C 
ATOM      5  C   UNL     1      33.783 -14.490 -24.023  0.00  0.00    +0.092 C 
ATOM      6  C   UNL     1      34.249 -16.739 -24.772  0.00  0.00    +0.092 C 
ATOM      7  C   UNL     1      33.098 -14.237 -25.211  0.00  0.00    +0.015 C 
ATOM      8  C   UNL     1      33.564 -16.486 -25.960  0.00  0.00    +0.015 C 
ATOM      9  C   UNL     1      32.988 -15.235 -26.179  0.00  0.00    +0.002 C 
ENDBRANCH   1   4
BRANCH   1  10
ATOM     10  C   UNL     1      34.252 -16.433 -21.535  0.00  0.00    +0.219 C 
ATOM     11  C   UNL     1      34.514 -15.501 -20.363  0.00  0.00    +0.055 C 
BRANCH  10  14
ATOM     12  N   UNL     1      33.657 -18.804 -21.143  0.00  0.00    -0.296 N 
ATOM     13  N   UNL     1      35.852 -18.189 -20.971  0.00  0.00    -0.228 NA
ATOM     14  C   UNL     1      34.616 -17.847 -21.206  0.00  0.00    +0.149 C 
ATOM     15  C   UNL     1      34.262 -20.059 -20.811  0.00  0.00    +0.084 C 
ATOM     16  C   UNL     1      35.745 -19.657 -20.690  0.00  0.00    +0.116 C 
ATOM     17  H   UNL     1      32.696 -18.659 -21.301  0.00  0.00    +0.153 HD
ENDBRANCH  10  14
ENDBRANCH   1  10
TORSDOF 3
ENDMDL
MODEL 8
REMARK VINA RESULT:      -7.4     10.875     12.719
REMARK  Name = 30668
REMARK  3 active torsions:
REMARK  status: ('A' for Active; 'I' for Inactive)
REMARK    1  A    between atoms: O_1  and  C_4
REMARK    2  A    between atoms: O_1  and  C_10
REMARK    3  A    between atoms: C_10  and  C_14
REMARK                            x       y       z     vdW  Elec       q    Type
REMARK                         _______ _______ _______ _____ _____    ______ ____
ROOT
ATOM      1  O   UNL     1      35.172 -24.041 -16.085  0.00  0.00    -0.470 OA
ENDROOT
BRANCH   1   4
ATOM      2 CL   UNL     1      34.191 -24.361 -13.284  0.00  0.00    -0.079 Cl
ATOM      3 CL   UNL     1      33.805 -23.070 -18.553  0.00  0.00    -0.079 Cl
ATOM      4  C   UNL     1      33.864 -23.679 -15.899  0.00  0.00    +0.160 C 
ATOM      5  C   UNL     1      33.289 -23.783 -14.636  0.00  0.00    +0.092 C 
ATOM      6  C   UNL     1      33.116 -23.208 -16.977  0.00  0.00    +0.092 C 
ATOM      7  C   UNL     1      31.957 -23.413 -14.448  0.00  0.00    +0.015 C 
ATOM      8  C   UNL     1      31.784 -22.840 -16.788  0.00  0.00    +0.015 C 
ATOM      9  C   UNL     1      31.205 -22.943 -15.523  0.00  0.00    +0.002 C 
ENDBRANCH   1   4
BRANCH   1  10
ATOM     10  C   UNL     1      36.158 -23.207 -15.489  0.00  0.00    +0.219 C 
ATOM     11  C   UNL     1      36.779 -22.350 -16.580  0.00  0.00    +0.055 C 
BRANCH  10  14
ATOM     12  N   UNL     1      37.519 -25.268 -15.314  0.00  0.00    -0.296 N 
ATOM     13  N   UNL     1      37.769 -23.657 -13.711  0.00  0.00    -0.228 NA
ATOM     14  C   UNL     1      37.183 -24.057 -14.805  0.00  0.00    +0.149 C 
ATOM     15  C   UNL     1      38.511 -25.874 -14.477  0.00  0.00    +0.084 C 
ATOM     16  C   UNL     1      38.687 -24.797 -13.388  0.00  0.00    +0.116 C 
ATOM     17  H   UNL     1      37.142 -25.667 -16.132  0.00  0.00    +0.153 HD
ENDBRANCH  10  14
ENDBRANCH   1  10
TORSDOF 3
ENDMDL
MODEL 9
REMARK VINA RESULT:      -7.4      2.966      5.152
REMARK  Name = 30668
REMARK  3 active torsions:
REMARK  status: ('A' for Active; 'I' for Inactive)
REMARK    1  A    between atoms: O_1  and  C_4
REMARK    2  A    between atoms: O_1  and  C_10
REMARK    3  A    between atoms: C_10  and  C_14
REMARK                            x       y       z     vdW  Elec       q    Type
REMARK                         _______ _______ _______ _____ _____    ______ ____
ROOT
ATOM      1  O   UNL     1      35.032 -15.997 -22.623  0.00  0.00    -0.470 OA
ENDROOT
BRANCH   1   4
ATOM      2 CL   UNL     1      34.954 -18.299 -24.522  0.00  0.00    -0.079 Cl
ATOM      3 CL   UNL     1      33.907 -13.240 -22.822  0.00  0.00    -0.079 Cl
ATOM      4  C   UNL     1      34.363 -15.744 -23.792  0.00  0.00    +0.160 C 
ATOM      5  C   UNL     1      34.258 -16.739 -24.760  0.00  0.00    +0.092 C 
ATOM      6  C   UNL     1      33.792 -14.491 -24.006  0.00  0.00    +0.092 C 
ATOM      7  C   UNL     1      33.577 -16.480 -25.949  0.00  0.00    +0.015 C 
ATOM      8  C   UNL     1      33.111 -14.233 -25.195  0.00  0.00    +0.015 C 
ATOM      9  C   UNL     1      33.004 -15.228 -26.167  0.00  0.00    +0.002 C 
ENDBRANCH   1   4
BRANCH   1  10
ATOM     10  C   UNL     1      34.249 -16.436 -21.520  0.00  0.00    +0.219 C 
ATOM     11  C   UNL     1      34.520 -15.511 -20.345  0.00  0.00    +0.055 C 
BRANCH  10  14
ATOM     12  N   UNL     1      33.625 -18.801 -21.132  0.00  0.00    -0.296 N 
ATOM     13  N   UNL     1      35.829 -18.214 -20.968  0.00  0.00    -0.228 NA
ATOM     14  C   UNL     1      34.596 -17.856 -21.196  0.00  0.00    +0.149 C 
ATOM     15  C   UNL     1      34.216 -20.064 -20.806  0.00  0.00    +0.084 C 
ATOM     16  C   UNL     1      35.704 -19.682 -20.689  0.00  0.00    +0.116 C 
ATOM     17  H   UNL     1      32.665 -18.643 -21.286  0.00  0.00    +0.153 HD
ENDBRANCH  10  14
ENDBRANCH   1  10
TORSDOF 3
ENDMDL
