MODEL 1
REMARK VINA RESULT:      -8.4      0.000      0.000
REMARK  Name = 17753990
REMARK  7 active torsions:
REMARK  status: ('A' for Active; 'I' for Inactive)
REMARK    1  A    between atoms: C_2  and  N_8
REMARK    2  A    between atoms: C_3  and  N_12
REMARK    3  A    between atoms: C_4  and  C_18
REMARK    4  A    between atoms: C_6  and  C_24
REMARK    5  A    between atoms: N_17  and  C_19
REMARK    6  A    between atoms: N_17  and  C_21
REMARK    7  A    between atoms: C_24  and  O_25
REMARK                            x       y       z     vdW  Elec       q    Type
REMARK                         _______ _______ _______ _____ _____    ______ ____
ROOT
ATOM      1  O   UNL     1      35.610 -25.131 -15.773  0.00  0.00    -0.337 OA
ATOM      2  C   UNL     1      35.786 -22.712 -15.273  0.00  0.00    +0.088 C 
ATOM      3  C   UNL     1      36.899 -23.006 -14.248  0.00  0.00    -0.041 C 
ATOM      4  C   UNL     1      34.889 -23.919 -15.594  0.00  0.00    +0.207 C 
ATOM      5  C   UNL     1      37.555 -24.360 -14.541  0.00  0.00    +0.021 C 
ATOM      6  C   UNL     1      36.508 -25.453 -14.719  0.00  0.00    +0.212 C 
ENDROOT
BRANCH   2   8
ATOM      7  O   UNL     1      34.558 -22.558 -17.900  0.00  0.00    -0.275 OA
ATOM      8  N   UNL     1      36.390 -22.228 -16.502  0.00  0.00    -0.305 N 
ATOM      9  C   UNL     1      35.716 -22.197 -17.706  0.00  0.00    +0.223 C 
ATOM     10  C   UNL     1      36.565 -21.627 -18.811  0.00  0.00    +0.095 C 
ATOM     11  H   UNL     1      37.321 -21.909 -16.475  0.00  0.00    +0.149 HD
ENDBRANCH   2   8
BRANCH   3  12
ATOM     12  N   UNL     1      36.359 -23.008 -12.886  0.00  0.00    +0.383 N 
ATOM     13  H   UNL     1      37.092 -22.739 -12.230  0.00  0.00    -0.089 HD
ATOM     14  H   UNL     1      36.022 -23.942 -12.655  0.00  0.00    -0.089 HD
ATOM     15  H   UNL     1      35.588 -22.343 -12.825  0.00  0.00    -0.089 HD
ENDBRANCH   3  12
BRANCH   4  18
ATOM     16  O   UNL     1      34.070 -24.507 -13.457  0.00  0.00    -0.272 OA
ATOM     17  N   UNL     1      32.485 -23.894 -15.043  0.00  0.00    -0.278 N 
ATOM     18  C   UNL     1      33.786 -24.134 -14.598  0.00  0.00    +0.254 C 
BRANCH  17  19
ATOM     19  C   UNL     1      31.323 -24.063 -14.180  0.00  0.00    +0.094 C 
ATOM     20  C   UNL     1      30.637 -25.390 -14.426  0.00  0.00    +0.023 C 
ENDBRANCH  17  19
BRANCH  17  21
ATOM     21  C   UNL     1      32.194 -23.453 -16.404  0.00  0.00    +0.094 C 
ATOM     22  C   UNL     1      30.888 -22.689 -16.473  0.00  0.00    +0.023 C 
ENDBRANCH  17  21
ENDBRANCH   4  18
BRANCH   6  24
ATOM     23  O   UNL     1      38.057 -27.297 -14.549  0.00  0.00    -0.248 OA
ATOM     24  C   UNL     1      37.152 -26.734 -15.146  0.00  0.00    +0.341 C 
BRANCH  24  25
ATOM     25  O   UNL     1      36.596 -27.189 -16.295  0.00  0.00    -0.479 OA
ATOM     26  H   UNL     1      36.959 -27.938 -16.727  0.00  0.00    +0.295 HD
ENDBRANCH  24  25
ENDBRANCH   6  24
TORSDOF 7
ENDMDL
MODEL 2
REMARK VINA RESULT:      -7.6      2.238      4.219
REMARK  Name = 17753990
REMARK  7 active torsions:
REMARK  status: ('A' for Active; 'I' for Inactive)
REMARK    1  A    between atoms: C_2  and  N_8
REMARK    2  A    between atoms: C_3  and  N_12
REMARK    3  A    between atoms: C_4  and  C_18
REMARK    4  A    between atoms: C_6  and  C_24
REMARK    5  A    between atoms: N_17  and  C_19
REMARK    6  A    between atoms: N_17  and  C_21
REMARK    7  A    between atoms: C_24  and  O_25
REMARK                            x       y       z     vdW  Elec       q    Type
REMARK                         _______ _______ _______ _____ _____    ______ ____
ROOT
ATOM      1  O   UNL     1      35.501 -22.417 -15.240  0.00  0.00    -0.337 OA
ATOM      2  C   UNL     1      34.866 -24.220 -13.666  0.00  0.00    +0.088 C 
ATOM      3  C   UNL     1      35.990 -25.109 -14.232  0.00  0.00    -0.041 C 
ATOM      4  C   UNL     1      34.419 -23.090 -14.608  0.00  0.00    +0.207 C 
ATOM      5  C   UNL     1      37.059 -24.251 -14.918  0.00  0.00    +0.021 C 
ATOM      6  C   UNL     1      36.431 -23.267 -15.898  0.00  0.00    +0.212 C 
ENDROOT
BRANCH   2   8
ATOM      7  O   UNL     1      36.037 -25.612 -11.403  0.00  0.00    -0.275 OA
ATOM      8  N   UNL     1      35.306 -23.643 -12.407  0.00  0.00    -0.305 N 
ATOM      9  C   UNL     1      35.852 -24.398 -11.388  0.00  0.00    +0.223 C 
ATOM     10  C   UNL     1      36.245 -23.550 -10.208  0.00  0.00    +0.095 C 
ATOM     11  H   UNL     1      35.209 -22.673 -12.274  0.00  0.00    +0.149 HD
ENDBRANCH   2   8
BRANCH   3  12
ATOM     12  N   UNL     1      35.451 -26.078 -15.189  0.00  0.00    +0.383 N 
ATOM     13  H   UNL     1      36.219 -26.560 -15.655  0.00  0.00    -0.089 HD
ATOM     14  H   UNL     1      34.885 -25.590 -15.884  0.00  0.00    -0.089 HD
ATOM     15  H   UNL     1      34.873 -26.757 -14.695  0.00  0.00    -0.089 HD
ENDBRANCH   3  12
BRANCH   4  18
ATOM     16  O   UNL     1      33.828 -23.852 -16.765  0.00  0.00    -0.272 OA
ATOM     17  N   UNL     1      32.083 -23.530 -15.264  0.00  0.00    -0.278 N 
ATOM     18  C   UNL     1      33.426 -23.526 -15.646  0.00  0.00    +0.254 C 
BRANCH  17  19
ATOM     19  C   UNL     1      31.017 -23.931 -16.172  0.00  0.00    +0.094 C 
ATOM     20  C   UNL     1      30.097 -22.773 -16.496  0.00  0.00    +0.023 C 
ENDBRANCH  17  19
BRANCH  17  21
ATOM     21  C   UNL     1      31.651 -23.135 -13.926  0.00  0.00    +0.094 C 
ATOM     22  C   UNL     1      30.797 -24.206 -13.280  0.00  0.00    +0.023 C 
ENDBRANCH  17  21
ENDBRANCH   4  18
BRANCH   6  24
ATOM     23  O   UNL     1      37.240 -21.248 -16.945  0.00  0.00    -0.248 OA
ATOM     24  C   UNL     1      37.468 -22.341 -16.451  0.00  0.00    +0.341 C 
BRANCH  24  25
ATOM     25  O   UNL     1      38.705 -22.883 -16.335  0.00  0.00    -0.479 OA
ATOM     26  H   UNL     1      38.834 -23.797 -16.500  0.00  0.00    +0.295 HD
ENDBRANCH  24  25
ENDBRANCH   6  24
TORSDOF 7
ENDMDL
MODEL 3
REMARK VINA RESULT:      -7.3      2.388      4.659
REMARK  Name = 17753990
REMARK  7 active torsions:
REMARK  status: ('A' for Active; 'I' for Inactive)
REMARK    1  A    between atoms: C_2  and  N_8
REMARK    2  A    between atoms: C_3  and  N_12
REMARK    3  A    between atoms: C_4  and  C_18
REMARK    4  A    between atoms: C_6  and  C_24
REMARK    5  A    between atoms: N_17  and  C_19
REMARK    6  A    between atoms: N_17  and  C_21
REMARK    7  A    between atoms: C_24  and  O_25
REMARK                            x       y       z     vdW  Elec       q    Type
REMARK                         _______ _______ _______ _____ _____    ______ ____
ROOT
ATOM      1  O   UNL     1      36.405 -23.156 -13.455  0.00  0.00    -0.337 OA
ATOM      2  C   UNL     1      35.310 -24.869 -14.868  0.00  0.00    +0.088 C 
ATOM      3  C   UNL     1      36.352 -25.910 -14.412  0.00  0.00    -0.041 C 
ATOM      4  C   UNL     1      35.759 -23.409 -14.696  0.00  0.00    +0.207 C 
ATOM      5  C   UNL     1      36.992 -25.482 -13.086  0.00  0.00    +0.021 C 
ATOM      6  C   UNL     1      37.476 -24.039 -13.147  0.00  0.00    +0.212 C 
ENDROOT
BRANCH   2   8
ATOM      7  O   UNL     1      32.670 -23.855 -15.522  0.00  0.00    -0.275 OA
ATOM      8  N   UNL     1      34.077 -25.077 -14.129  0.00  0.00    -0.305 N 
ATOM      9  C   UNL     1      32.866 -24.547 -14.527  0.00  0.00    +0.223 C 
ATOM     10  C   UNL     1      31.748 -24.937 -13.598  0.00  0.00    +0.095 C 
ATOM     11  H   UNL     1      34.106 -25.620 -13.308  0.00  0.00    +0.149 HD
ENDBRANCH   2   8
BRANCH   3  12
ATOM     12  N   UNL     1      37.394 -26.078 -15.428  0.00  0.00    +0.383 N 
ATOM     13  H   UNL     1      37.475 -27.064 -15.671  0.00  0.00    -0.089 HD
ATOM     14  H   UNL     1      38.284 -25.744 -15.059  0.00  0.00    -0.089 HD
ATOM     15  H   UNL     1      37.147 -25.541 -16.259  0.00  0.00    -0.089 HD
ENDBRANCH   3  12
BRANCH   4  18
ATOM     16  O   UNL     1      37.843 -22.871 -15.673  0.00  0.00    -0.272 OA
ATOM     17  N   UNL     1      35.957 -22.498 -16.979  0.00  0.00    -0.278 N 
ATOM     18  C   UNL     1      36.619 -22.905 -15.820  0.00  0.00    +0.254 C 
BRANCH  17  19
ATOM     19  C   UNL     1      36.669 -21.989 -18.144  0.00  0.00    +0.094 C 
ATOM     20  C   UNL     1      37.188 -20.586 -17.910  0.00  0.00    +0.023 C 
ENDBRANCH  17  19
BRANCH  17  21
ATOM     21  C   UNL     1      34.504 -22.554 -17.110  0.00  0.00    +0.094 C 
ATOM     22  C   UNL     1      34.076 -22.544 -18.563  0.00  0.00    +0.023 C 
ENDBRANCH  17  21
ENDBRANCH   4  18
BRANCH   6  24
ATOM     23  O   UNL     1      38.863 -22.783 -11.622  0.00  0.00    -0.248 OA
ATOM     24  C   UNL     1      37.965 -23.591 -11.807  0.00  0.00    +0.341 C 
BRANCH  24  25
ATOM     25  O   UNL     1      37.278 -24.209 -10.815  0.00  0.00    -0.479 OA
ATOM     26  H   UNL     1      36.587 -24.806 -11.025  0.00  0.00    +0.295 HD
ENDBRANCH  24  25
ENDBRANCH   6  24
TORSDOF 7
ENDMDL
MODEL 4
REMARK VINA RESULT:      -7.0      2.606      4.788
REMARK  Name = 17753990
REMARK  7 active torsions:
REMARK  status: ('A' for Active; 'I' for Inactive)
REMARK    1  A    between atoms: C_2  and  N_8
REMARK    2  A    between atoms: C_3  and  N_12
REMARK    3  A    between atoms: C_4  and  C_18
REMARK    4  A    between atoms: C_6  and  C_24
REMARK    5  A    between atoms: N_17  and  C_19
REMARK    6  A    between atoms: N_17  and  C_21
REMARK    7  A    between atoms: C_24  and  O_25
REMARK                            x       y       z     vdW  Elec       q    Type
REMARK                         _______ _______ _______ _____ _____    ______ ____
ROOT
ATOM      1  O   UNL     1      38.113 -24.160 -14.576  0.00  0.00    -0.337 OA
ATOM      2  C   UNL     1      36.151 -25.239 -13.518  0.00  0.00    +0.088 C 
ATOM      3  C   UNL     1      36.730 -26.626 -13.860  0.00  0.00    -0.041 C 
ATOM      4  C   UNL     1      36.706 -24.093 -14.378  0.00  0.00    +0.207 C 
ATOM      5  C   UNL     1      38.243 -26.535 -14.086  0.00  0.00    +0.021 C 
ATOM      6  C   UNL     1      38.590 -25.411 -15.055  0.00  0.00    +0.212 C 
ENDROOT
BRANCH   2   8
ATOM      7  O   UNL     1      34.517 -23.658 -11.712  0.00  0.00    -0.275 OA
ATOM      8  N   UNL     1      36.410 -24.951 -12.117  0.00  0.00    -0.305 N 
ATOM      9  C   UNL     1      35.565 -24.183 -11.342  0.00  0.00    +0.223 C 
ATOM     10  C   UNL     1      36.055 -24.063  -9.924  0.00  0.00    +0.095 C 
ATOM     11  H   UNL     1      37.224 -25.318 -11.704  0.00  0.00    +0.149 HD
ENDBRANCH   2   8
BRANCH   3  12
ATOM     12  N   UNL     1      36.088 -27.172 -15.058  0.00  0.00    +0.383 N 
ATOM     13  H   UNL     1      36.425 -28.120 -15.222  0.00  0.00    -0.089 HD
ATOM     14  H   UNL     1      36.314 -26.587 -15.862  0.00  0.00    -0.089 HD
ATOM     15  H   UNL     1      35.077 -27.190 -14.924  0.00  0.00    -0.089 HD
ENDBRANCH   3  12
BRANCH   4  18
ATOM     16  O   UNL     1      35.261 -24.839 -16.092  0.00  0.00    -0.272 OA
ATOM     17  N   UNL     1      36.300 -22.788 -16.431  0.00  0.00    -0.278 N 
ATOM     18  C   UNL     1      36.021 -23.948 -15.707  0.00  0.00    +0.254 C 
BRANCH  17  19
ATOM     19  C   UNL     1      35.703 -22.520 -17.733  0.00  0.00    +0.094 C 
ATOM     20  C   UNL     1      34.194 -22.640 -17.687  0.00  0.00    +0.023 C 
ENDBRANCH  17  19
BRANCH  17  21
ATOM     21  C   UNL     1      37.208 -21.757 -15.936  0.00  0.00    +0.094 C 
ATOM     22  C   UNL     1      37.583 -20.777 -17.028  0.00  0.00    +0.023 C 
ENDBRANCH  17  21
ENDBRANCH   4  18
BRANCH   6  24
ATOM     23  O   UNL     1      40.750 -24.544 -14.414  0.00  0.00    -0.248 OA
ATOM     24  C   UNL     1      40.073 -25.240 -15.155  0.00  0.00    +0.341 C 
BRANCH  24  25
ATOM     25  O   UNL     1      40.569 -25.964 -16.188  0.00  0.00    -0.479 OA
ATOM     26  H   UNL     1      40.228 -26.818 -16.369  0.00  0.00    +0.295 HD
ENDBRANCH  24  25
ENDBRANCH   6  24
TORSDOF 7
ENDMDL
MODEL 5
REMARK VINA RESULT:      -6.4     14.599     17.181
REMARK  Name = 17753990
REMARK  7 active torsions:
REMARK  status: ('A' for Active; 'I' for Inactive)
REMARK    1  A    between atoms: C_2  and  N_8
REMARK    2  A    between atoms: C_3  and  N_12
REMARK    3  A    between atoms: C_4  and  C_18
REMARK    4  A    between atoms: C_6  and  C_24
REMARK    5  A    between atoms: N_17  and  C_19
REMARK    6  A    between atoms: N_17  and  C_21
REMARK    7  A    between atoms: C_24  and  O_25
REMARK                            x       y       z     vdW  Elec       q    Type
REMARK                         _______ _______ _______ _____ _____    ______ ____
ROOT
ATOM      1  O   UNL     1      32.554  -9.707 -23.594  0.00  0.00    -0.337 OA
ATOM      2  C   UNL     1      32.426  -7.403 -22.696  0.00  0.00    +0.088 C 
ATOM      3  C   UNL     1      33.949  -7.249 -22.877  0.00  0.00    -0.041 C 
ATOM      4  C   UNL     1      31.942  -8.861 -22.629  0.00  0.00    +0.207 C 
ATOM      5  C   UNL     1      34.470  -8.251 -23.913  0.00  0.00    +0.021 C 
ATOM      6  C   UNL     1      33.975  -9.661 -23.616  0.00  0.00    +0.212 C 
ENDROOT
BRANCH   2   8
ATOM      7  O   UNL     1      31.609  -4.620 -22.809  0.00  0.00    -0.275 OA
ATOM      8  N   UNL     1      31.749  -6.726 -23.788  0.00  0.00    -0.305 N 
ATOM      9  C   UNL     1      31.401  -5.392 -23.742  0.00  0.00    +0.223 C 
ATOM     10  C   UNL     1      30.734  -4.939 -25.013  0.00  0.00    +0.095 C 
ATOM     11  H   UNL     1      31.527  -7.243 -24.597  0.00  0.00    +0.149 HD
ENDBRANCH   2   8
BRANCH   3  12
ATOM     12  N   UNL     1      34.645  -7.455 -21.604  0.00  0.00    +0.383 N 
ATOM     13  H   UNL     1      34.479  -6.655 -20.994  0.00  0.00    -0.089 HD
ATOM     14  H   UNL     1      35.645  -7.551 -21.775  0.00  0.00    -0.089 HD
ATOM     15  H   UNL     1      34.293  -8.302 -21.157  0.00  0.00    -0.089 HD
ENDBRANCH   3  12
BRANCH   4  18
ATOM     16  O   UNL     1      32.497  -8.794 -20.333  0.00  0.00    -0.272 OA
ATOM     17  N   UNL     1      31.699 -10.819 -21.150  0.00  0.00    -0.278 N 
ATOM     18  C   UNL     1      32.073  -9.479 -21.267  0.00  0.00    +0.254 C 
BRANCH  17  19
ATOM     19  C   UNL     1      31.775 -11.541 -19.886  0.00  0.00    +0.094 C 
ATOM     20  C   UNL     1      31.029 -10.815 -18.786  0.00  0.00    +0.023 C 
ENDBRANCH  17  19
BRANCH  17  21
ATOM     21  C   UNL     1      31.202 -11.593 -22.284  0.00  0.00    +0.094 C 
ATOM     22  C   UNL     1      31.978 -12.882 -22.458  0.00  0.00    +0.023 C 
ENDBRANCH  17  21
ENDBRANCH   4  18
BRANCH   6  24
ATOM     23  O   UNL     1      33.652 -11.468 -25.184  0.00  0.00    -0.248 OA
ATOM     24  C   UNL     1      34.370 -10.600 -24.711  0.00  0.00    +0.341 C 
BRANCH  24  25
ATOM     25  O   UNL     1      35.643 -10.361 -25.110  0.00  0.00    -0.479 OA
ATOM     26  H   UNL     1      36.348 -10.867 -24.755  0.00  0.00    +0.295 HD
ENDBRANCH  24  25
ENDBRANCH   6  24
TORSDOF 7
ENDMDL
MODEL 6
REMARK VINA RESULT:      -6.0      2.176      4.068
REMARK  Name = 17753990
REMARK  7 active torsions:
REMARK  status: ('A' for Active; 'I' for Inactive)
REMARK    1  A    between atoms: C_2  and  N_8
REMARK    2  A    between atoms: C_3  and  N_12
REMARK    3  A    between atoms: C_4  and  C_18
REMARK    4  A    between atoms: C_6  and  C_24
REMARK    5  A    between atoms: N_17  and  C_19
REMARK    6  A    between atoms: N_17  and  C_21
REMARK    7  A    between atoms: C_24  and  O_25
REMARK                            x       y       z     vdW  Elec       q    Type
REMARK                         _______ _______ _______ _____ _____    ______ ____
ROOT
ATOM      1  O   UNL     1      33.912 -22.939 -15.304  0.00  0.00    -0.337 OA
ATOM      2  C   UNL     1      34.856 -24.407 -13.548  0.00  0.00    +0.088 C 
ATOM      3  C   UNL     1      35.809 -25.034 -14.586  0.00  0.00    -0.041 C 
ATOM      4  C   UNL     1      33.619 -23.726 -14.157  0.00  0.00    +0.207 C 
ATOM      5  C   UNL     1      35.994 -24.092 -15.781  0.00  0.00    +0.021 C 
ATOM      6  C   UNL     1      34.652 -23.609 -16.316  0.00  0.00    +0.212 C 
ENDROOT
BRANCH   2   8
ATOM      7  O   UNL     1      36.790 -24.948 -11.451  0.00  0.00    -0.275 OA
ATOM      8  N   UNL     1      35.591 -23.437 -12.755  0.00  0.00    -0.305 N 
ATOM      9  C   UNL     1      36.493 -23.800 -11.775  0.00  0.00    +0.223 C 
ATOM     10  C   UNL     1      37.132 -22.602 -11.126  0.00  0.00    +0.095 C 
ATOM     11  H   UNL     1      35.439 -22.479 -12.923  0.00  0.00    +0.149 HD
ENDBRANCH   2   8
BRANCH   3  12
ATOM     12  N   UNL     1      35.290 -26.322 -15.052  0.00  0.00    +0.383 N 
ATOM     13  H   UNL     1      35.074 -26.261 -16.047  0.00  0.00    -0.089 HD
ATOM     14  H   UNL     1      34.443 -26.554 -14.534  0.00  0.00    -0.089 HD
ATOM     15  H   UNL     1      35.992 -27.046 -14.900  0.00  0.00    -0.089 HD
ENDBRANCH   3  12
BRANCH   4  18
ATOM     16  O   UNL     1      32.617 -25.866 -14.170  0.00  0.00    -0.272 OA
ATOM     17  N   UNL     1      31.380 -24.134 -15.105  0.00  0.00    -0.278 N 
ATOM     18  C   UNL     1      32.501 -24.676 -14.473  0.00  0.00    +0.254 C 
BRANCH  17  19
ATOM     19  C   UNL     1      30.223 -24.943 -15.467  0.00  0.00    +0.094 C 
ATOM     20  C   UNL     1      29.212 -25.003 -14.342  0.00  0.00    +0.023 C 
ENDBRANCH  17  19
BRANCH  17  21
ATOM     21  C   UNL     1      31.285 -22.718 -15.446  0.00  0.00    +0.094 C 
ATOM     22  C   UNL     1      30.490 -22.506 -16.719  0.00  0.00    +0.023 C 
ENDBRANCH  17  21
ENDBRANCH   4  18
BRANCH   6  24
ATOM     23  O   UNL     1      34.011 -22.259 -18.212  0.00  0.00    -0.248 OA
ATOM     24  C   UNL     1      34.850 -22.582 -17.386  0.00  0.00    +0.341 C 
BRANCH  24  25
ATOM     25  O   UNL     1      36.098 -22.056 -17.318  0.00  0.00    -0.479 OA
ATOM     26  H   UNL     1      36.832 -22.611 -17.140  0.00  0.00    +0.295 HD
ENDBRANCH  24  25
ENDBRANCH   6  24
TORSDOF 7
ENDMDL
MODEL 7
REMARK VINA RESULT:      -6.0     14.870     18.057
REMARK  Name = 17753990
REMARK  7 active torsions:
REMARK  status: ('A' for Active; 'I' for Inactive)
REMARK    1  A    between atoms: C_2  and  N_8
REMARK    2  A    between atoms: C_3  and  N_12
REMARK    3  A    between atoms: C_4  and  C_18
REMARK    4  A    between atoms: C_6  and  C_24
REMARK    5  A    between atoms: N_17  and  C_19
REMARK    6  A    between atoms: N_17  and  C_21
REMARK    7  A    between atoms: C_24  and  O_25
REMARK                            x       y       z     vdW  Elec       q    Type
REMARK                         _______ _______ _______ _____ _____    ______ ____
ROOT
ATOM      1  O   UNL     1      31.762  -7.921 -23.437  0.00  0.00    -0.337 OA
ATOM      2  C   UNL     1      32.757  -9.054 -21.473  0.00  0.00    +0.088 C 
ATOM      3  C   UNL     1      32.942  -7.689 -20.781  0.00  0.00    -0.041 C 
ATOM      4  C   UNL     1      32.614  -8.973 -23.001  0.00  0.00    +0.207 C 
ATOM      5  C   UNL     1      31.991  -6.649 -21.382  0.00  0.00    +0.021 C 
ATOM      6  C   UNL     1      32.072  -6.640 -22.904  0.00  0.00    +0.212 C 
ENDROOT
BRANCH   2   8
ATOM      7  O   UNL     1      32.398 -10.031 -18.763  0.00  0.00    -0.275 OA
ATOM      8  N   UNL     1      31.584  -9.709 -20.919  0.00  0.00    -0.305 N 
ATOM      9  C   UNL     1      31.515 -10.140 -19.610  0.00  0.00    +0.223 C 
ATOM     10  C   UNL     1      30.182 -10.761 -19.291  0.00  0.00    +0.095 C 
ATOM     11  H   UNL     1      30.806  -9.854 -21.504  0.00  0.00    +0.149 HD
ENDBRANCH   2   8
BRANCH   3  12
ATOM     12  N   UNL     1      34.325  -7.224 -20.917  0.00  0.00    +0.383 N 
ATOM     13  H   UNL     1      34.329  -6.270 -21.277  0.00  0.00    -0.089 HD
ATOM     14  H   UNL     1      34.826  -7.833 -21.563  0.00  0.00    -0.089 HD
ATOM     15  H   UNL     1      34.782  -7.246 -20.005  0.00  0.00    -0.089 HD
ENDBRANCH   3  12
BRANCH   4  18
ATOM     16  O   UNL     1      34.610  -7.867 -23.616  0.00  0.00    -0.272 OA
ATOM     17  N   UNL     1      34.288  -9.995 -24.496  0.00  0.00    -0.278 N 
ATOM     18  C   UNL     1      33.926  -8.888 -23.727  0.00  0.00    +0.254 C 
BRANCH  17  19
ATOM     19  C   UNL     1      35.533 -10.045 -25.250  0.00  0.00    +0.094 C 
ATOM     20  C   UNL     1      35.362 -10.788 -26.559  0.00  0.00    +0.023 C 
ENDBRANCH  17  19
BRANCH  17  21
ATOM     21  C   UNL     1      33.446 -11.183 -24.600  0.00  0.00    +0.094 C 
ATOM     22  C   UNL     1      33.867 -12.250 -23.610  0.00  0.00    +0.023 C 
ENDBRANCH  17  21
ENDBRANCH   4  18
BRANCH   6  24
ATOM     23  O   UNL     1      30.887  -5.503 -24.672  0.00  0.00    -0.248 OA
ATOM     24  C   UNL     1      31.038  -5.727 -23.481  0.00  0.00    +0.341 C 
BRANCH  24  25
ATOM     25  O   UNL     1      30.288  -5.171 -22.499  0.00  0.00    -0.479 OA
ATOM     26  H   UNL     1      30.107  -5.655 -21.716  0.00  0.00    +0.295 HD
ENDBRANCH  24  25
ENDBRANCH   6  24
TORSDOF 7
ENDMDL
MODEL 8
REMARK VINA RESULT:      -5.8     15.372     18.376
REMARK  Name = 17753990
REMARK  7 active torsions:
REMARK  status: ('A' for Active; 'I' for Inactive)
REMARK    1  A    between atoms: C_2  and  N_8
REMARK    2  A    between atoms: C_3  and  N_12
REMARK    3  A    between atoms: C_4  and  C_18
REMARK    4  A    between atoms: C_6  and  C_24
REMARK    5  A    between atoms: N_17  and  C_19
REMARK    6  A    between atoms: N_17  and  C_21
REMARK    7  A    between atoms: C_24  and  O_25
REMARK                            x       y       z     vdW  Elec       q    Type
REMARK                         _______ _______ _______ _____ _____    ______ ____
ROOT
ATOM      1  O   UNL     1      33.414  -8.031 -22.202  0.00  0.00    -0.337 OA
ATOM      2  C   UNL     1      32.134  -7.394 -24.223  0.00  0.00    +0.088 C 
ATOM      3  C   UNL     1      30.867  -7.217 -23.364  0.00  0.00    -0.041 C 
ATOM      4  C   UNL     1      33.210  -8.287 -23.586  0.00  0.00    +0.207 C 
ATOM      5  C   UNL     1      31.242  -6.992 -21.895  0.00  0.00    +0.021 C 
ATOM      6  C   UNL     1      32.233  -8.043 -21.411  0.00  0.00    +0.212 C 
ENDROOT
BRANCH   2   8
ATOM      7  O   UNL     1      30.732  -5.009 -25.106  0.00  0.00    -0.275 OA
ATOM      8  N   UNL     1      32.704  -6.086 -24.500  0.00  0.00    -0.305 N 
ATOM      9  C   UNL     1      31.946  -5.011 -24.919  0.00  0.00    +0.223 C 
ATOM     10  C   UNL     1      32.781  -3.774 -25.108  0.00  0.00    +0.095 C 
ATOM     11  H   UNL     1      33.674  -5.962 -24.386  0.00  0.00    +0.149 HD
ENDBRANCH   2   8
BRANCH   3  12
ATOM     12  N   UNL     1      30.000  -8.392 -23.473  0.00  0.00    +0.383 N 
ATOM     13  H   UNL     1      29.443  -8.485 -22.624  0.00  0.00    -0.089 HD
ATOM     14  H   UNL     1      30.573  -9.227 -23.597  0.00  0.00    -0.089 HD
ATOM     15  H   UNL     1      29.379  -8.283 -24.276  0.00  0.00    -0.089 HD
ENDBRANCH   3  12
BRANCH   4  18
ATOM     16  O   UNL     1      31.939 -10.268 -23.364  0.00  0.00    -0.272 OA
ATOM     17  N   UNL     1      33.973 -10.458 -24.473  0.00  0.00    -0.278 N 
ATOM     18  C   UNL     1      32.976  -9.756 -23.794  0.00  0.00    +0.254 C 
BRANCH  17  19
ATOM     19  C   UNL     1      33.874 -11.886 -24.744  0.00  0.00    +0.094 C 
ATOM     20  C   UNL     1      33.837 -12.693 -23.463  0.00  0.00    +0.023 C 
ENDBRANCH  17  19
BRANCH  17  21
ATOM     21  C   UNL     1      35.187  -9.811 -24.964  0.00  0.00    +0.094 C 
ATOM     22  C   UNL     1      35.642 -10.411 -26.279  0.00  0.00    +0.023 C 
ENDBRANCH  17  21
ENDBRANCH   4  18
BRANCH   6  24
ATOM     23  O   UNL     1      32.981  -6.613 -19.616  0.00  0.00    -0.248 OA
ATOM     24  C   UNL     1      32.700  -7.729 -20.025  0.00  0.00    +0.341 C 
BRANCH  24  25
ATOM     25  O   UNL     1      32.774  -8.857 -19.278  0.00  0.00    -0.479 OA
ATOM     26  H   UNL     1      33.039  -8.809 -18.380  0.00  0.00    +0.295 HD
ENDBRANCH  24  25
ENDBRANCH   6  24
TORSDOF 7
ENDMDL
MODEL 9
REMARK VINA RESULT:      -5.6      2.208      3.753
REMARK  Name = 17753990
REMARK  7 active torsions:
REMARK  status: ('A' for Active; 'I' for Inactive)
REMARK    1  A    between atoms: C_2  and  N_8
REMARK    2  A    between atoms: C_3  and  N_12
REMARK    3  A    between atoms: C_4  and  C_18
REMARK    4  A    between atoms: C_6  and  C_24
REMARK    5  A    between atoms: N_17  and  C_19
REMARK    6  A    between atoms: N_17  and  C_21
REMARK    7  A    between atoms: C_24  and  O_25
REMARK                            x       y       z     vdW  Elec       q    Type
REMARK                         _______ _______ _______ _____ _____    ______ ____
ROOT
ATOM      1  O   UNL     1      34.452 -24.691 -12.281  0.00  0.00    -0.337 OA
ATOM      2  C   UNL     1      34.908 -24.565 -14.711  0.00  0.00    +0.088 C 
ATOM      3  C   UNL     1      35.995 -23.503 -14.451  0.00  0.00    -0.041 C 
ATOM      4  C   UNL     1      33.876 -24.702 -13.581  0.00  0.00    +0.207 C 
ATOM      5  C   UNL     1      36.489 -23.584 -13.003  0.00  0.00    +0.021 C 
ATOM      6  C   UNL     1      35.323 -23.597 -12.022  0.00  0.00    +0.212 C 
ENDROOT
BRANCH   2   8
ATOM      7  O   UNL     1      37.696 -25.064 -15.351  0.00  0.00    -0.275 OA
ATOM      8  N   UNL     1      35.547 -25.852 -14.931  0.00  0.00    -0.305 N 
ATOM      9  C   UNL     1      36.887 -25.981 -15.233  0.00  0.00    +0.223 C 
ATOM     10  C   UNL     1      37.293 -27.422 -15.385  0.00  0.00    +0.095 C 
ATOM     11  H   UNL     1      34.998 -26.666 -14.863  0.00  0.00    +0.149 HD
ENDBRANCH   2   8
BRANCH   3  12
ATOM     12  N   UNL     1      35.478 -22.159 -14.718  0.00  0.00    +0.383 N 
ATOM     13  H   UNL     1      35.906 -21.793 -15.568  0.00  0.00    -0.089 HD
ATOM     14  H   UNL     1      35.702 -21.547 -13.934  0.00  0.00    -0.089 HD
ATOM     15  H   UNL     1      34.466 -22.201 -14.838  0.00  0.00    -0.089 HD
ENDBRANCH   3  12
BRANCH   4  18
ATOM     16  O   UNL     1      32.404 -23.128 -12.610  0.00  0.00    -0.272 OA
ATOM     17  N   UNL     1      32.219 -23.445 -14.906  0.00  0.00    -0.278 N 
ATOM     18  C   UNL     1      32.770 -23.688 -13.647  0.00  0.00    +0.254 C 
BRANCH  17  19
ATOM     19  C   UNL     1      31.141 -22.486 -15.112  0.00  0.00    +0.094 C 
ATOM     20  C   UNL     1      29.784 -23.155 -15.058  0.00  0.00    +0.023 C 
ENDBRANCH  17  19
BRANCH  17  21
ATOM     21  C   UNL     1      32.683 -24.132 -16.107  0.00  0.00    +0.094 C 
ATOM     22  C   UNL     1      32.843 -23.172 -17.269  0.00  0.00    +0.023 C 
ENDBRANCH  17  21
ENDBRANCH   4  18
BRANCH   6  24
ATOM     23  O   UNL     1      35.281 -24.557  -9.807  0.00  0.00    -0.248 OA
ATOM     24  C   UNL     1      35.811 -23.822 -10.626  0.00  0.00    +0.341 C 
BRANCH  24  25
ATOM     25  O   UNL     1      36.927 -23.091 -10.386  0.00  0.00    -0.479 OA
ATOM     26  H   UNL     1      37.412 -22.727 -11.101  0.00  0.00    +0.295 HD
ENDBRANCH  24  25
ENDBRANCH   6  24
TORSDOF 7
ENDMDL
