MODEL 1
REMARK VINA RESULT:     -10.9      0.000      0.000
REMARK  Name = 459963
REMARK  8 active torsions:
REMARK  status: ('A' for Active; 'I' for Inactive)
REMARK    1  A    between atoms: C_2  and  C_6
REMARK    2  A    between atoms: C_3  and  C_19
REMARK    3  A    between atoms: C_9  and  C_14
REMARK    4  A    between atoms: N_13  and  C_14
REMARK    5  A    between atoms: N_13  and  O_17
REMARK    6  A    between atoms: C_22  and  C_27
REMARK    7  A    between atoms: N_26  and  C_27
REMARK    8  A    between atoms: N_26  and  O_30
REMARK                            x       y       z     vdW  Elec       q    Type
REMARK                         _______ _______ _______ _____ _____    ______ ____
ROOT
ATOM      1  O   UNL     1      34.069 -17.096 -21.990  0.00  0.00    -0.453 OA
ATOM      2  C   UNL     1      34.687 -18.247 -22.353  0.00  0.00    +0.145 C 
ATOM      3  C   UNL     1      34.234 -16.231 -23.026  0.00  0.00    +0.145 C 
ATOM      4  C   UNL     1      35.244 -18.134 -23.600  0.00  0.00    +0.041 C 
ATOM      5  C   UNL     1      34.950 -16.822 -24.040  0.00  0.00    +0.041 C 
ENDROOT
BRANCH   2   6
ATOM      6  C   UNL     1      34.628 -19.307 -21.376  0.00  0.00    +0.035 C 
ATOM      7  C   UNL     1      35.806 -19.872 -20.888  0.00  0.00    +0.003 C 
ATOM      8  C   UNL     1      33.393 -19.766 -20.919  0.00  0.00    +0.003 C 
ATOM      9  C   UNL     1      34.514 -21.356 -19.486  0.00  0.00    +0.036 C 
ATOM     10  C   UNL     1      35.749 -20.897 -19.943  0.00  0.00    +0.003 C 
ATOM     11  C   UNL     1      33.335 -20.791 -19.975  0.00  0.00    +0.003 C 
BRANCH   9  13
ATOM     12  N   UNL     1      33.353 -23.289 -18.480  0.00  0.00    -0.381 N 
ATOM     13  C   UNL     1      34.455 -22.424 -18.502  0.00  0.00    +0.160 C 
ATOM     14  H   UNL     1      33.309 -24.013 -17.815  0.00  0.00    +0.157 HD
ATOM     15  H   UNL     1      32.623 -23.171 -19.130  0.00  0.00    +0.157 HD
BRANCH  13  16
ATOM     16  N   UNL     1      35.456 -22.546 -17.642  0.00  0.00    -0.114 NA
BRANCH  16  17
ATOM     17  O   UNL     1      35.157 -23.439 -16.603  0.00  0.00    -0.232 OA
ATOM     18  C   UNL     1      35.528 -22.829 -15.376  0.00  0.00    +0.211 C 
ENDBRANCH  16  17
ENDBRANCH  13  16
ENDBRANCH   9  13
ENDBRANCH   2   6
BRANCH   3  19
ATOM     19  C   UNL     1      33.646 -14.934 -22.843  0.00  0.00    +0.035 C 
ATOM     20  C   UNL     1      32.796 -14.695 -21.758  0.00  0.00    +0.003 C 
ATOM     21  C   UNL     1      33.920 -13.901 -23.745  0.00  0.00    +0.003 C 
ATOM     22  C   UNL     1      32.501 -12.408 -22.481  0.00  0.00    +0.036 C 
ATOM     23  C   UNL     1      32.226 -13.435 -21.578  0.00  0.00    +0.003 C 
ATOM     24  C   UNL     1      33.349 -12.642 -23.564  0.00  0.00    +0.003 C 
BRANCH  22  26
ATOM     25  N   UNL     1      32.327 -10.021 -23.086  0.00  0.00    -0.381 N 
ATOM     26  C   UNL     1      31.906 -11.095 -22.293  0.00  0.00    +0.160 C 
ATOM     27  H   UNL     1      31.927  -9.131 -22.963  0.00  0.00    +0.157 HD
ATOM     28  H   UNL     1      33.025 -10.157 -23.768  0.00  0.00    +0.157 HD
BRANCH  26  29
ATOM     29  N   UNL     1      30.972 -10.953 -21.362  0.00  0.00    -0.114 NA
BRANCH  29  30
ATOM     30  O   UNL     1      31.369 -10.072 -20.345  0.00  0.00    -0.232 OA
ATOM     31  C   UNL     1      31.294 -10.766 -19.108  0.00  0.00    +0.211 C 
ENDBRANCH  29  30
ENDBRANCH  26  29
ENDBRANCH  22  26
ENDBRANCH   3  19
TORSDOF 8
ENDMDL
MODEL 2
REMARK VINA RESULT:     -10.9      0.160      9.635
REMARK  Name = 459963
REMARK  8 active torsions:
REMARK  status: ('A' for Active; 'I' for Inactive)
REMARK    1  A    between atoms: C_2  and  C_6
REMARK    2  A    between atoms: C_3  and  C_19
REMARK    3  A    between atoms: C_9  and  C_14
REMARK    4  A    between atoms: N_13  and  C_14
REMARK    5  A    between atoms: N_13  and  O_17
REMARK    6  A    between atoms: C_22  and  C_27
REMARK    7  A    between atoms: N_26  and  C_27
REMARK    8  A    between atoms: N_26  and  O_30
REMARK                            x       y       z     vdW  Elec       q    Type
REMARK                         _______ _______ _______ _____ _____    ______ ____
ROOT
ATOM      1  O   UNL     1      34.078 -17.088 -21.996  0.00  0.00    -0.453 OA
ATOM      2  C   UNL     1      34.239 -16.228 -23.032  0.00  0.00    +0.145 C 
ATOM      3  C   UNL     1      34.699 -18.243 -22.357  0.00  0.00    +0.145 C 
ATOM      4  C   UNL     1      34.951 -16.811 -24.049  0.00  0.00    +0.041 C 
ATOM      5  C   UNL     1      35.251 -18.123 -23.611  0.00  0.00    +0.041 C 
ENDROOT
BRANCH   2   6
ATOM      6  C   UNL     1      33.643 -14.928 -22.847  0.00  0.00    +0.035 C 
ATOM      7  C   UNL     1      32.815 -14.690 -21.751  0.00  0.00    +0.003 C 
ATOM      8  C   UNL     1      33.898 -13.907 -23.763  0.00  0.00    +0.003 C 
ATOM      9  C   UNL     1      32.493 -12.412 -22.486  0.00  0.00    +0.036 C 
ATOM     10  C   UNL     1      32.239 -13.433 -21.570  0.00  0.00    +0.003 C 
ATOM     11  C   UNL     1      33.322 -12.649 -23.583  0.00  0.00    +0.003 C 
BRANCH   9  13
ATOM     12  N   UNL     1      32.311 -10.025 -23.091  0.00  0.00    -0.381 N 
ATOM     13  C   UNL     1      31.893 -11.101 -22.298  0.00  0.00    +0.160 C 
ATOM     14  H   UNL     1      31.908  -9.136 -22.967  0.00  0.00    +0.157 HD
ATOM     15  H   UNL     1      33.009 -10.159 -23.773  0.00  0.00    +0.157 HD
BRANCH  13  16
ATOM     16  N   UNL     1      30.960 -10.962 -21.367  0.00  0.00    -0.114 NA
BRANCH  16  17
ATOM     17  O   UNL     1      31.352 -10.078 -20.352  0.00  0.00    -0.232 OA
ATOM     18  C   UNL     1      31.293 -10.773 -19.115  0.00  0.00    +0.211 C 
ENDBRANCH  16  17
ENDBRANCH  13  16
ENDBRANCH   9  13
ENDBRANCH   2   6
BRANCH   3  19
ATOM     19  C   UNL     1      34.645 -19.299 -21.387  0.00  0.00    +0.035 C 
ATOM     20  C   UNL     1      33.409 -19.778 -20.938  0.00  0.00    +0.003 C 
ATOM     21  C   UNL     1      35.824 -19.856 -20.883  0.00  0.00    +0.003 C 
ATOM     22  C   UNL     1      34.535 -21.357 -19.496  0.00  0.00    +0.036 C 
ATOM     23  C   UNL     1      33.355 -20.805 -19.996  0.00  0.00    +0.003 C 
ATOM     24  C   UNL     1      35.769 -20.883 -19.941  0.00  0.00    +0.003 C 
BRANCH  22  26
ATOM     25  N   UNL     1      33.370 -23.283 -18.482  0.00  0.00    -0.381 N 
ATOM     26  C   UNL     1      34.478 -22.428 -18.514  0.00  0.00    +0.160 C 
ATOM     27  H   UNL     1      33.327 -24.008 -17.818  0.00  0.00    +0.157 HD
ATOM     28  H   UNL     1      32.632 -23.157 -19.121  0.00  0.00    +0.157 HD
BRANCH  26  29
ATOM     29  N   UNL     1      35.489 -22.561 -17.667  0.00  0.00    -0.114 NA
BRANCH  29  30
ATOM     30  O   UNL     1      35.162 -23.380 -16.576  0.00  0.00    -0.232 OA
ATOM     31  C   UNL     1      36.192 -23.254 -15.607  0.00  0.00    +0.211 C 
ENDBRANCH  29  30
ENDBRANCH  26  29
ENDBRANCH  22  26
ENDBRANCH   3  19
TORSDOF 8
ENDMDL
MODEL 3
REMARK VINA RESULT:     -10.3      4.055      7.477
REMARK  Name = 459963
REMARK  8 active torsions:
REMARK  status: ('A' for Active; 'I' for Inactive)
REMARK    1  A    between atoms: C_2  and  C_6
REMARK    2  A    between atoms: C_3  and  C_19
REMARK    3  A    between atoms: C_9  and  C_14
REMARK    4  A    between atoms: N_13  and  C_14
REMARK    5  A    between atoms: N_13  and  O_17
REMARK    6  A    between atoms: C_22  and  C_27
REMARK    7  A    between atoms: N_26  and  C_27
REMARK    8  A    between atoms: N_26  and  O_30
REMARK                            x       y       z     vdW  Elec       q    Type
REMARK                         _______ _______ _______ _____ _____    ______ ____
ROOT
ATOM      1  O   UNL     1      34.955 -22.457 -17.656  0.00  0.00    -0.453 OA
ATOM      2  C   UNL     1      34.486 -23.288 -16.692  0.00  0.00    +0.145 C 
ATOM      3  C   UNL     1      33.887 -22.127 -18.429  0.00  0.00    +0.145 C 
ATOM      4  C   UNL     1      33.139 -23.495 -16.835  0.00  0.00    +0.041 C 
ATOM      5  C   UNL     1      32.747 -22.740 -17.966  0.00  0.00    +0.041 C 
ENDROOT
BRANCH   2   6
ATOM      6  C   UNL     1      35.477 -23.760 -15.756  0.00  0.00    +0.035 C 
ATOM      7  C   UNL     1      35.135 -24.721 -14.804  0.00  0.00    +0.003 C 
ATOM      8  C   UNL     1      36.777 -23.258 -15.803  0.00  0.00    +0.003 C 
ATOM      9  C   UNL     1      37.392 -24.675 -13.946  0.00  0.00    +0.036 C 
ATOM     10  C   UNL     1      36.092 -25.178 -13.899  0.00  0.00    +0.003 C 
ATOM     11  C   UNL     1      37.735 -23.715 -14.898  0.00  0.00    +0.003 C 
BRANCH   9  13
ATOM     12  N   UNL     1      39.405 -26.013 -13.440  0.00  0.00    -0.381 N 
ATOM     13  C   UNL     1      38.390 -25.152 -13.002  0.00  0.00    +0.160 C 
ATOM     14  H   UNL     1      40.082 -26.338 -12.804  0.00  0.00    +0.157 HD
ATOM     15  H   UNL     1      39.441 -26.291 -14.383  0.00  0.00    +0.157 HD
BRANCH  13  16
ATOM     16  N   UNL     1      38.305 -24.757 -11.740  0.00  0.00    -0.114 NA
BRANCH  16  17
ATOM     17  O   UNL     1      38.483 -23.373 -11.605  0.00  0.00    -0.232 OA
ATOM     18  C   UNL     1      37.219 -22.791 -11.324  0.00  0.00    +0.211 C 
ENDBRANCH  16  17
ENDBRANCH  13  16
ENDBRANCH   9  13
ENDBRANCH   2   6
BRANCH   3  19
ATOM     19  C   UNL     1      34.172 -21.242 -19.523  0.00  0.00    +0.035 C 
ATOM     20  C   UNL     1      35.494 -21.015 -19.918  0.00  0.00    +0.003 C 
ATOM     21  C   UNL     1      33.130 -20.602 -20.202  0.00  0.00    +0.003 C 
ATOM     22  C   UNL     1      34.729 -19.519 -21.655  0.00  0.00    +0.036 C 
ATOM     23  C   UNL     1      35.771 -20.157 -20.982  0.00  0.00    +0.003 C 
ATOM     24  C   UNL     1      33.408 -19.743 -21.265  0.00  0.00    +0.003 C 
BRANCH  22  26
ATOM     25  N   UNL     1      34.787 -19.049 -24.078  0.00  0.00    -0.381 N 
ATOM     26  C   UNL     1      35.019 -18.624 -22.764  0.00  0.00    +0.160 C 
ATOM     27  H   UNL     1      34.982 -18.446 -24.831  0.00  0.00    +0.157 HD
ATOM     28  H   UNL     1      34.430 -19.950 -24.249  0.00  0.00    +0.157 HD
BRANCH  26  29
ATOM     29  N   UNL     1      35.502 -17.420 -22.492  0.00  0.00    -0.114 NA
BRANCH  29  30
ATOM     30  O   UNL     1      34.485 -16.480 -22.269  0.00  0.00    -0.232 OA
ATOM     31  C   UNL     1      34.687 -15.911 -20.984  0.00  0.00    +0.211 C 
ENDBRANCH  29  30
ENDBRANCH  26  29
ENDBRANCH  22  26
ENDBRANCH   3  19
TORSDOF 8
ENDMDL
MODEL 4
REMARK VINA RESULT:     -10.3      4.026     11.253
REMARK  Name = 459963
REMARK  8 active torsions:
REMARK  status: ('A' for Active; 'I' for Inactive)
REMARK    1  A    between atoms: C_2  and  C_6
REMARK    2  A    between atoms: C_3  and  C_19
REMARK    3  A    between atoms: C_9  and  C_14
REMARK    4  A    between atoms: N_13  and  C_14
REMARK    5  A    between atoms: N_13  and  O_17
REMARK    6  A    between atoms: C_22  and  C_27
REMARK    7  A    between atoms: N_26  and  C_27
REMARK    8  A    between atoms: N_26  and  O_30
REMARK                            x       y       z     vdW  Elec       q    Type
REMARK                         _______ _______ _______ _____ _____    ______ ____
ROOT
ATOM      1  O   UNL     1      34.958 -22.457 -17.647  0.00  0.00    -0.453 OA
ATOM      2  C   UNL     1      33.891 -22.128 -18.416  0.00  0.00    +0.145 C 
ATOM      3  C   UNL     1      34.489 -23.285 -16.676  0.00  0.00    +0.145 C 
ATOM      4  C   UNL     1      32.749 -22.729 -17.955  0.00  0.00    +0.041 C 
ATOM      5  C   UNL     1      33.136 -23.483 -16.822  0.00  0.00    +0.041 C 
ENDROOT
BRANCH   2   6
ATOM      6  C   UNL     1      34.180 -21.242 -19.518  0.00  0.00    +0.035 C 
ATOM      7  C   UNL     1      33.141 -20.577 -20.169  0.00  0.00    +0.003 C 
ATOM      8  C   UNL     1      35.498 -21.050 -19.931  0.00  0.00    +0.003 C 
ATOM      9  C   UNL     1      34.738 -19.528 -21.646  0.00  0.00    +0.036 C 
ATOM     10  C   UNL     1      33.420 -19.721 -21.234  0.00  0.00    +0.003 C 
ATOM     11  C   UNL     1      35.778 -20.193 -20.995  0.00  0.00    +0.003 C 
BRANCH   9  13
ATOM     12  N   UNL     1      34.827 -19.073 -24.072  0.00  0.00    -0.381 N 
ATOM     13  C   UNL     1      35.029 -18.635 -22.757  0.00  0.00    +0.160 C 
ATOM     14  H   UNL     1      35.022 -18.472 -24.826  0.00  0.00    +0.157 HD
ATOM     15  H   UNL     1      34.489 -19.982 -24.241  0.00  0.00    +0.157 HD
BRANCH  13  16
ATOM     16  N   UNL     1      35.486 -17.421 -22.487  0.00  0.00    -0.114 NA
BRANCH  16  17
ATOM     17  O   UNL     1      34.451 -16.492 -22.310  0.00  0.00    -0.232 OA
ATOM     18  C   UNL     1      34.653 -15.837 -21.066  0.00  0.00    +0.211 C 
ENDBRANCH  16  17
ENDBRANCH  13  16
ENDBRANCH   9  13
ENDBRANCH   2   6
BRANCH   3  19
ATOM     19  C   UNL     1      35.473 -23.754 -15.742  0.00  0.00    +0.035 C 
ATOM     20  C   UNL     1      36.779 -23.255 -15.785  0.00  0.00    +0.003 C 
ATOM     21  C   UNL     1      35.133 -24.713 -14.782  0.00  0.00    +0.003 C 
ATOM     22  C   UNL     1      37.391 -24.666 -13.922  0.00  0.00    +0.036 C 
ATOM     23  C   UNL     1      37.735 -23.710 -14.877  0.00  0.00    +0.003 C 
ATOM     24  C   UNL     1      36.090 -25.167 -13.875  0.00  0.00    +0.003 C 
BRANCH  22  26
ATOM     25  N   UNL     1      39.403 -26.002 -13.410  0.00  0.00    -0.381 N 
ATOM     26  C   UNL     1      38.388 -25.140 -12.976  0.00  0.00    +0.160 C 
ATOM     27  H   UNL     1      40.080 -26.325 -12.773  0.00  0.00    +0.157 HD
ATOM     28  H   UNL     1      39.439 -26.285 -14.352  0.00  0.00    +0.157 HD
BRANCH  26  29
ATOM     29  N   UNL     1      38.302 -24.739 -11.715  0.00  0.00    -0.114 NA
BRANCH  29  30
ATOM     30  O   UNL     1      38.459 -23.351 -11.590  0.00  0.00    -0.232 OA
ATOM     31  C   UNL     1      37.187 -22.788 -11.305  0.00  0.00    +0.211 C 
ENDBRANCH  29  30
ENDBRANCH  26  29
ENDBRANCH  22  26
ENDBRANCH   3  19
TORSDOF 8
ENDMDL
MODEL 5
REMARK VINA RESULT:     -10.2      4.054      7.512
REMARK  Name = 459963
REMARK  8 active torsions:
REMARK  status: ('A' for Active; 'I' for Inactive)
REMARK    1  A    between atoms: C_2  and  C_6
REMARK    2  A    between atoms: C_3  and  C_19
REMARK    3  A    between atoms: C_9  and  C_14
REMARK    4  A    between atoms: N_13  and  C_14
REMARK    5  A    between atoms: N_13  and  O_17
REMARK    6  A    between atoms: C_22  and  C_27
REMARK    7  A    between atoms: N_26  and  C_27
REMARK    8  A    between atoms: N_26  and  O_30
REMARK                            x       y       z     vdW  Elec       q    Type
REMARK                         _______ _______ _______ _____ _____    ______ ____
ROOT
ATOM      1  O   UNL     1      34.869 -22.380 -17.621  0.00  0.00    -0.453 OA
ATOM      2  C   UNL     1      34.381 -23.203 -16.659  0.00  0.00    +0.145 C 
ATOM      3  C   UNL     1      33.826 -22.095 -18.446  0.00  0.00    +0.145 C 
ATOM      4  C   UNL     1      33.047 -23.450 -16.855  0.00  0.00    +0.041 C 
ATOM      5  C   UNL     1      32.684 -22.729 -18.017  0.00  0.00    +0.041 C 
ENDROOT
BRANCH   2   6
ATOM      6  C   UNL     1      35.343 -23.628 -15.672  0.00  0.00    +0.035 C 
ATOM      7  C   UNL     1      34.994 -24.594 -14.729  0.00  0.00    +0.003 C 
ATOM      8  C   UNL     1      36.623 -23.074 -15.661  0.00  0.00    +0.003 C 
ATOM      9  C   UNL     1      37.203 -24.452 -13.764  0.00  0.00    +0.036 C 
ATOM     10  C   UNL     1      35.923 -25.006 -13.775  0.00  0.00    +0.003 C 
ATOM     11  C   UNL     1      37.554 -23.486 -14.707  0.00  0.00    +0.003 C 
BRANCH   9  13
ATOM     12  N   UNL     1      38.535 -24.012 -11.732  0.00  0.00    -0.381 N 
ATOM     13  C   UNL     1      38.172 -24.882 -12.768  0.00  0.00    +0.160 C 
ATOM     14  H   UNL     1      39.191 -24.299 -11.056  0.00  0.00    +0.157 HD
ATOM     15  H   UNL     1      38.134 -23.115 -11.679  0.00  0.00    +0.157 HD
BRANCH  13  16
ATOM     16  N   UNL     1      38.692 -26.096 -12.876  0.00  0.00    -0.114 NA
BRANCH  16  17
ATOM     17  O   UNL     1      39.144 -26.365 -14.176  0.00  0.00    -0.232 OA
ATOM     18  C   UNL     1      40.465 -25.860 -14.298  0.00  0.00    +0.211 C 
ENDBRANCH  16  17
ENDBRANCH  13  16
ENDBRANCH   9  13
ENDBRANCH   2   6
BRANCH   3  19
ATOM     19  C   UNL     1      34.134 -21.226 -19.546  0.00  0.00    +0.035 C 
ATOM     20  C   UNL     1      35.462 -21.036 -19.942  0.00  0.00    +0.003 C 
ATOM     21  C   UNL     1      33.109 -20.563 -20.229  0.00  0.00    +0.003 C 
ATOM     22  C   UNL     1      34.735 -19.534 -21.690  0.00  0.00    +0.036 C 
ATOM     23  C   UNL     1      35.761 -20.193 -21.012  0.00  0.00    +0.003 C 
ATOM     24  C   UNL     1      33.409 -19.720 -21.299  0.00  0.00    +0.003 C 
BRANCH  22  26
ATOM     25  N   UNL     1      34.605 -18.981 -24.092  0.00  0.00    -0.381 N 
ATOM     26  C   UNL     1      35.048 -18.655 -22.805  0.00  0.00    +0.160 C 
ATOM     27  H   UNL     1      34.814 -18.389 -24.850  0.00  0.00    +0.157 HD
ATOM     28  H   UNL     1      34.084 -19.803 -24.240  0.00  0.00    +0.157 HD
BRANCH  26  29
ATOM     29  N   UNL     1      35.755 -17.559 -22.565  0.00  0.00    -0.114 NA
BRANCH  29  30
ATOM     30  O   UNL     1      35.023 -16.390 -22.821  0.00  0.00    -0.232 OA
ATOM     31  C   UNL     1      34.642 -15.828 -21.574  0.00  0.00    +0.211 C 
ENDBRANCH  29  30
ENDBRANCH  26  29
ENDBRANCH  22  26
ENDBRANCH   3  19
TORSDOF 8
ENDMDL
MODEL 6
REMARK VINA RESULT:     -10.2      3.976     11.456
REMARK  Name = 459963
REMARK  8 active torsions:
REMARK  status: ('A' for Active; 'I' for Inactive)
REMARK    1  A    between atoms: C_2  and  C_6
REMARK    2  A    between atoms: C_3  and  C_19
REMARK    3  A    between atoms: C_9  and  C_14
REMARK    4  A    between atoms: N_13  and  C_14
REMARK    5  A    between atoms: N_13  and  O_17
REMARK    6  A    between atoms: C_22  and  C_27
REMARK    7  A    between atoms: N_26  and  C_27
REMARK    8  A    between atoms: N_26  and  O_30
REMARK                            x       y       z     vdW  Elec       q    Type
REMARK                         _______ _______ _______ _____ _____    ______ ____
ROOT
ATOM      1  O   UNL     1      34.857 -22.367 -17.629  0.00  0.00    -0.453 OA
ATOM      2  C   UNL     1      33.812 -22.089 -18.447  0.00  0.00    +0.145 C 
ATOM      3  C   UNL     1      34.381 -23.207 -16.672  0.00  0.00    +0.145 C 
ATOM      4  C   UNL     1      32.677 -22.735 -18.030  0.00  0.00    +0.041 C 
ATOM      5  C   UNL     1      33.046 -23.464 -16.875  0.00  0.00    +0.041 C 
ENDROOT
BRANCH   2   6
ATOM      6  C   UNL     1      34.112 -21.200 -19.542  0.00  0.00    +0.035 C 
ATOM      7  C   UNL     1      35.435 -20.997 -19.934  0.00  0.00    +0.003 C 
ATOM      8  C   UNL     1      33.078 -20.544 -20.211  0.00  0.00    +0.003 C 
ATOM      9  C   UNL     1      34.691 -19.483 -21.663  0.00  0.00    +0.036 C 
ATOM     10  C   UNL     1      35.725 -20.138 -20.994  0.00  0.00    +0.003 C 
ATOM     11  C   UNL     1      33.368 -19.685 -21.271  0.00  0.00    +0.003 C 
BRANCH   9  13
ATOM     12  N   UNL     1      34.802 -19.020 -24.086  0.00  0.00    -0.381 N 
ATOM     13  C   UNL     1      34.994 -18.587 -22.768  0.00  0.00    +0.160 C 
ATOM     14  H   UNL     1      35.006 -18.417 -24.836  0.00  0.00    +0.157 HD
ATOM     15  H   UNL     1      34.463 -19.928 -24.261  0.00  0.00    +0.157 HD
BRANCH  13  16
ATOM     16  N   UNL     1      35.452 -17.375 -22.490  0.00  0.00    -0.114 NA
BRANCH  16  17
ATOM     17  O   UNL     1      35.366 -16.511 -23.591  0.00  0.00    -0.232 OA
ATOM     18  C   UNL     1      34.613 -15.372 -23.200  0.00  0.00    +0.211 C 
ENDBRANCH  16  17
ENDBRANCH  13  16
ENDBRANCH   9  13
ENDBRANCH   2   6
BRANCH   3  19
ATOM     19  C   UNL     1      35.342 -23.629 -15.691  0.00  0.00    +0.035 C 
ATOM     20  C   UNL     1      35.004 -24.610 -14.753  0.00  0.00    +0.003 C 
ATOM     21  C   UNL     1      36.620 -23.063 -15.668  0.00  0.00    +0.003 C 
ATOM     22  C   UNL     1      37.211 -24.453 -13.781  0.00  0.00    +0.036 C 
ATOM     23  C   UNL     1      35.937 -25.021 -13.802  0.00  0.00    +0.003 C 
ATOM     24  C   UNL     1      37.552 -23.475 -14.716  0.00  0.00    +0.003 C 
BRANCH  22  26
ATOM     25  N   UNL     1      38.559 -24.007 -11.762  0.00  0.00    -0.381 N 
ATOM     26  C   UNL     1      38.183 -24.882 -12.789  0.00  0.00    +0.160 C 
ATOM     27  H   UNL     1      39.217 -24.293 -11.088  0.00  0.00    +0.157 HD
ATOM     28  H   UNL     1      38.166 -23.106 -11.714  0.00  0.00    +0.157 HD
BRANCH  26  29
ATOM     29  N   UNL     1      38.692 -26.102 -12.890  0.00  0.00    -0.114 NA
BRANCH  29  30
ATOM     30  O   UNL     1      39.144 -26.380 -14.189  0.00  0.00    -0.232 OA
ATOM     31  C   UNL     1      40.455 -25.851 -14.321  0.00  0.00    +0.211 C 
ENDBRANCH  29  30
ENDBRANCH  26  29
ENDBRANCH  22  26
ENDBRANCH   3  19
TORSDOF 8
ENDMDL
MODEL 7
REMARK VINA RESULT:     -10.1      1.391      1.994
REMARK  Name = 459963
REMARK  8 active torsions:
REMARK  status: ('A' for Active; 'I' for Inactive)
REMARK    1  A    between atoms: C_2  and  C_6
REMARK    2  A    between atoms: C_3  and  C_19
REMARK    3  A    between atoms: C_9  and  C_14
REMARK    4  A    between atoms: N_13  and  C_14
REMARK    5  A    between atoms: N_13  and  O_17
REMARK    6  A    between atoms: C_22  and  C_27
REMARK    7  A    between atoms: N_26  and  C_27
REMARK    8  A    between atoms: N_26  and  O_30
REMARK                            x       y       z     vdW  Elec       q    Type
REMARK                         _______ _______ _______ _____ _____    ______ ____
ROOT
ATOM      1  O   UNL     1      34.147 -16.403 -22.537  0.00  0.00    -0.453 OA
ATOM      2  C   UNL     1      34.630 -17.581 -23.003  0.00  0.00    +0.145 C 
ATOM      3  C   UNL     1      34.042 -15.579 -23.613  0.00  0.00    +0.145 C 
ATOM      4  C   UNL     1      34.836 -17.526 -24.357  0.00  0.00    +0.041 C 
ATOM      5  C   UNL     1      34.453 -16.223 -24.757  0.00  0.00    +0.041 C 
ENDROOT
BRANCH   2   6
ATOM      6  C   UNL     1      34.818 -18.605 -22.005  0.00  0.00    +0.035 C 
ATOM      7  C   UNL     1      33.723 -19.328 -21.532  0.00  0.00    +0.003 C 
ATOM      8  C   UNL     1      36.096 -18.872 -21.512  0.00  0.00    +0.003 C 
ATOM      9  C   UNL     1      35.182 -20.585 -20.075  0.00  0.00    +0.036 C 
ATOM     10  C   UNL     1      33.905 -20.318 -20.567  0.00  0.00    +0.003 C 
ATOM     11  C   UNL     1      36.278 -19.862 -20.547  0.00  0.00    +0.003 C 
BRANCH   9  13
ATOM     12  N   UNL     1      34.466 -22.684 -18.988  0.00  0.00    -0.381 N 
ATOM     13  C   UNL     1      35.371 -21.618 -19.068  0.00  0.00    +0.160 C 
ATOM     14  H   UNL     1      34.590 -23.384 -18.308  0.00  0.00    +0.157 HD
ATOM     15  H   UNL     1      33.706 -22.732 -19.612  0.00  0.00    +0.157 HD
BRANCH  13  16
ATOM     16  N   UNL     1      36.404 -21.514 -18.244  0.00  0.00    -0.114 NA
BRANCH  16  17
ATOM     17  O   UNL     1      36.357 -22.464 -17.214  0.00  0.00    -0.232 OA
ATOM     18  C   UNL     1      37.366 -22.139 -16.269  0.00  0.00    +0.211 C 
ENDBRANCH  16  17
ENDBRANCH  13  16
ENDBRANCH   9  13
ENDBRANCH   2   6
BRANCH   3  19
ATOM     19  C   UNL     1      33.542 -14.263 -23.333  0.00  0.00    +0.035 C 
ATOM     20  C   UNL     1      32.648 -14.061 -22.276  0.00  0.00    +0.003 C 
ATOM     21  C   UNL     1      33.946 -13.175 -24.112  0.00  0.00    +0.003 C 
ATOM     22  C   UNL     1      32.568 -11.700 -22.782  0.00  0.00    +0.036 C 
ATOM     23  C   UNL     1      32.164 -12.783 -22.001  0.00  0.00    +0.003 C 
ATOM     24  C   UNL     1      33.460 -11.896 -23.837  0.00  0.00    +0.003 C 
BRANCH  22  26
ATOM     25  N   UNL     1      31.451 -10.106 -21.264  0.00  0.00    -0.381 N 
ATOM     26  C   UNL     1      32.063 -10.367 -22.496  0.00  0.00    +0.160 C 
ATOM     27  H   UNL     1      31.108  -9.205 -21.065  0.00  0.00    +0.157 HD
ATOM     28  H   UNL     1      31.365 -10.824 -20.595  0.00  0.00    +0.157 HD
BRANCH  26  29
ATOM     29  N   UNL     1      32.195  -9.429 -23.424  0.00  0.00    -0.114 NA
BRANCH  29  30
ATOM     30  O   UNL     1      32.571  -8.193 -22.878  0.00  0.00    -0.232 OA
ATOM     31  C   UNL     1      33.939  -7.973 -23.189  0.00  0.00    +0.211 C 
ENDBRANCH  29  30
ENDBRANCH  26  29
ENDBRANCH  22  26
ENDBRANCH   3  19
TORSDOF 8
ENDMDL
MODEL 8
REMARK VINA RESULT:      -9.9      2.750      4.082
REMARK  Name = 459963
REMARK  8 active torsions:
REMARK  status: ('A' for Active; 'I' for Inactive)
REMARK    1  A    between atoms: C_2  and  C_6
REMARK    2  A    between atoms: C_3  and  C_19
REMARK    3  A    between atoms: C_9  and  C_14
REMARK    4  A    between atoms: N_13  and  C_14
REMARK    5  A    between atoms: N_13  and  O_17
REMARK    6  A    between atoms: C_22  and  C_27
REMARK    7  A    between atoms: N_26  and  C_27
REMARK    8  A    between atoms: N_26  and  O_30
REMARK                            x       y       z     vdW  Elec       q    Type
REMARK                         _______ _______ _______ _____ _____    ______ ____
ROOT
ATOM      1  O   UNL     1      34.094 -14.045 -23.798  0.00  0.00    -0.453 OA
ATOM      2  C   UNL     1      33.920 -15.297 -24.290  0.00  0.00    +0.145 C 
ATOM      3  C   UNL     1      33.662 -13.191 -24.764  0.00  0.00    +0.145 C 
ATOM      4  C   UNL     1      33.385 -15.259 -25.551  0.00  0.00    +0.041 C 
ATOM      5  C   UNL     1      33.217 -13.889 -25.862  0.00  0.00    +0.041 C 
ENDROOT
BRANCH   2   6
ATOM      6  C   UNL     1      34.324 -16.363 -23.406  0.00  0.00    +0.035 C 
ATOM      7  C   UNL     1      34.711 -17.595 -23.932  0.00  0.00    +0.003 C 
ATOM      8  C   UNL     1      34.329 -16.161 -22.026  0.00  0.00    +0.003 C 
ATOM      9  C   UNL     1      35.108 -18.424 -21.698  0.00  0.00    +0.036 C 
ATOM     10  C   UNL     1      35.103 -18.626 -23.078  0.00  0.00    +0.003 C 
ATOM     11  C   UNL     1      34.721 -17.191 -21.172  0.00  0.00    +0.003 C 
BRANCH   9  13
ATOM     12  N   UNL     1      36.844 -19.569 -20.367  0.00  0.00    -0.381 N 
ATOM     13  C   UNL     1      35.516 -19.499 -20.808  0.00  0.00    +0.160 C 
ATOM     14  H   UNL     1      37.125 -20.295 -19.765  0.00  0.00    +0.157 HD
ATOM     15  H   UNL     1      37.496 -18.892 -20.660  0.00  0.00    +0.157 HD
BRANCH  13  16
ATOM     16  N   UNL     1      34.610 -20.393 -20.441  0.00  0.00    -0.114 NA
BRANCH  16  17
ATOM     17  O   UNL     1      35.135 -21.350 -19.562  0.00  0.00    -0.232 OA
ATOM     18  C   UNL     1      34.077 -22.208 -19.161  0.00  0.00    +0.211 C 
ENDBRANCH  16  17
ENDBRANCH  13  16
ENDBRANCH   9  13
ENDBRANCH   2   6
BRANCH   3  19
ATOM     19  C   UNL     1      33.762 -11.796 -24.441  0.00  0.00    +0.035 C 
ATOM     20  C   UNL     1      34.716 -10.993 -25.076  0.00  0.00    +0.003 C 
ATOM     21  C   UNL     1      32.907 -11.230 -23.490  0.00  0.00    +0.003 C 
ATOM     22  C   UNL     1      33.958  -9.077 -23.813  0.00  0.00    +0.036 C 
ATOM     23  C   UNL     1      34.812  -9.638 -24.763  0.00  0.00    +0.003 C 
ATOM     24  C   UNL     1      33.005  -9.874 -23.178  0.00  0.00    +0.003 C 
BRANCH  22  26
ATOM     25  N   UNL     1      34.645  -6.781 -24.402  0.00  0.00    -0.381 N 
ATOM     26  C   UNL     1      34.059  -7.664 -23.487  0.00  0.00    +0.160 C 
ATOM     27  H   UNL     1      34.716  -5.823 -24.186  0.00  0.00    +0.157 HD
ATOM     28  H   UNL     1      34.986  -7.117 -25.262  0.00  0.00    +0.157 HD
BRANCH  26  29
ATOM     29  N   UNL     1      33.591  -7.251 -22.317  0.00  0.00    -0.114 NA
BRANCH  29  30
ATOM     30  O   UNL     1      32.495  -6.388 -22.461  0.00  0.00    -0.232 OA
ATOM     31  C   UNL     1      31.861  -6.269 -21.196  0.00  0.00    +0.211 C 
ENDBRANCH  29  30
ENDBRANCH  26  29
ENDBRANCH  22  26
ENDBRANCH   3  19
TORSDOF 8
ENDMDL
MODEL 9
REMARK VINA RESULT:      -9.5      3.070      9.766
REMARK  Name = 459963
REMARK  8 active torsions:
REMARK  status: ('A' for Active; 'I' for Inactive)
REMARK    1  A    between atoms: C_2  and  C_6
REMARK    2  A    between atoms: C_3  and  C_19
REMARK    3  A    between atoms: C_9  and  C_14
REMARK    4  A    between atoms: N_13  and  C_14
REMARK    5  A    between atoms: N_13  and  O_17
REMARK    6  A    between atoms: C_22  and  C_27
REMARK    7  A    between atoms: N_26  and  C_27
REMARK    8  A    between atoms: N_26  and  O_30
REMARK                            x       y       z     vdW  Elec       q    Type
REMARK                         _______ _______ _______ _____ _____    ______ ____
ROOT
ATOM      1  O   UNL     1      34.831 -20.487 -19.847  0.00  0.00    -0.453 OA
ATOM      2  C   UNL     1      35.791 -20.028 -20.688  0.00  0.00    +0.145 C 
ATOM      3  C   UNL     1      35.394 -21.503 -19.141  0.00  0.00    +0.145 C 
ATOM      4  C   UNL     1      36.957 -20.731 -20.533  0.00  0.00    +0.041 C 
ATOM      5  C   UNL     1      36.701 -21.692 -19.526  0.00  0.00    +0.041 C 
ENDROOT
BRANCH   2   6
ATOM      6  C   UNL     1      35.388 -18.934 -21.538  0.00  0.00    +0.035 C 
ATOM      7  C   UNL     1      35.138 -19.158 -22.891  0.00  0.00    +0.003 C 
ATOM      8  C   UNL     1      35.247 -17.652 -21.005  0.00  0.00    +0.003 C 
ATOM      9  C   UNL     1      34.607 -16.819 -23.181  0.00  0.00    +0.036 C 
ATOM     10  C   UNL     1      34.748 -18.101 -23.713  0.00  0.00    +0.003 C 
ATOM     11  C   UNL     1      34.857 -16.594 -21.827  0.00  0.00    +0.003 C 
BRANCH   9  13
ATOM     12  N   UNL     1      33.814 -15.971 -25.360  0.00  0.00    -0.381 N 
ATOM     13  C   UNL     1      34.201 -15.717 -24.038  0.00  0.00    +0.160 C 
ATOM     14  H   UNL     1      33.539 -15.228 -25.943  0.00  0.00    +0.157 HD
ATOM     15  H   UNL     1      33.818 -16.893 -25.705  0.00  0.00    +0.157 HD
BRANCH  13  16
ATOM     16  N   UNL     1      34.214 -14.490 -23.537  0.00  0.00    -0.114 NA
BRANCH  16  17
ATOM     17  O   UNL     1      33.052 -13.774 -23.860  0.00  0.00    -0.232 OA
ATOM     18  C   UNL     1      32.379 -13.457 -22.651  0.00  0.00    +0.211 C 
ENDBRANCH  16  17
ENDBRANCH  13  16
ENDBRANCH   9  13
ENDBRANCH   2   6
BRANCH   3  19
ATOM     19  C   UNL     1      34.534 -22.135 -18.182  0.00  0.00    +0.035 C 
ATOM     20  C   UNL     1      35.063 -22.642 -16.990  0.00  0.00    +0.003 C 
ATOM     21  C   UNL     1      33.163 -22.249 -18.431  0.00  0.00    +0.003 C 
ATOM     22  C   UNL     1      32.860 -23.367 -16.310  0.00  0.00    +0.036 C 
ATOM     23  C   UNL     1      34.227 -23.256 -16.057  0.00  0.00    +0.003 C 
ATOM     24  C   UNL     1      32.328 -22.862 -17.497  0.00  0.00    +0.003 C 
BRANCH  22  26
ATOM     25  N   UNL     1      32.539 -24.573 -14.180  0.00  0.00    -0.381 N 
ATOM     26  C   UNL     1      31.990 -24.007 -15.337  0.00  0.00    +0.160 C 
ATOM     27  H   UNL     1      31.954 -25.007 -13.519  0.00  0.00    +0.157 HD
ATOM     28  H   UNL     1      33.511 -24.537 -14.028  0.00  0.00    +0.157 HD
BRANCH  26  29
ATOM     29  N   UNL     1      30.687 -24.038 -15.581  0.00  0.00    -0.114 NA
BRANCH  29  30
ATOM     30  O   UNL     1      29.990 -23.061 -14.855  0.00  0.00    -0.232 OA
ATOM     31  C   UNL     1      28.846 -22.686 -15.609  0.00  0.00    +0.211 C 
ENDBRANCH  29  30
ENDBRANCH  26  29
ENDBRANCH  22  26
ENDBRANCH   3  19
TORSDOF 8
ENDMDL
