MODEL 1
REMARK VINA RESULT:      -6.6      0.000      0.000
REMARK  Name = 4100
REMARK  3 active torsions:
REMARK  status: ('A' for Active; 'I' for Inactive)
REMARK    1  A    between atoms: N_4  and  C_15
REMARK    2  A    between atoms: C_5  and  S_8
REMARK    3  A    between atoms: S_8  and  N_11
REMARK                            x       y       z     vdW  Elec       q    Type
REMARK                         _______ _______ _______ _____ _____    ______ ____
ROOT
ATOM      1  S   UNL     1      33.483 -23.453 -16.568  0.00  0.00    -0.011 S 
ATOM      2  N   UNL     1      35.841 -22.688 -15.933  0.00  0.00    -0.227 N 
ATOM      3  N   UNL     1      35.327 -23.109 -14.734  0.00  0.00    -0.141 NA
ATOM      4  N   UNL     1      35.224 -22.405 -18.266  0.00  0.00    -0.154 NA
ATOM      5  C   UNL     1      34.118 -23.529 -14.940  0.00  0.00    +0.254 A 
ATOM      6  C   UNL     1      35.028 -22.753 -17.043  0.00  0.00    +0.186 A 
ATOM      7  C   UNL     1      37.182 -22.147 -15.923  0.00  0.00    +0.156 C 
ENDROOT
BRANCH   5   8
ATOM      8  S   UNL     1      33.199 -24.136 -13.604  0.00  0.00    +0.081 S 
ATOM      9  O   UNL     1      32.348 -25.172 -14.159  0.00  0.00    -0.151 OA
ATOM     10  O   UNL     1      34.170 -24.421 -12.564  0.00  0.00    -0.151 OA
BRANCH   8  11
ATOM     11  N   UNL     1      32.242 -22.801 -13.136  0.00  0.00    -0.202 NA
ATOM     12  H   UNL     1      31.478 -22.681 -13.802  0.00  0.00    +0.144 HD
ATOM     13  H   UNL     1      32.817 -21.960 -13.122  0.00  0.00    +0.144 HD
ENDBRANCH   8  11
ENDBRANCH   5   8
BRANCH   4  15
ATOM     14  O   UNL     1      33.846 -23.670 -19.661  0.00  0.00    -0.273 OA
ATOM     15  C   UNL     1      34.194 -22.602 -19.161  0.00  0.00    +0.248 C 
ATOM     16  C   UNL     1      33.476 -21.322 -19.498  0.00  0.00    +0.097 C 
ENDBRANCH   4  15
TORSDOF 3
ENDMDL
MODEL 2
REMARK VINA RESULT:      -6.6      2.863      4.317
REMARK  Name = 4100
REMARK  3 active torsions:
REMARK  status: ('A' for Active; 'I' for Inactive)
REMARK    1  A    between atoms: N_4  and  C_15
REMARK    2  A    between atoms: C_5  and  S_8
REMARK    3  A    between atoms: S_8  and  N_11
REMARK                            x       y       z     vdW  Elec       q    Type
REMARK                         _______ _______ _______ _____ _____    ______ ____
ROOT
ATOM      1  S   UNL     1      32.900 -23.525 -15.274  0.00  0.00    -0.011 S 
ATOM      2  N   UNL     1      33.371 -22.876 -17.704  0.00  0.00    -0.227 N 
ATOM      3  N   UNL     1      32.004 -22.799 -17.630  0.00  0.00    -0.141 NA
ATOM      4  N   UNL     1      35.312 -23.460 -16.365  0.00  0.00    -0.154 NA
ATOM      5  C   UNL     1      31.648 -23.108 -16.423  0.00  0.00    +0.254 A 
ATOM      6  C   UNL     1      34.057 -23.270 -16.577  0.00  0.00    +0.186 A 
ATOM      7  C   UNL     1      33.979 -22.598 -18.985  0.00  0.00    +0.156 C 
ENDROOT
BRANCH   5   8
ATOM      8  S   UNL     1      29.966 -23.095 -16.011  0.00  0.00    +0.081 S 
ATOM      9  O   UNL     1      29.905 -22.594 -14.651  0.00  0.00    -0.151 OA
ATOM     10  O   UNL     1      29.305 -22.411 -17.107  0.00  0.00    -0.151 OA
BRANCH   8  11
ATOM     11  N   UNL     1      29.536 -24.747 -16.030  0.00  0.00    -0.202 NA
ATOM     12  H   UNL     1      29.250 -25.013 -16.972  0.00  0.00    +0.144 HD
ATOM     13  H   UNL     1      28.765 -24.905 -15.383  0.00  0.00    +0.144 HD
ENDBRANCH   8  11
ENDBRANCH   5   8
BRANCH   4  15
ATOM     14  O   UNL     1      35.856 -23.142 -14.118  0.00  0.00    -0.273 OA
ATOM     15  C   UNL     1      35.695 -23.861 -15.102  0.00  0.00    +0.248 C 
ATOM     16  C   UNL     1      35.910 -25.349 -15.014  0.00  0.00    +0.097 C 
ENDBRANCH   4  15
TORSDOF 3
ENDMDL
MODEL 3
REMARK VINA RESULT:      -6.6      2.704      4.714
REMARK  Name = 4100
REMARK  3 active torsions:
REMARK  status: ('A' for Active; 'I' for Inactive)
REMARK    1  A    between atoms: N_4  and  C_15
REMARK    2  A    between atoms: C_5  and  S_8
REMARK    3  A    between atoms: S_8  and  N_11
REMARK                            x       y       z     vdW  Elec       q    Type
REMARK                         _______ _______ _______ _____ _____    ______ ____
ROOT
ATOM      1  S   UNL     1      34.489 -24.031 -14.103  0.00  0.00    -0.011 S 
ATOM      2  N   UNL     1      34.189 -23.310 -16.540  0.00  0.00    -0.227 N 
ATOM      3  N   UNL     1      35.550 -23.426 -16.425  0.00  0.00    -0.141 NA
ATOM      4  N   UNL     1      32.152 -23.496 -15.228  0.00  0.00    -0.154 NA
ATOM      5  C   UNL     1      35.821 -23.796 -15.213  0.00  0.00    +0.254 A 
ATOM      6  C   UNL     1      33.423 -23.557 -15.422  0.00  0.00    +0.186 A 
ATOM      7  C   UNL     1      33.670 -22.873 -17.816  0.00  0.00    +0.156 C 
ENDROOT
BRANCH   5   8
ATOM      8  S   UNL     1      37.474 -24.036 -14.754  0.00  0.00    +0.081 S 
ATOM      9  O   UNL     1      37.637 -23.319 -13.504  0.00  0.00    -0.151 OA
ATOM     10  O   UNL     1      37.698 -25.467 -14.849  0.00  0.00    -0.151 OA
BRANCH   8  11
ATOM     11  N   UNL     1      38.350 -23.242 -15.986  0.00  0.00    -0.202 NA
ATOM     12  H   UNL     1      39.057 -22.639 -15.566  0.00  0.00    +0.144 HD
ATOM     13  H   UNL     1      37.712 -22.678 -16.547  0.00  0.00    +0.144 HD
ENDBRANCH   8  11
ENDBRANCH   5   8
BRANCH   4  15
ATOM     14  O   UNL     1      31.748 -23.113 -12.962  0.00  0.00    -0.273 OA
ATOM     15  C   UNL     1      31.681 -23.811 -13.972  0.00  0.00    +0.248 C 
ATOM     16  C   UNL     1      31.028 -25.168 -13.929  0.00  0.00    +0.097 C 
ENDBRANCH   4  15
TORSDOF 3
ENDMDL
MODEL 4
REMARK VINA RESULT:      -6.6      2.899      4.386
REMARK  Name = 4100
REMARK  3 active torsions:
REMARK  status: ('A' for Active; 'I' for Inactive)
REMARK    1  A    between atoms: N_4  and  C_15
REMARK    2  A    between atoms: C_5  and  S_8
REMARK    3  A    between atoms: S_8  and  N_11
REMARK                            x       y       z     vdW  Elec       q    Type
REMARK                         _______ _______ _______ _____ _____    ______ ____
ROOT
ATOM      1  S   UNL     1      34.619 -24.229 -12.804  0.00  0.00    -0.011 S 
ATOM      2  N   UNL     1      35.670 -23.233 -14.914  0.00  0.00    -0.227 N 
ATOM      3  N   UNL     1      36.724 -23.262 -14.038  0.00  0.00    -0.141 NA
ATOM      4  N   UNL     1      33.295 -23.731 -15.042  0.00  0.00    -0.154 NA
ATOM      5  C   UNL     1      36.301 -23.760 -12.918  0.00  0.00    +0.254 A 
ATOM      6  C   UNL     1      34.445 -23.674 -14.466  0.00  0.00    +0.186 A 
ATOM      7  C   UNL     1      35.918 -22.680 -16.226  0.00  0.00    +0.156 C 
ENDROOT
BRANCH   5   8
ATOM      8  S   UNL     1      37.413 -23.933 -11.600  0.00  0.00    +0.081 S 
ATOM      9  O   UNL     1      37.997 -25.251 -11.758  0.00  0.00    -0.151 OA
ATOM     10  O   UNL     1      38.225 -22.730 -11.620  0.00  0.00    -0.151 OA
BRANCH   8  11
ATOM     11  N   UNL     1      36.405 -23.916 -10.222  0.00  0.00    -0.202 NA
ATOM     12  H   UNL     1      35.547 -23.408 -10.434  0.00  0.00    +0.144 HD
ATOM     13  H   UNL     1      36.892 -23.457  -9.452  0.00  0.00    +0.144 HD
ENDBRANCH   8  11
ENDBRANCH   5   8
BRANCH   4  15
ATOM     14  O   UNL     1      31.998 -25.418 -14.085  0.00  0.00    -0.273 OA
ATOM     15  C   UNL     1      32.238 -24.235 -14.314  0.00  0.00    +0.248 C 
ATOM     16  C   UNL     1      31.342 -23.148 -13.780  0.00  0.00    +0.097 C 
ENDBRANCH   4  15
TORSDOF 3
ENDMDL
MODEL 5
REMARK VINA RESULT:      -6.5      1.890      2.218
REMARK  Name = 4100
REMARK  3 active torsions:
REMARK  status: ('A' for Active; 'I' for Inactive)
REMARK    1  A    between atoms: N_4  and  C_15
REMARK    2  A    between atoms: C_5  and  S_8
REMARK    3  A    between atoms: S_8  and  N_11
REMARK                            x       y       z     vdW  Elec       q    Type
REMARK                         _______ _______ _______ _____ _____    ______ ____
ROOT
ATOM      1  S   UNL     1      32.293 -23.397 -16.808  0.00  0.00    -0.011 S 
ATOM      2  N   UNL     1      34.371 -23.207 -15.326  0.00  0.00    -0.227 N 
ATOM      3  N   UNL     1      33.371 -23.439 -14.417  0.00  0.00    -0.141 NA
ATOM      4  N   UNL     1      34.729 -22.878 -17.707  0.00  0.00    -0.154 NA
ATOM      5  C   UNL     1      32.256 -23.558 -15.066  0.00  0.00    +0.254 A 
ATOM      6  C   UNL     1      34.024 -23.117 -16.657  0.00  0.00    +0.186 A 
ATOM      7  C   UNL     1      35.704 -23.011 -14.805  0.00  0.00    +0.156 C 
ENDROOT
BRANCH   5   8
ATOM      8  S   UNL     1      30.797 -23.866 -14.185  0.00  0.00    +0.081 S 
ATOM      9  O   UNL     1      31.112 -23.570 -12.800  0.00  0.00    -0.151 OA
ATOM     10  O   UNL     1      29.755 -23.153 -14.901  0.00  0.00    -0.151 OA
BRANCH   8  11
ATOM     11  N   UNL     1      30.565 -25.548 -14.371  0.00  0.00    -0.202 NA
ATOM     12  H   UNL     1      29.655 -25.720 -14.798  0.00  0.00    +0.144 HD
ATOM     13  H   UNL     1      30.603 -25.998 -13.457  0.00  0.00    +0.144 HD
ENDBRANCH   8  11
ENDBRANCH   5   8
BRANCH   4  15
ATOM     14  O   UNL     1      33.833 -23.817 -19.646  0.00  0.00    -0.273 OA
ATOM     15  C   UNL     1      34.078 -22.854 -18.922  0.00  0.00    +0.248 C 
ATOM     16  C   UNL     1      33.658 -21.463 -19.319  0.00  0.00    +0.097 C 
ENDBRANCH   4  15
TORSDOF 3
ENDMDL
MODEL 6
REMARK VINA RESULT:      -6.5      2.592      5.096
REMARK  Name = 4100
REMARK  3 active torsions:
REMARK  status: ('A' for Active; 'I' for Inactive)
REMARK    1  A    between atoms: N_4  and  C_15
REMARK    2  A    between atoms: C_5  and  S_8
REMARK    3  A    between atoms: S_8  and  N_11
REMARK                            x       y       z     vdW  Elec       q    Type
REMARK                         _______ _______ _______ _____ _____    ______ ____
ROOT
ATOM      1  S   UNL     1      32.033 -23.156 -16.773  0.00  0.00    -0.011 S 
ATOM      2  N   UNL     1      33.998 -23.736 -15.238  0.00  0.00    -0.227 N 
ATOM      3  N   UNL     1      34.617 -23.452 -16.427  0.00  0.00    -0.141 NA
ATOM      4  N   UNL     1      31.786 -23.910 -14.246  0.00  0.00    -0.154 NA
ATOM      5  C   UNL     1      33.704 -23.136 -17.291  0.00  0.00    +0.254 A 
ATOM      6  C   UNL     1      32.622 -23.670 -15.195  0.00  0.00    +0.186 A 
ATOM      7  C   UNL     1      34.839 -24.146 -14.137  0.00  0.00    +0.156 C 
ENDROOT
BRANCH   5   8
ATOM      8  S   UNL     1      34.179 -22.715 -18.903  0.00  0.00    +0.081 S 
ATOM      9  O   UNL     1      35.511 -22.153 -18.780  0.00  0.00    -0.151 OA
ATOM     10  O   UNL     1      33.920 -23.898 -19.703  0.00  0.00    -0.151 OA
BRANCH   8  11
ATOM     11  N   UNL     1      33.078 -21.484 -19.336  0.00  0.00    -0.202 NA
ATOM     12  H   UNL     1      33.233 -21.215 -20.308  0.00  0.00    +0.144 HD
ATOM     13  H   UNL     1      33.221 -20.674 -18.733  0.00  0.00    +0.144 HD
ENDBRANCH   8  11
ENDBRANCH   5   8
BRANCH   4  15
ATOM     14  O   UNL     1      29.832 -22.686 -14.607  0.00  0.00    -0.273 OA
ATOM     15  C   UNL     1      30.444 -23.749 -14.520  0.00  0.00    +0.248 C 
ATOM     16  C   UNL     1      29.739 -25.064 -14.722  0.00  0.00    +0.097 C 
ENDBRANCH   4  15
TORSDOF 3
ENDMDL
MODEL 7
REMARK VINA RESULT:      -6.4      8.871     10.838
REMARK  Name = 4100
REMARK  3 active torsions:
REMARK  status: ('A' for Active; 'I' for Inactive)
REMARK    1  A    between atoms: N_4  and  C_15
REMARK    2  A    between atoms: C_5  and  S_8
REMARK    3  A    between atoms: S_8  and  N_11
REMARK                            x       y       z     vdW  Elec       q    Type
REMARK                         _______ _______ _______ _____ _____    ______ ____
ROOT
ATOM      1  S   UNL     1      34.260 -16.302 -24.390  0.00  0.00    -0.011 S 
ATOM      2  N   UNL     1      33.172 -14.732 -22.688  0.00  0.00    -0.227 N 
ATOM      3  N   UNL     1      33.727 -15.701 -21.893  0.00  0.00    -0.141 NA
ATOM      4  N   UNL     1      32.871 -14.138 -25.025  0.00  0.00    -0.154 NA
ATOM      5  C   UNL     1      34.318 -16.561 -22.661  0.00  0.00    +0.254 A 
ATOM      6  C   UNL     1      33.306 -14.861 -24.052  0.00  0.00    +0.186 A 
ATOM      7  C   UNL     1      32.431 -13.681 -22.027  0.00  0.00    +0.156 C 
ENDROOT
BRANCH   5   8
ATOM      8  S   UNL     1      35.127 -17.915 -21.944  0.00  0.00    +0.081 S 
ATOM      9  O   UNL     1      35.480 -17.488 -20.603  0.00  0.00    -0.151 OA
ATOM     10  O   UNL     1      34.257 -19.053 -22.178  0.00  0.00    -0.151 OA
BRANCH   8  11
ATOM     11  N   UNL     1      36.543 -18.078 -22.883  0.00  0.00    -0.202 NA
ATOM     12  H   UNL     1      36.535 -18.982 -23.355  0.00  0.00    +0.144 HD
ATOM     13  H   UNL     1      37.361 -18.018 -22.277  0.00  0.00    +0.144 HD
ENDBRANCH   8  11
ENDBRANCH   5   8
BRANCH   4  15
ATOM     14  O   UNL     1      33.171 -15.687 -26.745  0.00  0.00    -0.273 OA
ATOM     15  C   UNL     1      33.181 -14.538 -26.308  0.00  0.00    +0.248 C 
ATOM     16  C   UNL     1      33.554 -13.379 -27.194  0.00  0.00    +0.097 C 
ENDBRANCH   4  15
TORSDOF 3
ENDMDL
MODEL 8
REMARK VINA RESULT:      -6.3      2.650      4.010
REMARK  Name = 4100
REMARK  3 active torsions:
REMARK  status: ('A' for Active; 'I' for Inactive)
REMARK    1  A    between atoms: N_4  and  C_15
REMARK    2  A    between atoms: C_5  and  S_8
REMARK    3  A    between atoms: S_8  and  N_11
REMARK                            x       y       z     vdW  Elec       q    Type
REMARK                         _______ _______ _______ _____ _____    ______ ____
ROOT
ATOM      1  S   UNL     1      33.672 -24.024 -14.321  0.00  0.00    -0.011 S 
ATOM      2  N   UNL     1      33.360 -23.292 -16.754  0.00  0.00    -0.227 N 
ATOM      3  N   UNL     1      32.075 -23.311 -16.277  0.00  0.00    -0.141 NA
ATOM      4  N   UNL     1      35.643 -23.767 -16.071  0.00  0.00    -0.154 NA
ATOM      5  C   UNL     1      32.113 -23.671 -15.033  0.00  0.00    +0.254 A 
ATOM      6  C   UNL     1      34.373 -23.661 -15.895  0.00  0.00    +0.186 A 
ATOM      7  C   UNL     1      33.544 -22.944 -18.144  0.00  0.00    +0.156 C 
ENDROOT
BRANCH   5   8
ATOM      8  S   UNL     1      30.631 -23.784 -14.143  0.00  0.00    +0.081 S 
ATOM      9  O   UNL     1      31.002 -23.618 -12.751  0.00  0.00    -0.151 OA
ATOM     10  O   UNL     1      29.713 -22.874 -14.803  0.00  0.00    -0.151 OA
BRANCH   8  11
ATOM     11  N   UNL     1      30.126 -25.393 -14.411  0.00  0.00    -0.202 NA
ATOM     12  H   UNL     1      30.924 -26.021 -14.313  0.00  0.00    +0.144 HD
ATOM     13  H   UNL     1      29.740 -25.476 -15.351  0.00  0.00    +0.144 HD
ENDBRANCH   8  11
ENDBRANCH   5   8
BRANCH   4  15
ATOM     14  O   UNL     1      36.860 -23.450 -14.105  0.00  0.00    -0.273 OA
ATOM     15  C   UNL     1      36.407 -24.167 -14.994  0.00  0.00    +0.248 C 
ATOM     16  C   UNL     1      36.655 -25.653 -14.989  0.00  0.00    +0.097 C 
ENDBRANCH   4  15
TORSDOF 3
ENDMDL
MODEL 9
REMARK VINA RESULT:      -6.3      7.133      9.599
REMARK  Name = 4100
REMARK  3 active torsions:
REMARK  status: ('A' for Active; 'I' for Inactive)
REMARK    1  A    between atoms: N_4  and  C_15
REMARK    2  A    between atoms: C_5  and  S_8
REMARK    3  A    between atoms: S_8  and  N_11
REMARK                            x       y       z     vdW  Elec       q    Type
REMARK                         _______ _______ _______ _____ _____    ______ ____
ROOT
ATOM      1  S   UNL     1      34.569 -17.330 -21.173  0.00  0.00    -0.011 S 
ATOM      2  N   UNL     1      34.561 -17.941 -23.658  0.00  0.00    -0.227 N 
ATOM      3  N   UNL     1      34.291 -16.597 -23.677  0.00  0.00    -0.141 NA
ATOM      4  N   UNL     1      34.944 -19.777 -22.113  0.00  0.00    -0.154 NA
ATOM      5  C   UNL     1      34.274 -16.173 -22.452  0.00  0.00    +0.254 A 
ATOM      6  C   UNL     1      34.720 -18.551 -22.433  0.00  0.00    +0.186 A 
ATOM      7  C   UNL     1      34.595 -18.625 -24.930  0.00  0.00    +0.156 C 
ENDROOT
BRANCH   5   8
ATOM      8  S   UNL     1      33.961 -14.498 -22.145  0.00  0.00    +0.081 S 
ATOM      9  O   UNL     1      34.603 -14.210 -20.876  0.00  0.00    -0.151 OA
ATOM     10  O   UNL     1      34.334 -13.805 -23.364  0.00  0.00    -0.151 OA
BRANCH   8  11
ATOM     11  N   UNL     1      32.265 -14.435 -21.953  0.00  0.00    -0.202 NA
ATOM     12  H   UNL     1      31.859 -13.869 -22.698  0.00  0.00    +0.144 HD
ATOM     13  H   UNL     1      32.041 -14.020 -21.049  0.00  0.00    +0.144 HD
ENDBRANCH   8  11
ENDBRANCH   5   8
BRANCH   4  15
ATOM     14  O   UNL     1      36.062 -19.971 -20.074  0.00  0.00    -0.273 OA
ATOM     15  C   UNL     1      35.056 -20.078 -20.772  0.00  0.00    +0.248 C 
ATOM     16  C   UNL     1      33.761 -20.579 -20.187  0.00  0.00    +0.097 C 
ENDBRANCH   4  15
TORSDOF 3
ENDMDL
