MODEL 1
REMARK VINA RESULT:     -11.5      0.000      0.000
REMARK  Name = 447546
REMARK  10 active torsions:
REMARK  status: ('A' for Active; 'I' for Inactive)
REMARK    1  A    between atoms: N_1  and  C_23
REMARK    2  A    between atoms: C_8  and  N_11
REMARK    3  A    between atoms: N_12  and  C_16
REMARK    4  A    between atoms: C_16  and  C_17
REMARK    5  A    between atoms: C_23  and  C_24
REMARK    6  A    between atoms: C_24  and  C_25
REMARK    7  A    between atoms: C_25  and  N_26
REMARK    8  A    between atoms: C_25  and  C_36
REMARK    9  A    between atoms: C_30  and  C_33
REMARK   10  A    between atoms: C_36  and  O_37
REMARK                            x       y       z     vdW  Elec       q    Type
REMARK                         _______ _______ _______ _____ _____    ______ ____
ROOT
ATOM      1  N   UNL     1      33.916 -23.712 -15.531  0.00  0.00    -0.286 N 
ATOM      2  C   UNL     1      34.963 -23.093 -16.177  0.00  0.00    +0.053 C 
ATOM      3  C   UNL     1      36.115 -23.352 -15.430  0.00  0.00    +0.015 C 
ATOM      4  C   UNL     1      34.365 -24.351 -14.406  0.00  0.00    +0.065 C 
ATOM      5  C   UNL     1      35.722 -24.146 -14.317  0.00  0.00    +0.017 C 
ATOM      6  C   UNL     1      34.978 -22.333 -17.351  0.00  0.00    +0.030 C 
ATOM      7  C   UNL     1      37.344 -22.826 -15.876  0.00  0.00    +0.003 C 
ATOM      8  C   UNL     1      36.210 -21.822 -17.774  0.00  0.00    +0.053 C 
ATOM      9  C   UNL     1      37.375 -22.065 -17.050  0.00  0.00    +0.015 C 
ENDROOT
BRANCH   8  11
ATOM     10  O   UNL     1      34.126 -21.318 -19.874  0.00  0.00    -0.252 OA
ATOM     11  N   UNL     1      36.270 -21.060 -18.942  0.00  0.00    -0.268 N 
ATOM     12  N   UNL     1      35.720 -20.019 -20.932  0.00  0.00    -0.285 N 
ATOM     13  C   UNL     1      35.262 -20.850 -19.904  0.00  0.00    +0.305 C 
ATOM     14  H   UNL     1      37.128 -20.610 -19.116  0.00  0.00    +0.156 HD
ATOM     15  H   UNL     1      36.643 -19.682 -20.887  0.00  0.00    +0.151 HD
BRANCH  12  16
ATOM     16  C   UNL     1      34.900 -19.632 -22.057  0.00  0.00    +0.118 C 
BRANCH  16  17
ATOM     17  C   UNL     1      34.825 -18.140 -22.211  0.00  0.00    -0.003 C 
ATOM     18  C   UNL     1      34.720 -17.327 -21.084  0.00  0.00    -0.003 C 
ATOM     19  C   UNL     1      34.861 -17.568 -23.483  0.00  0.00    -0.003 C 
ATOM     20  C   UNL     1      34.650 -15.941 -21.227  0.00  0.00    -0.000 C 
ATOM     21  C   UNL     1      34.791 -16.182 -23.626  0.00  0.00    -0.000 C 
ATOM     22  C   UNL     1      34.686 -15.369 -22.498  0.00  0.00    -0.000 C 
ENDBRANCH  16  17
ENDBRANCH  12  16
ENDBRANCH   8  11
BRANCH   1  23
ATOM     23  C   UNL     1      32.535 -23.697 -15.964  0.00  0.00    +0.097 C 
BRANCH  23  24
ATOM     24  C   UNL     1      31.611 -22.827 -15.100  0.00  0.00    +0.040 C 
BRANCH  24  25
ATOM     25  C   UNL     1      30.299 -23.508 -14.652  0.00  0.00    +0.091 C 
BRANCH  25  26
ATOM     26  N   UNL     1      29.224 -23.433 -15.656  0.00  0.00    -0.246 NA
ATOM     27  N   UNL     1      27.824 -23.904 -17.314  0.00  0.00    -0.251 NA
ATOM     28  C   UNL     1      28.357 -22.388 -15.852  0.00  0.00    +0.125 C 
ATOM     29  C   UNL     1      28.876 -24.330 -16.553  0.00  0.00    +0.201 C 
ATOM     30  C   UNL     1      27.478 -22.657 -16.876  0.00  0.00    +0.124 C 
BRANCH  30  33
ATOM     31  O   UNL     1      25.578 -21.263 -16.694  0.00  0.00    -0.269 OA
ATOM     32  N   UNL     1      26.349 -21.701 -18.793  0.00  0.00    -0.324 N 
ATOM     33  C   UNL     1      26.426 -21.855 -17.404  0.00  0.00    +0.257 C 
ATOM     34  H   UNL     1      25.634 -21.153 -19.189  0.00  0.00    +0.145 HD
ATOM     35  H   UNL     1      27.011 -22.141 -19.375  0.00  0.00    +0.145 HD
ENDBRANCH  30  33
ENDBRANCH  25  26
BRANCH  25  36
ATOM     36  C   UNL     1      30.557 -24.970 -14.250  0.00  0.00    +0.153 C 
BRANCH  36  37
ATOM     37  O   UNL     1      30.791 -25.047 -12.848  0.00  0.00    -0.381 OA
ATOM     38  H   UNL     1      30.088 -24.573 -12.378  0.00  0.00    +0.210 HD
ENDBRANCH  36  37
ENDBRANCH  25  36
ENDBRANCH  24  25
ENDBRANCH  23  24
ENDBRANCH   1  23
TORSDOF 10
ENDMDL
MODEL 2
REMARK VINA RESULT:     -11.3      5.918     10.855
REMARK  Name = 447546
REMARK  10 active torsions:
REMARK  status: ('A' for Active; 'I' for Inactive)
REMARK    1  A    between atoms: N_1  and  C_23
REMARK    2  A    between atoms: C_8  and  N_11
REMARK    3  A    between atoms: N_12  and  C_16
REMARK    4  A    between atoms: C_16  and  C_17
REMARK    5  A    between atoms: C_23  and  C_24
REMARK    6  A    between atoms: C_24  and  C_25
REMARK    7  A    between atoms: C_25  and  N_26
REMARK    8  A    between atoms: C_25  and  C_36
REMARK    9  A    between atoms: C_30  and  C_33
REMARK   10  A    between atoms: C_36  and  O_37
REMARK                            x       y       z     vdW  Elec       q    Type
REMARK                         _______ _______ _______ _____ _____    ______ ____
ROOT
ATOM      1  N   UNL     1      34.541 -16.408 -23.414  0.00  0.00    -0.286 N 
ATOM      2  C   UNL     1      34.098 -15.272 -24.053  0.00  0.00    +0.053 C 
ATOM      3  C   UNL     1      33.758 -15.642 -25.357  0.00  0.00    +0.015 C 
ATOM      4  C   UNL     1      34.492 -17.480 -24.265  0.00  0.00    +0.065 C 
ATOM      5  C   UNL     1      34.012 -17.037 -25.475  0.00  0.00    +0.017 C 
ATOM      6  C   UNL     1      33.974 -13.960 -23.583  0.00  0.00    +0.030 C 
ATOM      7  C   UNL     1      33.271 -14.655 -26.236  0.00  0.00    +0.003 C 
ATOM      8  C   UNL     1      33.488 -12.998 -24.474  0.00  0.00    +0.053 C 
ATOM      9  C   UNL     1      33.140 -13.338 -25.780  0.00  0.00    +0.015 C 
ENDROOT
BRANCH   8  11
ATOM     10  O   UNL     1      35.126 -10.564 -25.104  0.00  0.00    -0.252 OA
ATOM     11  N   UNL     1      33.346 -11.678 -24.045  0.00  0.00    -0.268 N 
ATOM     12  N   UNL     1      33.667  -9.409 -23.731  0.00  0.00    -0.285 N 
ATOM     13  C   UNL     1      34.142 -10.561 -24.368  0.00  0.00    +0.305 C 
ATOM     14  H   UNL     1      32.591 -11.504 -23.438  0.00  0.00    +0.156 HD
ATOM     15  H   UNL     1      32.873  -9.485 -23.156  0.00  0.00    +0.151 HD
BRANCH  12  16
ATOM     16  C   UNL     1      34.289  -8.113 -23.879  0.00  0.00    +0.118 C 
BRANCH  16  17
ATOM     17  C   UNL     1      33.317  -6.994 -23.643  0.00  0.00    -0.003 C 
ATOM     18  C   UNL     1      32.989  -6.123 -24.681  0.00  0.00    -0.003 C 
ATOM     19  C   UNL     1      32.741  -6.825 -22.383  0.00  0.00    -0.003 C 
ATOM     20  C   UNL     1      32.086  -5.083 -24.460  0.00  0.00    -0.000 C 
ATOM     21  C   UNL     1      31.838  -5.785 -22.162  0.00  0.00    -0.000 C 
ATOM     22  C   UNL     1      31.511  -4.914 -23.202  0.00  0.00    -0.000 C 
ENDBRANCH  16  17
ENDBRANCH  12  16
ENDBRANCH   8  11
BRANCH   1  23
ATOM     23  C   UNL     1      34.997 -16.477 -22.042  0.00  0.00    +0.097 C 
BRANCH  23  24
ATOM     24  C   UNL     1      34.789 -17.844 -21.375  0.00  0.00    +0.040 C 
BRANCH  24  25
ATOM     25  C   UNL     1      36.086 -18.616 -21.044  0.00  0.00    +0.091 C 
BRANCH  25  26
ATOM     26  N   UNL     1      35.851 -19.883 -20.330  0.00  0.00    -0.246 NA
ATOM     27  N   UNL     1      36.117 -21.721 -19.115  0.00  0.00    -0.251 NA
ATOM     28  C   UNL     1      34.666 -20.571 -20.250  0.00  0.00    +0.125 C 
ATOM     29  C   UNL     1      36.704 -20.603 -19.636  0.00  0.00    +0.201 C 
ATOM     30  C   UNL     1      34.806 -21.715 -19.500  0.00  0.00    +0.124 C 
BRANCH  30  33
ATOM     31  O   UNL     1      33.958 -23.921 -19.458  0.00  0.00    -0.269 OA
ATOM     32  N   UNL     1      32.701 -22.305 -18.458  0.00  0.00    -0.324 N 
ATOM     33  C   UNL     1      33.839 -22.707 -19.168  0.00  0.00    +0.257 C 
ATOM     34  H   UNL     1      32.014 -22.965 -18.214  0.00  0.00    +0.145 HD
ATOM     35  H   UNL     1      32.588 -21.360 -18.203  0.00  0.00    +0.145 HD
ENDBRANCH  30  33
ENDBRANCH  25  26
BRANCH  25  36
ATOM     36  C   UNL     1      36.909 -18.863 -22.320  0.00  0.00    +0.153 C 
BRANCH  36  37
ATOM     37  O   UNL     1      38.280 -18.578 -22.069  0.00  0.00    -0.381 OA
ATOM     38  H   UNL     1      38.790 -19.402 -22.091  0.00  0.00    +0.210 HD
ENDBRANCH  36  37
ENDBRANCH  25  36
ENDBRANCH  24  25
ENDBRANCH  23  24
ENDBRANCH   1  23
TORSDOF 10
ENDMDL
MODEL 3
REMARK VINA RESULT:     -11.2      7.202     13.046
REMARK  Name = 447546
REMARK  10 active torsions:
REMARK  status: ('A' for Active; 'I' for Inactive)
REMARK    1  A    between atoms: N_1  and  C_23
REMARK    2  A    between atoms: C_8  and  N_11
REMARK    3  A    between atoms: N_12  and  C_16
REMARK    4  A    between atoms: C_16  and  C_17
REMARK    5  A    between atoms: C_23  and  C_24
REMARK    6  A    between atoms: C_24  and  C_25
REMARK    7  A    between atoms: C_25  and  N_26
REMARK    8  A    between atoms: C_25  and  C_36
REMARK    9  A    between atoms: C_30  and  C_33
REMARK   10  A    between atoms: C_36  and  O_37
REMARK                            x       y       z     vdW  Elec       q    Type
REMARK                         _______ _______ _______ _____ _____    ______ ____
ROOT
ATOM      1  N   UNL     1      33.690 -12.223 -24.980  0.00  0.00    -0.286 N 
ATOM      2  C   UNL     1      33.834 -13.575 -24.764  0.00  0.00    +0.053 C 
ATOM      3  C   UNL     1      33.487 -14.220 -25.954  0.00  0.00    +0.015 C 
ATOM      4  C   UNL     1      33.266 -11.992 -26.262  0.00  0.00    +0.065 C 
ATOM      5  C   UNL     1      33.132 -13.208 -26.889  0.00  0.00    +0.017 C 
ATOM      6  C   UNL     1      34.240 -14.269 -23.618  0.00  0.00    +0.030 C 
ATOM      7  C   UNL     1      33.547 -15.627 -26.004  0.00  0.00    +0.003 C 
ATOM      8  C   UNL     1      34.292 -15.664 -23.693  0.00  0.00    +0.053 C 
ATOM      9  C   UNL     1      33.953 -16.334 -24.867  0.00  0.00    +0.015 C 
ENDROOT
BRANCH   8  11
ATOM     10  O   UNL     1      35.817 -18.242 -23.500  0.00  0.00    -0.252 OA
ATOM     11  N   UNL     1      34.695 -16.394 -22.574  0.00  0.00    -0.268 N 
ATOM     12  N   UNL     1      35.619 -18.015 -21.207  0.00  0.00    -0.285 N 
ATOM     13  C   UNL     1      35.413 -17.606 -22.530  0.00  0.00    +0.305 C 
ATOM     14  H   UNL     1      34.445 -16.012 -21.701  0.00  0.00    +0.156 HD
ATOM     15  H   UNL     1      35.266 -17.452 -20.482  0.00  0.00    +0.151 HD
BRANCH  12  16
ATOM     16  C   UNL     1      36.328 -19.224 -20.858  0.00  0.00    +0.118 C 
BRANCH  16  17
ATOM     17  C   UNL     1      35.422 -20.245 -20.231  0.00  0.00    -0.003 C 
ATOM     18  C   UNL     1      35.956 -21.254 -19.431  0.00  0.00    -0.003 C 
ATOM     19  C   UNL     1      34.045 -20.183 -20.450  0.00  0.00    -0.003 C 
ATOM     20  C   UNL     1      35.114 -22.201 -18.849  0.00  0.00    -0.000 C 
ATOM     21  C   UNL     1      33.204 -21.131 -19.868  0.00  0.00    -0.000 C 
ATOM     22  C   UNL     1      33.738 -22.140 -19.068  0.00  0.00    -0.000 C 
ENDBRANCH  16  17
ENDBRANCH  12  16
ENDBRANCH   8  11
BRANCH   1  23
ATOM     23  C   UNL     1      33.944 -11.183 -24.006  0.00  0.00    +0.097 C 
BRANCH  23  24
ATOM     24  C   UNL     1      32.806 -10.163 -23.859  0.00  0.00    +0.040 C 
BRANCH  24  25
ATOM     25  C   UNL     1      32.295  -9.954 -22.416  0.00  0.00    +0.091 C 
BRANCH  25  26
ATOM     26  N   UNL     1      32.025  -8.544 -22.086  0.00  0.00    -0.246 NA
ATOM     27  N   UNL     1      31.887  -6.594 -21.035  0.00  0.00    -0.251 NA
ATOM     28  C   UNL     1      31.441  -7.608 -22.903  0.00  0.00    +0.125 C 
ATOM     29  C   UNL     1      32.281  -7.900 -20.969  0.00  0.00    +0.201 C 
ATOM     30  C   UNL     1      31.345  -6.390 -22.272  0.00  0.00    +0.124 C 
BRANCH  30  33
ATOM     31  O   UNL     1      30.717  -4.866 -23.967  0.00  0.00    -0.269 OA
ATOM     32  N   UNL     1      30.342  -4.234 -21.810  0.00  0.00    -0.324 N 
ATOM     33  C   UNL     1      30.810  -5.159 -22.751  0.00  0.00    +0.257 C 
ATOM     34  H   UNL     1      29.968  -3.375 -22.108  0.00  0.00    +0.145 HD
ATOM     35  H   UNL     1      30.389  -4.444 -20.848  0.00  0.00    +0.145 HD
ENDBRANCH  30  33
ENDBRANCH  25  26
BRANCH  25  36
ATOM     36  C   UNL     1      31.047 -10.815 -22.155  0.00  0.00    +0.153 C 
BRANCH  36  37
ATOM     37  O   UNL     1      31.428 -12.179 -22.012  0.00  0.00    -0.381 OA
ATOM     38  H   UNL     1      30.638 -12.720 -21.864  0.00  0.00    +0.210 HD
ENDBRANCH  36  37
ENDBRANCH  25  36
ENDBRANCH  24  25
ENDBRANCH  23  24
ENDBRANCH   1  23
TORSDOF 10
ENDMDL
MODEL 4
REMARK VINA RESULT:     -11.1      6.427     11.891
REMARK  Name = 447546
REMARK  10 active torsions:
REMARK  status: ('A' for Active; 'I' for Inactive)
REMARK    1  A    between atoms: N_1  and  C_23
REMARK    2  A    between atoms: C_8  and  N_11
REMARK    3  A    between atoms: N_12  and  C_16
REMARK    4  A    between atoms: C_16  and  C_17
REMARK    5  A    between atoms: C_23  and  C_24
REMARK    6  A    between atoms: C_24  and  C_25
REMARK    7  A    between atoms: C_25  and  N_26
REMARK    8  A    between atoms: C_25  and  C_36
REMARK    9  A    between atoms: C_30  and  C_33
REMARK   10  A    between atoms: C_36  and  O_37
REMARK                            x       y       z     vdW  Elec       q    Type
REMARK                         _______ _______ _______ _____ _____    ______ ____
ROOT
ATOM      1  N   UNL     1      32.905 -13.905 -22.244  0.00  0.00    -0.286 N 
ATOM      2  C   UNL     1      33.698 -15.021 -22.388  0.00  0.00    +0.053 C 
ATOM      3  C   UNL     1      33.961 -15.163 -23.753  0.00  0.00    +0.015 C 
ATOM      4  C   UNL     1      32.659 -13.338 -23.466  0.00  0.00    +0.065 C 
ATOM      5  C   UNL     1      33.300 -14.094 -24.419  0.00  0.00    +0.017 C 
ATOM      6  C   UNL     1      34.197 -15.906 -21.426  0.00  0.00    +0.030 C 
ATOM      7  C   UNL     1      34.762 -16.242 -24.180  0.00  0.00    +0.003 C 
ATOM      8  C   UNL     1      34.989 -16.968 -21.874  0.00  0.00    +0.053 C 
ATOM      9  C   UNL     1      35.269 -17.134 -23.229  0.00  0.00    +0.015 C 
ENDROOT
BRANCH   8  11
ATOM     10  O   UNL     1      35.426 -19.930 -22.083  0.00  0.00    -0.252 OA
ATOM     11  N   UNL     1      35.509 -17.873 -20.947  0.00  0.00    -0.268 N 
ATOM     12  N   UNL     1      36.247 -19.811 -19.924  0.00  0.00    -0.285 N 
ATOM     13  C   UNL     1      35.697 -19.262 -21.088  0.00  0.00    +0.305 C 
ATOM     14  H   UNL     1      35.780 -17.490 -20.081  0.00  0.00    +0.156 HD
ATOM     15  H   UNL     1      36.438 -19.212 -19.168  0.00  0.00    +0.151 HD
BRANCH  12  16
ATOM     16  C   UNL     1      36.549 -21.217 -19.783  0.00  0.00    +0.118 C 
BRANCH  16  17
ATOM     17  C   UNL     1      35.717 -21.865 -18.714  0.00  0.00    -0.003 C 
ATOM     18  C   UNL     1      36.257 -22.086 -17.448  0.00  0.00    -0.003 C 
ATOM     19  C   UNL     1      34.403 -22.245 -18.988  0.00  0.00    -0.003 C 
ATOM     20  C   UNL     1      35.484 -22.689 -16.455  0.00  0.00    -0.000 C 
ATOM     21  C   UNL     1      33.630 -22.847 -17.995  0.00  0.00    -0.000 C 
ATOM     22  C   UNL     1      34.171 -23.069 -16.729  0.00  0.00    -0.000 C 
ENDBRANCH  16  17
ENDBRANCH  12  16
ENDBRANCH   8  11
BRANCH   1  23
ATOM     23  C   UNL     1      32.395 -13.392 -20.990  0.00  0.00    +0.097 C 
BRANCH  23  24
ATOM     24  C   UNL     1      31.432 -12.206 -21.138  0.00  0.00    +0.040 C 
BRANCH  24  25
ATOM     25  C   UNL     1      31.962 -10.859 -20.595  0.00  0.00    +0.091 C 
BRANCH  25  26
ATOM     26  N   UNL     1      31.840  -9.749 -21.556  0.00  0.00    -0.246 NA
ATOM     27  N   UNL     1      31.548  -8.559 -23.407  0.00  0.00    -0.251 NA
ATOM     28  C   UNL     1      31.967  -8.410 -21.281  0.00  0.00    +0.125 C 
ATOM     29  C   UNL     1      31.587  -9.804 -22.845  0.00  0.00    +0.201 C 
ATOM     30  C   UNL     1      31.790  -7.652 -22.415  0.00  0.00    +0.124 C 
BRANCH  30  33
ATOM     31  O   UNL     1      31.765  -5.661 -23.689  0.00  0.00    -0.269 OA
ATOM     32  N   UNL     1      31.946  -5.446 -21.427  0.00  0.00    -0.324 N 
ATOM     33  C   UNL     1      31.836  -6.238 -22.577  0.00  0.00    +0.257 C 
ATOM     34  H   UNL     1      31.981  -4.466 -21.506  0.00  0.00    +0.145 HD
ATOM     35  H   UNL     1      31.989  -5.871 -20.539  0.00  0.00    +0.145 HD
ENDBRANCH  30  33
ENDBRANCH  25  26
BRANCH  25  36
ATOM     36  C   UNL     1      31.271 -10.501 -19.269  0.00  0.00    +0.153 C 
BRANCH  36  37
ATOM     37  O   UNL     1      32.239 -10.033 -18.336  0.00  0.00    -0.381 OA
ATOM     38  H   UNL     1      32.622 -10.788 -17.864  0.00  0.00    +0.210 HD
ENDBRANCH  36  37
ENDBRANCH  25  36
ENDBRANCH  24  25
ENDBRANCH  23  24
ENDBRANCH   1  23
TORSDOF 10
ENDMDL
MODEL 5
REMARK VINA RESULT:     -11.1      5.074      9.694
REMARK  Name = 447546
REMARK  10 active torsions:
REMARK  status: ('A' for Active; 'I' for Inactive)
REMARK    1  A    between atoms: N_1  and  C_23
REMARK    2  A    between atoms: C_8  and  N_11
REMARK    3  A    between atoms: N_12  and  C_16
REMARK    4  A    between atoms: C_16  and  C_17
REMARK    5  A    between atoms: C_23  and  C_24
REMARK    6  A    between atoms: C_24  and  C_25
REMARK    7  A    between atoms: C_25  and  N_26
REMARK    8  A    between atoms: C_25  and  C_36
REMARK    9  A    between atoms: C_30  and  C_33
REMARK   10  A    between atoms: C_36  and  O_37
REMARK                            x       y       z     vdW  Elec       q    Type
REMARK                         _______ _______ _______ _____ _____    ______ ____
ROOT
ATOM      1  N   UNL     1      34.886 -17.549 -23.033  0.00  0.00    -0.286 N 
ATOM      2  C   UNL     1      34.355 -16.443 -23.658  0.00  0.00    +0.053 C 
ATOM      3  C   UNL     1      34.149 -16.788 -24.996  0.00  0.00    +0.015 C 
ATOM      4  C   UNL     1      35.021 -18.578 -23.927  0.00  0.00    +0.065 C 
ATOM      5  C   UNL     1      34.572 -18.137 -25.149  0.00  0.00    +0.017 C 
ATOM      6  C   UNL     1      34.046 -15.177 -23.147  0.00  0.00    +0.030 C 
ATOM      7  C   UNL     1      33.607 -15.823 -25.868  0.00  0.00    +0.003 C 
ATOM      8  C   UNL     1      33.509 -14.237 -24.031  0.00  0.00    +0.053 C 
ATOM      9  C   UNL     1      33.291 -14.553 -25.371  0.00  0.00    +0.015 C 
ENDROOT
BRANCH   8  11
ATOM     10  O   UNL     1      34.207 -11.528 -25.118  0.00  0.00    -0.252 OA
ATOM     11  N   UNL     1      33.184 -12.964 -23.562  0.00  0.00    -0.268 N 
ATOM     12  N   UNL     1      33.011 -10.669 -23.336  0.00  0.00    -0.285 N 
ATOM     13  C   UNL     1      33.534 -11.713 -24.107  0.00  0.00    +0.305 C 
ATOM     14  H   UNL     1      32.637 -12.936 -22.743  0.00  0.00    +0.156 HD
ATOM     15  H   UNL     1      32.481 -10.895 -22.539  0.00  0.00    +0.151 HD
BRANCH  12  16
ATOM     16  C   UNL     1      33.211  -9.274 -23.658  0.00  0.00    +0.118 C 
BRANCH  16  17
ATOM     17  C   UNL     1      32.798  -8.373 -22.531  0.00  0.00    -0.003 C 
ATOM     18  C   UNL     1      32.689  -6.999 -22.740  0.00  0.00    -0.003 C 
ATOM     19  C   UNL     1      32.521  -8.911 -21.273  0.00  0.00    -0.003 C 
ATOM     20  C   UNL     1      32.305  -6.162 -21.692  0.00  0.00    -0.000 C 
ATOM     21  C   UNL     1      32.137  -8.074 -20.226  0.00  0.00    -0.000 C 
ATOM     22  C   UNL     1      32.029  -6.699 -20.436  0.00  0.00    -0.000 C 
ENDBRANCH  16  17
ENDBRANCH  12  16
ENDBRANCH   8  11
BRANCH   1  23
ATOM     23  C   UNL     1      35.255 -17.630 -21.636  0.00  0.00    +0.097 C 
BRANCH  23  24
ATOM     24  C   UNL     1      35.768 -19.008 -21.196  0.00  0.00    +0.040 C 
BRANCH  24  25
ATOM     25  C   UNL     1      34.671 -20.065 -20.940  0.00  0.00    +0.091 C 
BRANCH  25  26
ATOM     26  N   UNL     1      34.969 -20.961 -19.809  0.00  0.00    -0.246 NA
ATOM     27  N   UNL     1      36.018 -22.135 -18.244  0.00  0.00    -0.251 NA
ATOM     28  C   UNL     1      34.060 -21.665 -19.060  0.00  0.00    +0.125 C 
ATOM     29  C   UNL     1      36.139 -21.266 -19.292  0.00  0.00    +0.201 C 
ATOM     30  C   UNL     1      34.688 -22.401 -18.081  0.00  0.00    +0.124 C 
BRANCH  30  33
ATOM     31  O   UNL     1      34.814 -23.942 -16.293  0.00  0.00    -0.269 OA
ATOM     32  N   UNL     1      32.734 -23.340 -17.002  0.00  0.00    -0.324 N 
ATOM     33  C   UNL     1      34.129 -23.263 -17.095  0.00  0.00    +0.257 C 
ATOM     34  H   UNL     1      32.316 -23.926 -16.331  0.00  0.00    +0.145 HD
ATOM     35  H   UNL     1      32.170 -22.806 -17.609  0.00  0.00    +0.145 HD
ENDBRANCH  30  33
ENDBRANCH  25  26
BRANCH  25  36
ATOM     36  C   UNL     1      33.304 -19.389 -20.742  0.00  0.00    +0.153 C 
BRANCH  36  37
ATOM     37  O   UNL     1      32.267 -20.280 -21.138  0.00  0.00    -0.381 OA
ATOM     38  H   UNL     1      32.311 -20.420 -22.097  0.00  0.00    +0.210 HD
ENDBRANCH  36  37
ENDBRANCH  25  36
ENDBRANCH  24  25
ENDBRANCH  23  24
ENDBRANCH   1  23
TORSDOF 10
ENDMDL
MODEL 6
REMARK VINA RESULT:     -11.0      3.162      7.143
REMARK  Name = 447546
REMARK  10 active torsions:
REMARK  status: ('A' for Active; 'I' for Inactive)
REMARK    1  A    between atoms: N_1  and  C_23
REMARK    2  A    between atoms: C_8  and  N_11
REMARK    3  A    between atoms: N_12  and  C_16
REMARK    4  A    between atoms: C_16  and  C_17
REMARK    5  A    between atoms: C_23  and  C_24
REMARK    6  A    between atoms: C_24  and  C_25
REMARK    7  A    between atoms: C_25  and  N_26
REMARK    8  A    between atoms: C_25  and  C_36
REMARK    9  A    between atoms: C_30  and  C_33
REMARK   10  A    between atoms: C_36  and  O_37
REMARK                            x       y       z     vdW  Elec       q    Type
REMARK                         _______ _______ _______ _____ _____    ______ ____
ROOT
ATOM      1  N   UNL     1      32.865 -24.574 -14.279  0.00  0.00    -0.286 N 
ATOM      2  C   UNL     1      32.251 -23.904 -15.313  0.00  0.00    +0.053 C 
ATOM      3  C   UNL     1      30.873 -24.047 -15.133  0.00  0.00    +0.015 C 
ATOM      4  C   UNL     1      31.926 -25.133 -13.454  0.00  0.00    +0.065 C 
ATOM      5  C   UNL     1      30.684 -24.824 -13.957  0.00  0.00    +0.017 C 
ATOM      6  C   UNL     1      32.804 -23.190 -16.382  0.00  0.00    +0.030 C 
ATOM      7  C   UNL     1      30.002 -23.449 -16.066  0.00  0.00    +0.003 C 
ATOM      8  C   UNL     1      31.920 -22.605 -17.294  0.00  0.00    +0.053 C 
ATOM      9  C   UNL     1      30.541 -22.730 -17.139  0.00  0.00    +0.015 C 
ENDROOT
BRANCH   8  11
ATOM     10  O   UNL     1      34.678 -22.563 -18.476  0.00  0.00    -0.252 OA
ATOM     11  N   UNL     1      32.429 -21.882 -18.374  0.00  0.00    -0.268 N 
ATOM     12  N   UNL     1      33.845 -21.024 -19.988  0.00  0.00    -0.285 N 
ATOM     13  C   UNL     1      33.738 -21.894 -18.897  0.00  0.00    +0.305 C 
ATOM     14  H   UNL     1      31.791 -21.287 -18.830  0.00  0.00    +0.156 HD
ATOM     15  H   UNL     1      33.047 -20.521 -20.268  0.00  0.00    +0.151 HD
BRANCH  12  16
ATOM     16  C   UNL     1      35.074 -20.832 -20.724  0.00  0.00    +0.118 C 
BRANCH  16  17
ATOM     17  C   UNL     1      35.057 -19.561 -21.524  0.00  0.00    -0.003 C 
ATOM     18  C   UNL     1      34.929 -19.611 -22.911  0.00  0.00    -0.003 C 
ATOM     19  C   UNL     1      35.168 -18.329 -20.878  0.00  0.00    -0.003 C 
ATOM     20  C   UNL     1      34.914 -18.431 -23.654  0.00  0.00    -0.000 C 
ATOM     21  C   UNL     1      35.152 -17.149 -21.620  0.00  0.00    -0.000 C 
ATOM     22  C   UNL     1      35.025 -17.200 -23.008  0.00  0.00    -0.000 C 
ENDBRANCH  16  17
ENDBRANCH  12  16
ENDBRANCH   8  11
BRANCH   1  23
ATOM     23  C   UNL     1      34.295 -24.683 -14.079  0.00  0.00    +0.097 C 
BRANCH  23  24
ATOM     24  C   UNL     1      34.822 -23.912 -12.861  0.00  0.00    +0.040 C 
BRANCH  24  25
ATOM     25  C   UNL     1      36.152 -24.440 -12.276  0.00  0.00    +0.091 C 
BRANCH  25  26
ATOM     26  N   UNL     1      37.241 -24.516 -13.265  0.00  0.00    -0.246 NA
ATOM     27  N   UNL     1      38.596 -24.101 -14.974  0.00  0.00    -0.251 NA
ATOM     28  C   UNL     1      38.228 -25.468 -13.326  0.00  0.00    +0.125 C 
ATOM     29  C   UNL     1      37.492 -23.708 -14.272  0.00  0.00    +0.201 C 
ATOM     30  C   UNL     1      39.081 -25.231 -14.378  0.00  0.00    +0.124 C 
BRANCH  30  33
ATOM     31  O   UNL     1      40.632 -26.004 -15.986  0.00  0.00    -0.269 OA
ATOM     32  N   UNL     1      40.956 -26.662 -13.829  0.00  0.00    -0.324 N 
ATOM     33  C   UNL     1      40.227 -25.964 -14.800  0.00  0.00    +0.257 C 
ATOM     34  H   UNL     1      41.753 -27.178 -14.087  0.00  0.00    +0.145 HD
ATOM     35  H   UNL     1      40.671 -26.636 -12.886  0.00  0.00    +0.145 HD
ENDBRANCH  30  33
ENDBRANCH  25  26
BRANCH  25  36
ATOM     36  C   UNL     1      36.584 -23.594 -11.066  0.00  0.00    +0.153 C 
BRANCH  36  37
ATOM     37  O   UNL     1      36.121 -24.204  -9.867  0.00  0.00    -0.381 OA
ATOM     38  H   UNL     1      36.639 -23.872  -9.116  0.00  0.00    +0.210 HD
ENDBRANCH  36  37
ENDBRANCH  25  36
ENDBRANCH  24  25
ENDBRANCH  23  24
ENDBRANCH   1  23
TORSDOF 10
ENDMDL
MODEL 7
REMARK VINA RESULT:     -11.0      4.280     10.782
REMARK  Name = 447546
REMARK  10 active torsions:
REMARK  status: ('A' for Active; 'I' for Inactive)
REMARK    1  A    between atoms: N_1  and  C_23
REMARK    2  A    between atoms: C_8  and  N_11
REMARK    3  A    between atoms: N_12  and  C_16
REMARK    4  A    between atoms: C_16  and  C_17
REMARK    5  A    between atoms: C_23  and  C_24
REMARK    6  A    between atoms: C_24  and  C_25
REMARK    7  A    between atoms: C_25  and  N_26
REMARK    8  A    between atoms: C_25  and  C_36
REMARK    9  A    between atoms: C_30  and  C_33
REMARK   10  A    between atoms: C_36  and  O_37
REMARK                            x       y       z     vdW  Elec       q    Type
REMARK                         _______ _______ _______ _____ _____    ______ ____
ROOT
ATOM      1  N   UNL     1      34.239 -15.893 -21.756  0.00  0.00    -0.286 N 
ATOM      2  C   UNL     1      34.225 -17.269 -21.750  0.00  0.00    +0.053 C 
ATOM      3  C   UNL     1      34.955 -17.692 -22.865  0.00  0.00    +0.015 C 
ATOM      4  C   UNL     1      34.951 -15.432 -22.831  0.00  0.00    +0.065 C 
ATOM      5  C   UNL     1      35.407 -16.521 -23.535  0.00  0.00    +0.017 C 
ATOM      6  C   UNL     1      33.628 -18.164 -20.855  0.00  0.00    +0.030 C 
ATOM      7  C   UNL     1      35.097 -19.074 -23.097  0.00  0.00    +0.003 C 
ATOM      8  C   UNL     1      33.783 -19.530 -21.107  0.00  0.00    +0.053 C 
ATOM      9  C   UNL     1      34.506 -19.980 -22.209  0.00  0.00    +0.015 C 
ENDROOT
BRANCH   8  11
ATOM     10  O   UNL     1      35.058 -21.582 -19.327  0.00  0.00    -0.252 OA
ATOM     11  N   UNL     1      33.206 -20.456 -20.236  0.00  0.00    -0.268 N 
ATOM     12  N   UNL     1      32.909 -22.149 -18.689  0.00  0.00    -0.285 N 
ATOM     13  C   UNL     1      33.846 -21.405 -19.415  0.00  0.00    +0.305 C 
ATOM     14  H   UNL     1      32.222 -20.444 -20.189  0.00  0.00    +0.156 HD
ATOM     15  H   UNL     1      31.954 -21.949 -18.813  0.00  0.00    +0.151 HD
BRANCH  12  16
ATOM     16  C   UNL     1      33.280 -23.195 -17.764  0.00  0.00    +0.118 C 
BRANCH  16  17
ATOM     17  C   UNL     1      32.429 -23.180 -16.527  0.00  0.00    -0.003 C 
ATOM     18  C   UNL     1      31.058 -22.951 -16.627  0.00  0.00    -0.003 C 
ATOM     19  C   UNL     1      33.011 -23.397 -15.278  0.00  0.00    -0.003 C 
ATOM     20  C   UNL     1      30.267 -22.937 -15.478  0.00  0.00    -0.000 C 
ATOM     21  C   UNL     1      32.220 -23.383 -14.129  0.00  0.00    -0.000 C 
ATOM     22  C   UNL     1      30.848 -23.153 -14.229  0.00  0.00    -0.000 C 
ENDBRANCH  16  17
ENDBRANCH  12  16
ENDBRANCH   8  11
BRANCH   1  23
ATOM     23  C   UNL     1      33.599 -15.041 -20.777  0.00  0.00    +0.097 C 
BRANCH  23  24
ATOM     24  C   UNL     1      32.358 -14.302 -21.297  0.00  0.00    +0.040 C 
BRANCH  24  25
ATOM     25  C   UNL     1      32.612 -12.857 -21.784  0.00  0.00    +0.091 C 
BRANCH  25  26
ATOM     26  N   UNL     1      32.983 -12.773 -23.207  0.00  0.00    -0.246 NA
ATOM     27  N   UNL     1      33.800 -12.093 -25.156  0.00  0.00    -0.251 NA
ATOM     28  C   UNL     1      32.708 -13.699 -24.182  0.00  0.00    +0.125 C 
ATOM     29  C   UNL     1      33.642 -11.819 -23.827  0.00  0.00    +0.201 C 
ATOM     30  C   UNL     1      33.205 -13.298 -25.401  0.00  0.00    +0.124 C 
BRANCH  30  33
ATOM     31  O   UNL     1      33.717 -13.528 -27.697  0.00  0.00    -0.269 OA
ATOM     32  N   UNL     1      32.420 -15.147 -26.754  0.00  0.00    -0.324 N 
ATOM     33  C   UNL     1      33.144 -13.952 -26.665  0.00  0.00    +0.257 C 
ATOM     34  H   UNL     1      32.358 -15.623 -27.613  0.00  0.00    +0.145 HD
ATOM     35  H   UNL     1      31.972 -15.512 -25.956  0.00  0.00    +0.145 HD
ENDBRANCH  30  33
ENDBRANCH  25  26
BRANCH  25  36
ATOM     36  C   UNL     1      31.392 -11.967 -21.494  0.00  0.00    +0.153 C 
BRANCH  36  37
ATOM     37  O   UNL     1      31.378 -11.608 -20.117  0.00  0.00    -0.381 OA
ATOM     38  H   UNL     1      30.544 -11.159 -19.909  0.00  0.00    +0.210 HD
ENDBRANCH  36  37
ENDBRANCH  25  36
ENDBRANCH  24  25
ENDBRANCH  23  24
ENDBRANCH   1  23
TORSDOF 10
ENDMDL
MODEL 8
REMARK VINA RESULT:     -11.0      2.007      3.137
REMARK  Name = 447546
REMARK  10 active torsions:
REMARK  status: ('A' for Active; 'I' for Inactive)
REMARK    1  A    between atoms: N_1  and  C_23
REMARK    2  A    between atoms: C_8  and  N_11
REMARK    3  A    between atoms: N_12  and  C_16
REMARK    4  A    between atoms: C_16  and  C_17
REMARK    5  A    between atoms: C_23  and  C_24
REMARK    6  A    between atoms: C_24  and  C_25
REMARK    7  A    between atoms: C_25  and  N_26
REMARK    8  A    between atoms: C_25  and  C_36
REMARK    9  A    between atoms: C_30  and  C_33
REMARK   10  A    between atoms: C_36  and  O_37
REMARK                            x       y       z     vdW  Elec       q    Type
REMARK                         _______ _______ _______ _____ _____    ______ ____
ROOT
ATOM      1  N   UNL     1      34.677 -22.345 -17.931  0.00  0.00    -0.286 N 
ATOM      2  C   UNL     1      35.142 -21.512 -18.923  0.00  0.00    +0.053 C 
ATOM      3  C   UNL     1      36.484 -21.244 -18.638  0.00  0.00    +0.015 C 
ATOM      4  C   UNL     1      35.675 -22.615 -17.033  0.00  0.00    +0.065 C 
ATOM      5  C   UNL     1      36.805 -21.947 -17.444  0.00  0.00    +0.017 C 
ATOM      6  C   UNL     1      34.485 -20.979 -20.038  0.00  0.00    +0.030 C 
ATOM      7  C   UNL     1      37.207 -20.404 -19.509  0.00  0.00    +0.003 C 
ATOM      8  C   UNL     1      35.224 -20.148 -20.887  0.00  0.00    +0.053 C 
ATOM      9  C   UNL     1      36.563 -19.865 -20.628  0.00  0.00    +0.015 C 
ENDROOT
BRANCH   8  11
ATOM     10  O   UNL     1      36.336 -18.384 -23.045  0.00  0.00    -0.252 OA
ATOM     11  N   UNL     1      34.607 -19.598 -22.012  0.00  0.00    -0.268 N 
ATOM     12  N   UNL     1      34.217 -18.430 -23.969  0.00  0.00    -0.285 N 
ATOM     13  C   UNL     1      35.171 -18.771 -23.004  0.00  0.00    +0.305 C 
ATOM     14  H   UNL     1      33.654 -19.817 -22.127  0.00  0.00    +0.156 HD
ATOM     15  H   UNL     1      33.303 -18.780 -23.869  0.00  0.00    +0.151 HD
BRANCH  12  16
ATOM     16  C   UNL     1      34.513 -17.590 -25.107  0.00  0.00    +0.118 C 
BRANCH  16  17
ATOM     17  C   UNL     1      34.088 -16.168 -24.881  0.00  0.00    -0.003 C 
ATOM     18  C   UNL     1      34.428 -15.518 -23.697  0.00  0.00    -0.003 C 
ATOM     19  C   UNL     1      33.351 -15.497 -25.858  0.00  0.00    -0.003 C 
ATOM     20  C   UNL     1      34.033 -14.196 -23.487  0.00  0.00    -0.000 C 
ATOM     21  C   UNL     1      32.956 -14.176 -25.649  0.00  0.00    -0.000 C 
ATOM     22  C   UNL     1      33.297 -13.526 -24.463  0.00  0.00    -0.000 C 
ENDBRANCH  16  17
ENDBRANCH  12  16
ENDBRANCH   8  11
BRANCH   1  23
ATOM     23  C   UNL     1      33.331 -22.870 -17.836  0.00  0.00    +0.097 C 
BRANCH  23  24
ATOM     24  C   UNL     1      33.134 -23.902 -16.717  0.00  0.00    +0.040 C 
BRANCH  24  25
ATOM     25  C   UNL     1      32.300 -23.411 -15.512  0.00  0.00    +0.091 C 
BRANCH  25  26
ATOM     26  N   UNL     1      30.851 -23.625 -15.671  0.00  0.00    -0.246 NA
ATOM     27  N   UNL     1      28.805 -24.481 -15.584  0.00  0.00    -0.251 NA
ATOM     28  C   UNL     1      29.965 -22.794 -16.309  0.00  0.00    +0.125 C 
ATOM     29  C   UNL     1      30.120 -24.632 -15.246  0.00  0.00    +0.201 C 
ATOM     30  C   UNL     1      28.688 -23.303 -16.267  0.00  0.00    +0.124 C 
BRANCH  30  33
ATOM     31  O   UNL     1      27.129 -22.898 -17.997  0.00  0.00    -0.269 OA
ATOM     32  N   UNL     1      26.625 -22.081 -15.930  0.00  0.00    -0.324 N 
ATOM     33  C   UNL     1      27.480 -22.769 -16.799  0.00  0.00    +0.257 C 
ATOM     34  H   UNL     1      25.783 -21.700 -16.266  0.00  0.00    +0.145 HD
ATOM     35  H   UNL     1      26.867 -21.978 -14.980  0.00  0.00    +0.145 HD
ENDBRANCH  30  33
ENDBRANCH  25  26
BRANCH  25  36
ATOM     36  C   UNL     1      32.799 -24.059 -14.209  0.00  0.00    +0.153 C 
BRANCH  36  37
ATOM     37  O   UNL     1      32.604 -23.160 -13.123  0.00  0.00    -0.381 OA
ATOM     38  H   UNL     1      33.390 -23.165 -12.555  0.00  0.00    +0.210 HD
ENDBRANCH  36  37
ENDBRANCH  25  36
ENDBRANCH  24  25
ENDBRANCH  23  24
ENDBRANCH   1  23
TORSDOF 10
ENDMDL
MODEL 9
REMARK VINA RESULT:     -10.9      7.303     12.475
REMARK  Name = 447546
REMARK  10 active torsions:
REMARK  status: ('A' for Active; 'I' for Inactive)
REMARK    1  A    between atoms: N_1  and  C_23
REMARK    2  A    between atoms: C_8  and  N_11
REMARK    3  A    between atoms: N_12  and  C_16
REMARK    4  A    between atoms: C_16  and  C_17
REMARK    5  A    between atoms: C_23  and  C_24
REMARK    6  A    between atoms: C_24  and  C_25
REMARK    7  A    between atoms: C_25  and  N_26
REMARK    8  A    between atoms: C_25  and  C_36
REMARK    9  A    between atoms: C_30  and  C_33
REMARK   10  A    between atoms: C_36  and  O_37
REMARK                            x       y       z     vdW  Elec       q    Type
REMARK                         _______ _______ _______ _____ _____    ______ ____
ROOT
ATOM      1  N   UNL     1      32.662 -13.970 -22.243  0.00  0.00    -0.286 N 
ATOM      2  C   UNL     1      32.208 -12.737 -21.831  0.00  0.00    +0.053 C 
ATOM      3  C   UNL     1      32.031 -12.807 -20.447  0.00  0.00    +0.015 C 
ATOM      4  C   UNL     1      32.780 -14.813 -21.170  0.00  0.00    +0.065 C 
ATOM      5  C   UNL     1      32.397 -14.122 -20.045  0.00  0.00    +0.017 C 
ATOM      6  C   UNL     1      31.942 -11.579 -22.569  0.00  0.00    +0.030 C 
ATOM      7  C   UNL     1      31.566 -11.665 -19.765  0.00  0.00    +0.003 C 
ATOM      8  C   UNL     1      31.482 -10.459 -21.870  0.00  0.00    +0.053 C 
ATOM      9  C   UNL     1      31.297 -10.499 -20.490  0.00  0.00    +0.015 C 
ENDROOT
BRANCH   8  11
ATOM     10  O   UNL     1      32.702  -7.727 -21.632  0.00  0.00    -0.252 OA
ATOM     11  N   UNL     1      31.206  -9.282 -22.568  0.00  0.00    -0.268 N 
ATOM     12  N   UNL     1      31.248  -7.094 -23.315  0.00  0.00    -0.285 N 
ATOM     13  C   UNL     1      31.808  -8.016 -22.424  0.00  0.00    +0.305 C 
ATOM     14  H   UNL     1      30.501  -9.345 -23.253  0.00  0.00    +0.156 HD
ATOM     15  H   UNL     1      30.535  -7.399 -23.920  0.00  0.00    +0.151 HD
BRANCH  12  16
ATOM     16  C   UNL     1      31.670  -5.714 -23.390  0.00  0.00    +0.118 C 
BRANCH  16  17
ATOM     17  C   UNL     1      32.466  -5.436 -24.632  0.00  0.00    -0.003 C 
ATOM     18  C   UNL     1      32.009  -4.503 -25.560  0.00  0.00    -0.003 C 
ATOM     19  C   UNL     1      33.666  -6.113 -24.857  0.00  0.00    -0.003 C 
ATOM     20  C   UNL     1      32.749  -4.245 -26.714  0.00  0.00    -0.000 C 
ATOM     21  C   UNL     1      34.406  -5.855 -26.011  0.00  0.00    -0.000 C 
ATOM     22  C   UNL     1      33.947  -4.921 -26.939  0.00  0.00    -0.000 C 
ENDBRANCH  16  17
ENDBRANCH  12  16
ENDBRANCH   8  11
BRANCH   1  23
ATOM     23  C   UNL     1      32.974 -14.338 -23.607  0.00  0.00    +0.097 C 
BRANCH  23  24
ATOM     24  C   UNL     1      34.415 -14.825 -23.817  0.00  0.00    +0.040 C 
BRANCH  24  25
ATOM     25  C   UNL     1      34.565 -16.050 -24.746  0.00  0.00    +0.091 C 
BRANCH  25  26
ATOM     26  N   UNL     1      34.707 -17.325 -24.021  0.00  0.00    -0.246 NA
ATOM     27  N   UNL     1      34.829 -19.483 -23.515  0.00  0.00    -0.251 NA
ATOM     28  C   UNL     1      34.936 -17.482 -22.676  0.00  0.00    +0.125 C 
ATOM     29  C   UNL     1      34.649 -18.549 -24.496  0.00  0.00    +0.201 C 
ATOM     30  C   UNL     1      35.016 -18.813 -22.339  0.00  0.00    +0.124 C 
BRANCH  30  33
ATOM     31  O   UNL     1      36.278 -19.240 -20.387  0.00  0.00    -0.269 OA
ATOM     32  N   UNL     1      34.232 -20.230 -20.539  0.00  0.00    -0.324 N 
ATOM     33  C   UNL     1      35.240 -19.415 -21.067  0.00  0.00    +0.257 C 
ATOM     34  H   UNL     1      34.356 -20.661 -19.663  0.00  0.00    +0.145 HD
ATOM     35  H   UNL     1      33.398 -20.373 -21.044  0.00  0.00    +0.145 HD
ENDBRANCH  30  33
ENDBRANCH  25  26
BRANCH  25  36
ATOM     36  C   UNL     1      33.392 -16.124 -25.737  0.00  0.00    +0.153 C 
BRANCH  36  37
ATOM     37  O   UNL     1      33.597 -15.192 -26.792  0.00  0.00    -0.381 OA
ATOM     38  H   UNL     1      32.933 -15.337 -27.484  0.00  0.00    +0.210 HD
ENDBRANCH  36  37
ENDBRANCH  25  36
ENDBRANCH  24  25
ENDBRANCH  23  24
ENDBRANCH   1  23
TORSDOF 10
ENDMDL
