MODEL 1
REMARK VINA RESULT:      -9.0      0.000      0.000
REMARK  Name = 17754095
REMARK  7 active torsions:
REMARK  status: ('A' for Active; 'I' for Inactive)
REMARK    1  A    between atoms: C_2  and  O_15
REMARK    2  A    between atoms: C_3  and  C_17
REMARK    3  A    between atoms: C_5  and  C_8
REMARK    4  A    between atoms: C_17  and  O_18
REMARK    5  A    between atoms: O_18  and  P_19
REMARK    6  A    between atoms: P_19  and  O_21
REMARK    7  A    between atoms: P_19  and  O_23
REMARK                            x       y       z     vdW  Elec       q    Type
REMARK                         _______ _______ _______ _____ _____    ______ ____
ROOT
ATOM      1  O   UNL     1      35.963 -22.962 -14.538  0.00  0.00    -0.349 OA
ATOM      2  C   UNL     1      36.071 -25.181 -13.700  0.00  0.00    +0.143 C 
ATOM      3  C   UNL     1      36.879 -23.917 -13.964  0.00  0.00    +0.172 C 
ATOM      4  C   UNL     1      34.992 -25.118 -14.755  0.00  0.00    +0.066 C 
ATOM      5  C   UNL     1      34.724 -23.622 -14.848  0.00  0.00    +0.141 C 
ENDROOT
BRANCH   5   8
ATOM      6  O   UNL     1      33.093 -21.982 -19.896  0.00  0.00    -0.270 OA
ATOM      7  N   UNL     1      32.587 -22.894 -17.843  0.00  0.00    -0.280 N 
ATOM      8  C   UNL     1      34.248 -23.195 -16.192  0.00  0.00    +0.019 C 
ATOM      9  C   UNL     1      35.220 -22.633 -17.108  0.00  0.00    -0.000 C 
ATOM     10  C   UNL     1      32.973 -23.304 -16.593  0.00  0.00    +0.062 C 
ATOM     11  C   UNL     1      34.883 -22.220 -18.342  0.00  0.00    +0.032 C 
ATOM     12  C   UNL     1      33.451 -22.346 -18.777  0.00  0.00    +0.246 C 
ATOM     13  C   UNL     1      35.858 -21.636 -19.313  0.00  0.00    +0.036 C 
ATOM     14  H   UNL     1      31.639 -22.995 -18.091  0.00  0.00    +0.155 HD
ENDBRANCH   5   8
BRANCH   2  15
ATOM     15  O   UNL     1      35.456 -25.098 -12.417  0.00  0.00    -0.382 OA
ATOM     16  H   UNL     1      35.691 -25.880 -11.893  0.00  0.00    +0.210 HD
ENDBRANCH   2  15
BRANCH   3  17
ATOM     17  C   UNL     1      38.010 -24.136 -14.959  0.00  0.00    +0.185 C 
BRANCH  17  18
ATOM     18  O   UNL     1      39.170 -24.529 -14.247  0.00  0.00    -0.271 OA
BRANCH  18  19
ATOM     19  P   UNL     1      39.898 -25.915 -14.660  0.00  0.00    +0.473 P 
ATOM     20  O   UNL     1      41.040 -26.321 -13.775  0.00  0.00    -0.227 OA
BRANCH  19  21
ATOM     21  O   UNL     1      40.274 -25.701 -16.219  0.00  0.00    -0.303 OA
ATOM     22  H   UNL     1      39.576 -25.185 -16.652  0.00  0.00    +0.222 HD
ENDBRANCH  19  21
BRANCH  19  23
ATOM     23  O   UNL     1      38.670 -26.966 -14.716  0.00  0.00    -0.303 OA
ATOM     24  H   UNL     1      38.013 -26.732 -14.042  0.00  0.00    +0.222 HD
ENDBRANCH  19  23
ENDBRANCH  18  19
ENDBRANCH  17  18
ENDBRANCH   3  17
TORSDOF 7
ENDMDL
MODEL 2
REMARK VINA RESULT:      -9.0      2.512      4.081
REMARK  Name = 17754095
REMARK  7 active torsions:
REMARK  status: ('A' for Active; 'I' for Inactive)
REMARK    1  A    between atoms: C_2  and  O_15
REMARK    2  A    between atoms: C_3  and  C_17
REMARK    3  A    between atoms: C_5  and  C_8
REMARK    4  A    between atoms: C_17  and  O_18
REMARK    5  A    between atoms: O_18  and  P_19
REMARK    6  A    between atoms: P_19  and  O_21
REMARK    7  A    between atoms: P_19  and  O_23
REMARK                            x       y       z     vdW  Elec       q    Type
REMARK                         _______ _______ _______ _____ _____    ______ ____
ROOT
ATOM      1  O   UNL     1      35.734 -24.936 -15.869  0.00  0.00    -0.349 OA
ATOM      2  C   UNL     1      37.300 -23.564 -14.728  0.00  0.00    +0.143 C 
ATOM      3  C   UNL     1      36.712 -24.967 -14.811  0.00  0.00    +0.172 C 
ATOM      4  C   UNL     1      36.165 -22.694 -15.215  0.00  0.00    +0.066 C 
ATOM      5  C   UNL     1      35.524 -23.573 -16.280  0.00  0.00    +0.141 C 
ENDROOT
BRANCH   5   8
ATOM      6  O   UNL     1      30.072 -22.644 -16.769  0.00  0.00    -0.270 OA
ATOM      7  N   UNL     1      32.157 -22.792 -17.735  0.00  0.00    -0.280 N 
ATOM      8  C   UNL     1      34.068 -23.317 -16.452  0.00  0.00    +0.019 C 
ATOM      9  C   UNL     1      33.222 -23.397 -15.277  0.00  0.00    -0.000 C 
ATOM     10  C   UNL     1      33.505 -23.019 -17.631  0.00  0.00    +0.062 C 
ATOM     11  C   UNL     1      31.897 -23.181 -15.336  0.00  0.00    +0.032 C 
ATOM     12  C   UNL     1      31.280 -22.849 -16.664  0.00  0.00    +0.246 C 
ATOM     13  C   UNL     1      30.994 -23.254 -14.146  0.00  0.00    +0.036 C 
ATOM     14  H   UNL     1      31.790 -22.576 -18.623  0.00  0.00    +0.155 HD
ENDBRANCH   5   8
BRANCH   2  15
ATOM     15  O   UNL     1      38.387 -23.445 -15.641  0.00  0.00    -0.382 OA
ATOM     16  H   UNL     1      38.384 -22.558 -16.035  0.00  0.00    +0.210 HD
ENDBRANCH   2  15
BRANCH   3  17
ATOM     17  C   UNL     1      36.002 -25.388 -13.531  0.00  0.00    +0.185 C 
BRANCH  17  18
ATOM     18  O   UNL     1      36.770 -24.950 -12.423  0.00  0.00    -0.271 OA
BRANCH  18  19
ATOM     19  P   UNL     1      36.047 -24.043 -11.293  0.00  0.00    +0.473 P 
ATOM     20  O   UNL     1      36.923 -23.004 -10.658  0.00  0.00    -0.227 OA
BRANCH  19  21
ATOM     21  O   UNL     1      35.415 -25.131 -10.275  0.00  0.00    -0.303 OA
ATOM     22  H   UNL     1      36.127 -25.554  -9.771  0.00  0.00    +0.222 HD
ENDBRANCH  19  21
BRANCH  19  23
ATOM     23  O   UNL     1      34.751 -23.464 -12.068  0.00  0.00    -0.303 OA
ATOM     24  H   UNL     1      34.298 -24.189 -12.527  0.00  0.00    +0.222 HD
ENDBRANCH  19  23
ENDBRANCH  18  19
ENDBRANCH  17  18
ENDBRANCH   3  17
TORSDOF 7
ENDMDL
MODEL 3
REMARK VINA RESULT:      -8.4      2.580      3.628
REMARK  Name = 17754095
REMARK  7 active torsions:
REMARK  status: ('A' for Active; 'I' for Inactive)
REMARK    1  A    between atoms: C_2  and  O_15
REMARK    2  A    between atoms: C_3  and  C_17
REMARK    3  A    between atoms: C_5  and  C_8
REMARK    4  A    between atoms: C_17  and  O_18
REMARK    5  A    between atoms: O_18  and  P_19
REMARK    6  A    between atoms: P_19  and  O_21
REMARK    7  A    between atoms: P_19  and  O_23
REMARK                            x       y       z     vdW  Elec       q    Type
REMARK                         _______ _______ _______ _____ _____    ______ ____
ROOT
ATOM      1  O   UNL     1      36.152 -24.855 -15.736  0.00  0.00    -0.349 OA
ATOM      2  C   UNL     1      37.630 -23.174 -14.945  0.00  0.00    +0.143 C 
ATOM      3  C   UNL     1      37.496 -24.659 -15.252  0.00  0.00    +0.172 C 
ATOM      4  C   UNL     1      36.216 -22.773 -14.596  0.00  0.00    +0.066 C 
ATOM      5  C   UNL     1      35.396 -23.649 -15.534  0.00  0.00    +0.141 C 
ENDROOT
BRANCH   5   8
ATOM      6  O   UNL     1      30.307 -24.804 -13.638  0.00  0.00    -0.270 OA
ATOM      7  N   UNL     1      32.591 -25.041 -13.470  0.00  0.00    -0.280 N 
ATOM      8  C   UNL     1      34.050 -23.982 -14.996  0.00  0.00    +0.019 C 
ATOM      9  C   UNL     1      32.893 -23.425 -15.670  0.00  0.00    -0.000 C 
ATOM     10  C   UNL     1      33.854 -24.766 -13.926  0.00  0.00    +0.062 C 
ATOM     11  C   UNL     1      31.639 -23.671 -15.257  0.00  0.00    +0.032 C 
ATOM     12  C   UNL     1      31.436 -24.550 -14.056  0.00  0.00    +0.246 C 
ATOM     13  C   UNL     1      30.423 -23.116 -15.927  0.00  0.00    +0.036 C 
ATOM     14  H   UNL     1      32.500 -25.622 -12.680  0.00  0.00    +0.155 HD
ENDBRANCH   5   8
BRANCH   2  15
ATOM     15  O   UNL     1      38.022 -22.474 -16.123  0.00  0.00    -0.382 OA
ATOM     16  H   UNL     1      38.930 -22.721 -16.360  0.00  0.00    +0.210 HD
ENDBRANCH   2  15
BRANCH   3  17
ATOM     17  C   UNL     1      37.682 -25.537 -14.022  0.00  0.00    +0.185 C 
BRANCH  17  18
ATOM     18  O   UNL     1      38.744 -26.442 -14.267  0.00  0.00    -0.271 OA
BRANCH  18  19
ATOM     19  P   UNL     1      40.225 -25.842 -14.529  0.00  0.00    +0.473 P 
ATOM     20  O   UNL     1      40.523 -24.556 -13.816  0.00  0.00    -0.227 OA
BRANCH  19  21
ATOM     21  O   UNL     1      40.334 -25.780 -16.142  0.00  0.00    -0.303 OA
ATOM     22  H   UNL     1      40.279 -24.857 -16.435  0.00  0.00    +0.222 HD
ENDBRANCH  19  21
BRANCH  19  23
ATOM     23  O   UNL     1      41.191 -27.079 -14.140  0.00  0.00    -0.303 OA
ATOM     24  H   UNL     1      41.133 -27.764 -14.825  0.00  0.00    +0.222 HD
ENDBRANCH  19  23
ENDBRANCH  18  19
ENDBRANCH  17  18
ENDBRANCH   3  17
TORSDOF 7
ENDMDL
MODEL 4
REMARK VINA RESULT:      -8.3      6.886     11.061
REMARK  Name = 17754095
REMARK  7 active torsions:
REMARK  status: ('A' for Active; 'I' for Inactive)
REMARK    1  A    between atoms: C_2  and  O_15
REMARK    2  A    between atoms: C_3  and  C_17
REMARK    3  A    between atoms: C_5  and  C_8
REMARK    4  A    between atoms: C_17  and  O_18
REMARK    5  A    between atoms: O_18  and  P_19
REMARK    6  A    between atoms: P_19  and  O_21
REMARK    7  A    between atoms: P_19  and  O_23
REMARK                            x       y       z     vdW  Elec       q    Type
REMARK                         _______ _______ _______ _____ _____    ______ ____
ROOT
ATOM      1  O   UNL     1      34.994 -16.918 -21.098  0.00  0.00    -0.349 OA
ATOM      2  C   UNL     1      34.595 -16.375 -23.374  0.00  0.00    +0.143 C 
ATOM      3  C   UNL     1      34.556 -15.839 -21.949  0.00  0.00    +0.172 C 
ATOM      4  C   UNL     1      34.358 -17.855 -23.185  0.00  0.00    +0.066 C 
ATOM      5  C   UNL     1      35.078 -18.127 -21.872  0.00  0.00    +0.141 C 
ENDROOT
BRANCH   5   8
ATOM      6  O   UNL     1      33.025 -22.384 -18.959  0.00  0.00    -0.270 OA
ATOM      7  N   UNL     1      32.690 -20.607 -20.383  0.00  0.00    -0.280 N 
ATOM      8  C   UNL     1      34.489 -19.258 -21.105  0.00  0.00    +0.019 C 
ATOM      9  C   UNL     1      35.385 -20.081 -20.315  0.00  0.00    -0.000 C 
ATOM     10  C   UNL     1      33.182 -19.552 -21.108  0.00  0.00    +0.062 C 
ATOM     11  C   UNL     1      34.944 -21.123 -19.590  0.00  0.00    +0.032 C 
ATOM     12  C   UNL     1      33.477 -21.441 -19.605  0.00  0.00    +0.246 C 
ATOM     13  C   UNL     1      35.837 -21.992 -18.765  0.00  0.00    +0.036 C 
ATOM     14  H   UNL     1      31.722 -20.782 -20.418  0.00  0.00    +0.155 HD
ENDBRANCH   5   8
BRANCH   2  15
ATOM     15  O   UNL     1      35.898 -16.191 -23.921  0.00  0.00    -0.382 OA
ATOM     16  H   UNL     1      35.853 -16.244 -24.889  0.00  0.00    +0.210 HD
ENDBRANCH   2  15
BRANCH   3  17
ATOM     17  C   UNL     1      33.157 -15.434 -21.507  0.00  0.00    +0.185 C 
BRANCH  17  18
ATOM     18  O   UNL     1      33.136 -14.032 -21.299  0.00  0.00    -0.271 OA
BRANCH  18  19
ATOM     19  P   UNL     1      32.668 -13.077 -22.520  0.00  0.00    +0.473 P 
ATOM     20  O   UNL     1      31.901 -11.855 -22.110  0.00  0.00    -0.227 OA
BRANCH  19  21
ATOM     21  O   UNL     1      31.886 -14.084 -23.516  0.00  0.00    -0.303 OA
ATOM     22  H   UNL     1      32.206 -13.956 -24.422  0.00  0.00    +0.222 HD
ENDBRANCH  19  21
BRANCH  19  23
ATOM     23  O   UNL     1      34.054 -12.785 -23.301  0.00  0.00    -0.303 OA
ATOM     24  H   UNL     1      34.758 -13.338 -22.930  0.00  0.00    +0.222 HD
ENDBRANCH  19  23
ENDBRANCH  18  19
ENDBRANCH  17  18
ENDBRANCH   3  17
TORSDOF 7
ENDMDL
MODEL 5
REMARK VINA RESULT:      -8.3      4.437      6.734
REMARK  Name = 17754095
REMARK  7 active torsions:
REMARK  status: ('A' for Active; 'I' for Inactive)
REMARK    1  A    between atoms: C_2  and  O_15
REMARK    2  A    between atoms: C_3  and  C_17
REMARK    3  A    between atoms: C_5  and  C_8
REMARK    4  A    between atoms: C_17  and  O_18
REMARK    5  A    between atoms: O_18  and  P_19
REMARK    6  A    between atoms: P_19  and  O_21
REMARK    7  A    between atoms: P_19  and  O_23
REMARK                            x       y       z     vdW  Elec       q    Type
REMARK                         _______ _______ _______ _____ _____    ______ ____
ROOT
ATOM      1  O   UNL     1      32.798 -23.741 -17.247  0.00  0.00    -0.349 OA
ATOM      2  C   UNL     1      33.218 -23.631 -14.914  0.00  0.00    +0.143 C 
ATOM      3  C   UNL     1      32.130 -23.769 -15.970  0.00  0.00    +0.172 C 
ATOM      4  C   UNL     1      34.287 -22.841 -15.631  0.00  0.00    +0.066 C 
ATOM      5  C   UNL     1      34.174 -23.372 -17.054  0.00  0.00    +0.141 C 
ENDROOT
BRANCH   5   8
ATOM      6  O   UNL     1      35.537 -19.652 -20.943  0.00  0.00    -0.270 OA
ATOM      7  N   UNL     1      36.165 -21.055 -19.229  0.00  0.00    -0.280 N 
ATOM      8  C   UNL     1      34.580 -22.378 -18.084  0.00  0.00    +0.019 C 
ATOM      9  C   UNL     1      33.545 -21.822 -18.933  0.00  0.00    -0.000 C 
ATOM     10  C   UNL     1      35.845 -21.974 -18.264  0.00  0.00    +0.062 C 
ATOM     11  C   UNL     1      33.816 -20.918 -19.890  0.00  0.00    +0.032 C 
ATOM     12  C   UNL     1      35.239 -20.476 -20.081  0.00  0.00    +0.246 C 
ATOM     13  C   UNL     1      32.776 -20.322 -20.783  0.00  0.00    +0.036 C 
ATOM     14  H   UNL     1      37.110 -20.790 -19.322  0.00  0.00    +0.155 HD
ENDBRANCH   5   8
BRANCH   2  15
ATOM     15  O   UNL     1      33.743 -24.917 -14.594  0.00  0.00    -0.382 OA
ATOM     16  H   UNL     1      34.709 -24.904 -14.684  0.00  0.00    +0.210 HD
ENDBRANCH   2  15
BRANCH   3  17
ATOM     17  C   UNL     1      31.129 -22.623 -15.942  0.00  0.00    +0.185 C 
BRANCH  17  18
ATOM     18  O   UNL     1      30.109 -22.889 -16.889  0.00  0.00    -0.271 OA
BRANCH  18  19
ATOM     19  P   UNL     1      28.592 -23.088 -16.356  0.00  0.00    +0.473 P 
ATOM     20  O   UNL     1      28.013 -21.905 -15.637  0.00  0.00    -0.227 OA
BRANCH  19  21
ATOM     21  O   UNL     1      28.666 -24.454 -15.493  0.00  0.00    -0.303 OA
ATOM     22  H   UNL     1      27.959 -24.456 -14.829  0.00  0.00    +0.222 HD
ENDBRANCH  19  21
BRANCH  19  23
ATOM     23  O   UNL     1      27.796 -23.535 -17.691  0.00  0.00    -0.303 OA
ATOM     24  H   UNL     1      27.819 -24.502 -17.773  0.00  0.00    +0.222 HD
ENDBRANCH  19  23
ENDBRANCH  18  19
ENDBRANCH  17  18
ENDBRANCH   3  17
TORSDOF 7
ENDMDL
MODEL 6
REMARK VINA RESULT:      -8.2      7.408     11.764
REMARK  Name = 17754095
REMARK  7 active torsions:
REMARK  status: ('A' for Active; 'I' for Inactive)
REMARK    1  A    between atoms: C_2  and  O_15
REMARK    2  A    between atoms: C_3  and  C_17
REMARK    3  A    between atoms: C_5  and  C_8
REMARK    4  A    between atoms: C_17  and  O_18
REMARK    5  A    between atoms: O_18  and  P_19
REMARK    6  A    between atoms: P_19  and  O_21
REMARK    7  A    between atoms: P_19  and  O_23
REMARK                            x       y       z     vdW  Elec       q    Type
REMARK                         _______ _______ _______ _____ _____    ______ ____
ROOT
ATOM      1  O   UNL     1      35.724 -16.586 -22.824  0.00  0.00    -0.349 OA
ATOM      2  C   UNL     1      34.346 -16.815 -24.743  0.00  0.00    +0.143 C 
ATOM      3  C   UNL     1      34.771 -15.866 -23.631  0.00  0.00    +0.172 C 
ATOM      4  C   UNL     1      34.513 -18.175 -24.109  0.00  0.00    +0.066 C 
ATOM      5  C   UNL     1      35.738 -17.966 -23.228  0.00  0.00    +0.141 C 
ENDROOT
BRANCH   5   8
ATOM      6  O   UNL     1      35.631 -21.263 -18.761  0.00  0.00    -0.270 OA
ATOM      7  N   UNL     1      36.809 -19.908 -20.202  0.00  0.00    -0.280 N 
ATOM      8  C   UNL     1      35.750 -18.844 -22.026  0.00  0.00    +0.019 C 
ATOM      9  C   UNL     1      34.501 -19.458 -21.622  0.00  0.00    -0.000 C 
ATOM     10  C   UNL     1      36.852 -19.092 -21.303  0.00  0.00    +0.062 C 
ATOM     11  C   UNL     1      34.416 -20.265 -20.550  0.00  0.00    +0.032 C 
ATOM     12  C   UNL     1      35.658 -20.532 -19.750  0.00  0.00    +0.246 C 
ATOM     13  C   UNL     1      33.146 -20.916 -20.105  0.00  0.00    +0.036 C 
ATOM     14  H   UNL     1      37.645 -20.060 -19.705  0.00  0.00    +0.155 HD
ENDBRANCH   5   8
BRANCH   2  15
ATOM     15  O   UNL     1      35.254 -16.710 -25.837  0.00  0.00    -0.382 OA
ATOM     16  H   UNL     1      35.777 -17.524 -25.903  0.00  0.00    +0.210 HD
ENDBRANCH   2  15
BRANCH   3  17
ATOM     17  C   UNL     1      33.614 -15.453 -22.731  0.00  0.00    +0.185 C 
BRANCH  17  18
ATOM     18  O   UNL     1      33.780 -14.091 -22.376  0.00  0.00    -0.271 OA
BRANCH  18  19
ATOM     19  P   UNL     1      33.047 -12.963 -23.278  0.00  0.00    +0.473 P 
ATOM     20  O   UNL     1      32.046 -12.118 -22.546  0.00  0.00    -0.227 OA
BRANCH  19  21
ATOM     21  O   UNL     1      32.461 -13.798 -24.534  0.00  0.00    -0.303 OA
ATOM     22  H   UNL     1      32.532 -13.263 -25.340  0.00  0.00    +0.222 HD
ENDBRANCH  19  21
BRANCH  19  23
ATOM     23  O   UNL     1      34.289 -12.150 -23.920  0.00  0.00    -0.303 OA
ATOM     24  H   UNL     1      34.767 -12.724 -24.539  0.00  0.00    +0.222 HD
ENDBRANCH  19  23
ENDBRANCH  18  19
ENDBRANCH  17  18
ENDBRANCH   3  17
TORSDOF 7
ENDMDL
MODEL 7
REMARK VINA RESULT:      -8.1      5.912     10.054
REMARK  Name = 17754095
REMARK  7 active torsions:
REMARK  status: ('A' for Active; 'I' for Inactive)
REMARK    1  A    between atoms: C_2  and  O_15
REMARK    2  A    between atoms: C_3  and  C_17
REMARK    3  A    between atoms: C_5  and  C_8
REMARK    4  A    between atoms: C_17  and  O_18
REMARK    5  A    between atoms: O_18  and  P_19
REMARK    6  A    between atoms: P_19  and  O_21
REMARK    7  A    between atoms: P_19  and  O_23
REMARK                            x       y       z     vdW  Elec       q    Type
REMARK                         _______ _______ _______ _____ _____    ______ ____
ROOT
ATOM      1  O   UNL     1      35.766 -18.106 -20.834  0.00  0.00    -0.349 OA
ATOM      2  C   UNL     1      34.755 -17.827 -22.964  0.00  0.00    +0.143 C 
ATOM      3  C   UNL     1      35.142 -17.115 -21.674  0.00  0.00    +0.172 C 
ATOM      4  C   UNL     1      34.532 -19.250 -22.509  0.00  0.00    +0.066 C 
ATOM      5  C   UNL     1      35.586 -19.406 -21.421  0.00  0.00    +0.141 C 
ENDROOT
BRANCH   5   8
ATOM      6  O   UNL     1      34.298 -23.058 -17.442  0.00  0.00    -0.270 OA
ATOM      7  N   UNL     1      33.666 -21.800 -19.265  0.00  0.00    -0.280 N 
ATOM      8  C   UNL     1      35.201 -20.386 -20.369  0.00  0.00    +0.019 C 
ATOM      9  C   UNL     1      36.220 -20.802 -19.426  0.00  0.00    -0.000 C 
ATOM     10  C   UNL     1      33.968 -20.899 -20.253  0.00  0.00    +0.062 C 
ATOM     11  C   UNL     1      35.965 -21.682 -18.442  0.00  0.00    +0.032 C 
ATOM     12  C   UNL     1      34.580 -22.249 -18.325  0.00  0.00    +0.246 C 
ATOM     13  C   UNL     1      36.989 -22.133 -17.451  0.00  0.00    +0.036 C 
ATOM     14  H   UNL     1      32.746 -22.148 -19.220  0.00  0.00    +0.155 HD
ENDBRANCH   5   8
BRANCH   2  15
ATOM     15  O   UNL     1      35.855 -17.808 -23.870  0.00  0.00    -0.382 OA
ATOM     16  H   UNL     1      35.580 -17.395 -24.704  0.00  0.00    +0.210 HD
ENDBRANCH   2  15
BRANCH   3  17
ATOM     17  C   UNL     1      33.940 -16.557 -20.924  0.00  0.00    +0.185 C 
BRANCH  17  18
ATOM     18  O   UNL     1      33.092 -15.900 -21.850  0.00  0.00    -0.271 OA
BRANCH  18  19
ATOM     19  P   UNL     1      33.031 -14.282 -21.829  0.00  0.00    +0.473 P 
ATOM     20  O   UNL     1      32.737 -13.677 -20.488  0.00  0.00    -0.227 OA
BRANCH  19  21
ATOM     21  O   UNL     1      31.971 -13.924 -22.998  0.00  0.00    -0.303 OA
ATOM     22  H   UNL     1      31.965 -14.634 -23.658  0.00  0.00    +0.222 HD
ENDBRANCH  19  21
BRANCH  19  23
ATOM     23  O   UNL     1      34.452 -13.858 -22.475  0.00  0.00    -0.303 OA
ATOM     24  H   UNL     1      34.443 -12.910 -22.682  0.00  0.00    +0.222 HD
ENDBRANCH  19  23
ENDBRANCH  18  19
ENDBRANCH  17  18
ENDBRANCH   3  17
TORSDOF 7
ENDMDL
MODEL 8
REMARK VINA RESULT:      -8.0      2.806      4.673
REMARK  Name = 17754095
REMARK  7 active torsions:
REMARK  status: ('A' for Active; 'I' for Inactive)
REMARK    1  A    between atoms: C_2  and  O_15
REMARK    2  A    between atoms: C_3  and  C_17
REMARK    3  A    between atoms: C_5  and  C_8
REMARK    4  A    between atoms: C_17  and  O_18
REMARK    5  A    between atoms: O_18  and  P_19
REMARK    6  A    between atoms: P_19  and  O_21
REMARK    7  A    between atoms: P_19  and  O_23
REMARK                            x       y       z     vdW  Elec       q    Type
REMARK                         _______ _______ _______ _____ _____    ______ ____
ROOT
ATOM      1  O   UNL     1      35.512 -23.703 -16.747  0.00  0.00    -0.349 OA
ATOM      2  C   UNL     1      37.165 -22.571 -15.473  0.00  0.00    +0.143 C 
ATOM      3  C   UNL     1      36.016 -23.568 -15.403  0.00  0.00    +0.172 C 
ATOM      4  C   UNL     1      36.785 -21.700 -16.648  0.00  0.00    +0.066 C 
ATOM      5  C   UNL     1      36.116 -22.700 -17.582  0.00  0.00    +0.141 C 
ENDROOT
BRANCH   5   8
ATOM      6  O   UNL     1      32.375 -20.310 -20.916  0.00  0.00    -0.270 OA
ATOM      7  N   UNL     1      32.870 -21.796 -19.229  0.00  0.00    -0.280 N 
ATOM      8  C   UNL     1      35.083 -22.083 -18.457  0.00  0.00    +0.019 C 
ATOM      9  C   UNL     1      35.517 -21.092 -19.422  0.00  0.00    -0.000 C 
ATOM     10  C   UNL     1      33.781 -22.396 -18.398  0.00  0.00    +0.062 C 
ATOM     11  C   UNL     1      34.657 -20.481 -20.255  0.00  0.00    +0.032 C 
ATOM     12  C   UNL     1      33.201 -20.841 -20.176  0.00  0.00    +0.246 C 
ATOM     13  C   UNL     1      35.067 -19.456 -21.262  0.00  0.00    +0.036 C 
ATOM     14  H   UNL     1      31.925 -22.061 -19.147  0.00  0.00    +0.155 HD
ENDBRANCH   5   8
BRANCH   2  15
ATOM     15  O   UNL     1      38.375 -23.255 -15.789  0.00  0.00    -0.382 OA
ATOM     16  H   UNL     1      38.220 -23.862 -16.530  0.00  0.00    +0.210 HD
ENDBRANCH   2  15
BRANCH   3  17
ATOM     17  C   UNL     1      34.871 -23.089 -14.520  0.00  0.00    +0.185 C 
BRANCH  17  18
ATOM     18  O   UNL     1      34.103 -24.213 -14.126  0.00  0.00    -0.271 OA
BRANCH  18  19
ATOM     19  P   UNL     1      32.492 -24.060 -14.051  0.00  0.00    +0.473 P 
ATOM     20  O   UNL     1      31.997 -23.082 -13.026  0.00  0.00    -0.227 OA
BRANCH  19  21
ATOM     21  O   UNL     1      31.971 -25.580 -13.865  0.00  0.00    -0.303 OA
ATOM     22  H   UNL     1      31.289 -25.606 -13.176  0.00  0.00    +0.222 HD
ENDBRANCH  19  21
BRANCH  19  23
ATOM     23  O   UNL     1      32.090 -23.714 -15.578  0.00  0.00    -0.303 OA
ATOM     24  H   UNL     1      31.883 -24.534 -16.052  0.00  0.00    +0.222 HD
ENDBRANCH  19  23
ENDBRANCH  18  19
ENDBRANCH  17  18
ENDBRANCH   3  17
TORSDOF 7
ENDMDL
MODEL 9
REMARK VINA RESULT:      -7.9      6.682     11.004
REMARK  Name = 17754095
REMARK  7 active torsions:
REMARK  status: ('A' for Active; 'I' for Inactive)
REMARK    1  A    between atoms: C_2  and  O_15
REMARK    2  A    between atoms: C_3  and  C_17
REMARK    3  A    between atoms: C_5  and  C_8
REMARK    4  A    between atoms: C_17  and  O_18
REMARK    5  A    between atoms: O_18  and  P_19
REMARK    6  A    between atoms: P_19  and  O_21
REMARK    7  A    between atoms: P_19  and  O_23
REMARK                            x       y       z     vdW  Elec       q    Type
REMARK                         _______ _______ _______ _____ _____    ______ ____
ROOT
ATOM      1  O   UNL     1      35.460 -16.479 -22.946  0.00  0.00    -0.349 OA
ATOM      2  C   UNL     1      34.414 -16.863 -25.043  0.00  0.00    +0.143 C 
ATOM      3  C   UNL     1      34.540 -15.884 -23.883  0.00  0.00    +0.172 C 
ATOM      4  C   UNL     1      34.680 -18.198 -24.387  0.00  0.00    +0.066 C 
ATOM      5  C   UNL     1      35.725 -17.836 -23.341  0.00  0.00    +0.141 C 
ENDROOT
BRANCH   5   8
ATOM      6  O   UNL     1      35.441 -21.163 -18.905  0.00  0.00    -0.270 OA
ATOM      7  N   UNL     1      36.690 -19.861 -20.334  0.00  0.00    -0.280 N 
ATOM      8  C   UNL     1      35.691 -18.724 -22.147  0.00  0.00    +0.019 C 
ATOM      9  C   UNL     1      34.410 -19.273 -21.747  0.00  0.00    -0.000 C 
ATOM     10  C   UNL     1      36.777 -19.038 -21.428  0.00  0.00    +0.062 C 
ATOM     11  C   UNL     1      34.281 -20.084 -20.684  0.00  0.00    +0.032 C 
ATOM     12  C   UNL     1      35.507 -20.426 -19.887  0.00  0.00    +0.246 C 
ATOM     13  C   UNL     1      32.978 -20.669 -20.243  0.00  0.00    +0.036 C 
ATOM     14  H   UNL     1      37.517 -20.063 -19.839  0.00  0.00    +0.155 HD
ENDBRANCH   5   8
BRANCH   2  15
ATOM     15  O   UNL     1      35.444 -16.613 -25.995  0.00  0.00    -0.382 OA
ATOM     16  H   UNL     1      36.311 -16.722 -25.572  0.00  0.00    +0.210 HD
ENDBRANCH   2  15
BRANCH   3  17
ATOM     17  C   UNL     1      33.221 -15.652 -23.159  0.00  0.00    +0.185 C 
BRANCH  17  18
ATOM     18  O   UNL     1      33.325 -14.462 -22.397  0.00  0.00    -0.271 OA
BRANCH  18  19
ATOM     19  P   UNL     1      33.134 -14.553 -20.792  0.00  0.00    +0.473 P 
ATOM     20  O   UNL     1      32.523 -13.338 -20.157  0.00  0.00    -0.227 OA
BRANCH  19  21
ATOM     21  O   UNL     1      34.607 -14.949 -20.252  0.00  0.00    -0.303 OA
ATOM     22  H   UNL     1      34.573 -15.822 -19.832  0.00  0.00    +0.222 HD
ENDBRANCH  19  21
BRANCH  19  23
ATOM     23  O   UNL     1      32.290 -15.919 -20.605  0.00  0.00    -0.303 OA
ATOM     24  H   UNL     1      31.348 -15.741 -20.753  0.00  0.00    +0.222 HD
ENDBRANCH  19  23
ENDBRANCH  18  19
ENDBRANCH  17  18
ENDBRANCH   3  17
TORSDOF 7
ENDMDL
