MODEL 1
REMARK VINA RESULT:      -9.2      0.000      0.000
REMARK  Name = 3180
REMARK  8 active torsions:
REMARK  status: ('A' for Active; 'I' for Inactive)
REMARK    1  A    between atoms: C_2  and  C_3
REMARK    2  A    between atoms: C_2  and  C_14
REMARK    3  A    between atoms: C_6  and  O_9
REMARK    4  A    between atoms: O_9  and  C_10
REMARK    5  A    between atoms: C_10  and  C_11
REMARK    6  A    between atoms: C_11  and  C_12
REMARK    7  A    between atoms: C_14  and  C_15
REMARK    8  A    between atoms: C_15  and  N_16
REMARK                            x       y       z     vdW  Elec       q    Type
REMARK                         _______ _______ _______ _____ _____    ______ ____
ROOT
ATOM      1  O   UNL     1      36.931 -18.671 -21.596  0.00  0.00    -0.291 OA
ATOM      2  C   UNL     1      35.735 -18.824 -21.834  0.00  0.00    +0.171 C 
ENDROOT
BRANCH   2   3
ATOM      3  C   UNL     1      34.935 -19.751 -20.981  0.00  0.00    +0.035 C 
ATOM      4  C   UNL     1      33.570 -19.583 -20.925  0.00  0.00    +0.006 C 
ATOM      5  C   UNL     1      35.593 -20.739 -20.285  0.00  0.00    +0.006 C 
ATOM      6  C   UNL     1      33.458 -21.462 -19.410  0.00  0.00    +0.139 C 
ATOM      7  C   UNL     1      32.821 -20.450 -20.130  0.00  0.00    +0.037 C 
ATOM      8  C   UNL     1      34.844 -21.606 -19.489  0.00  0.00    +0.037 C 
BRANCH   6   9
ATOM      9  O   UNL     1      32.728 -22.309 -18.635  0.00  0.00    -0.475 OA
BRANCH   9  10
ATOM     10  C   UNL     1      33.450 -23.263 -17.859  0.00  0.00    +0.205 C 
BRANCH  10  11
ATOM     11  C   UNL     1      32.890 -23.269 -16.443  0.00  0.00    +0.047 C 
BRANCH  11  12
ATOM     12  C   UNL     1      31.382 -23.040 -16.433  0.00  0.00    +0.004 C 
ATOM     13  C   UNL     1      30.855 -22.865 -15.018  0.00  0.00    +0.000 C 
ENDBRANCH  11  12
ENDBRANCH  10  11
ENDBRANCH   9  10
ENDBRANCH   6   9
ENDBRANCH   2   3
BRANCH   2  14
ATOM     14  C   UNL     1      35.039 -18.095 -22.974  0.00  0.00    +0.046 C 
BRANCH  14  15
ATOM     15  C   UNL     1      35.245 -16.582 -22.899  0.00  0.00    -0.069 C 
BRANCH  15  16
ATOM     16  N   UNL     1      34.048 -15.913 -22.390  0.00  0.00    +0.387 N 
ATOM     17  C   UNL     1      33.838 -14.635 -23.086  0.00  0.00    -0.077 C 
ATOM     18  C   UNL     1      34.148 -15.716 -20.937  0.00  0.00    -0.077 C 
ATOM     19  C   UNL     1      32.562 -13.946 -22.600  0.00  0.00    -0.023 C 
ATOM     20  C   UNL     1      32.883 -15.060 -20.381  0.00  0.00    -0.023 C 
ATOM     21  C   UNL     1      32.582 -13.744 -21.089  0.00  0.00    -0.004 C 
ATOM     22  H   UNL     1      33.239 -16.506 -22.572  0.00  0.00    -0.080 HD
ENDBRANCH  15  16
ENDBRANCH  14  15
ENDBRANCH   2  14
TORSDOF 8
ENDMDL
MODEL 2
REMARK VINA RESULT:      -9.1      2.811      8.288
REMARK  Name = 3180
REMARK  8 active torsions:
REMARK  status: ('A' for Active; 'I' for Inactive)
REMARK    1  A    between atoms: C_2  and  C_3
REMARK    2  A    between atoms: C_2  and  C_14
REMARK    3  A    between atoms: C_6  and  O_9
REMARK    4  A    between atoms: O_9  and  C_10
REMARK    5  A    between atoms: C_10  and  C_11
REMARK    6  A    between atoms: C_11  and  C_12
REMARK    7  A    between atoms: C_14  and  C_15
REMARK    8  A    between atoms: C_15  and  N_16
REMARK                            x       y       z     vdW  Elec       q    Type
REMARK                         _______ _______ _______ _____ _____    ______ ____
ROOT
ATOM      1  O   UNL     1      35.281 -16.480 -20.098  0.00  0.00    -0.291 OA
ATOM      2  C   UNL     1      34.711 -16.440 -21.185  0.00  0.00    +0.171 C 
ENDROOT
BRANCH   2   3
ATOM      3  C   UNL     1      33.951 -15.214 -21.565  0.00  0.00    +0.035 C 
ATOM      4  C   UNL     1      34.242 -14.602 -22.763  0.00  0.00    +0.006 C 
ATOM      5  C   UNL     1      32.987 -14.742 -20.703  0.00  0.00    +0.006 C 
ATOM      6  C   UNL     1      32.547 -12.952 -22.266  0.00  0.00    +0.139 C 
ATOM      7  C   UNL     1      33.530 -13.456 -23.119  0.00  0.00    +0.037 C 
ATOM      8  C   UNL     1      32.276 -13.596 -21.059  0.00  0.00    +0.037 C 
BRANCH   6   9
ATOM      9  O   UNL     1      31.852 -11.836 -22.614  0.00  0.00    -0.475 OA
BRANCH   9  10
ATOM     10  C   UNL     1      31.102 -11.192 -21.586  0.00  0.00    +0.205 C 
BRANCH  10  11
ATOM     11  C   UNL     1      31.742  -9.845 -21.280  0.00  0.00    +0.047 C 
BRANCH  11  12
ATOM     12  C   UNL     1      31.994  -9.667 -19.786  0.00  0.00    +0.004 C 
ATOM     13  C   UNL     1      31.330 -10.767 -18.974  0.00  0.00    +0.000 C 
ENDBRANCH  11  12
ENDBRANCH  10  11
ENDBRANCH   9  10
ENDBRANCH   6   9
ENDBRANCH   2   3
BRANCH   2  14
ATOM     14  C   UNL     1      34.754 -17.606 -22.164  0.00  0.00    +0.046 C 
BRANCH  14  15
ATOM     15  C   UNL     1      35.708 -18.707 -21.702  0.00  0.00    -0.069 C 
BRANCH  15  16
ATOM     16  N   UNL     1      35.111 -19.506 -20.632  0.00  0.00    +0.387 N 
ATOM     17  C   UNL     1      35.943 -20.683 -20.343  0.00  0.00    -0.077 C 
ATOM     18  C   UNL     1      33.740 -19.900 -20.988  0.00  0.00    -0.077 C 
ATOM     19  C   UNL     1      35.359 -21.502 -19.192  0.00  0.00    -0.023 C 
ATOM     20  C   UNL     1      33.084 -20.695 -19.858  0.00  0.00    -0.023 C 
ATOM     21  C   UNL     1      33.919 -21.913 -19.479  0.00  0.00    -0.004 C 
ATOM     22  H   UNL     1      35.065 -18.938 -19.786  0.00  0.00    -0.080 HD
ENDBRANCH  15  16
ENDBRANCH  14  15
ENDBRANCH   2  14
TORSDOF 8
ENDMDL
MODEL 3
REMARK VINA RESULT:      -8.9      1.069      1.599
REMARK  Name = 3180
REMARK  8 active torsions:
REMARK  status: ('A' for Active; 'I' for Inactive)
REMARK    1  A    between atoms: C_2  and  C_3
REMARK    2  A    between atoms: C_2  and  C_14
REMARK    3  A    between atoms: C_6  and  O_9
REMARK    4  A    between atoms: O_9  and  C_10
REMARK    5  A    between atoms: C_10  and  C_11
REMARK    6  A    between atoms: C_11  and  C_12
REMARK    7  A    between atoms: C_14  and  C_15
REMARK    8  A    between atoms: C_15  and  N_16
REMARK                            x       y       z     vdW  Elec       q    Type
REMARK                         _______ _______ _______ _____ _____    ______ ____
ROOT
ATOM      1  O   UNL     1      34.923 -19.377 -22.947  0.00  0.00    -0.291 OA
ATOM      2  C   UNL     1      34.781 -19.063 -21.768  0.00  0.00    +0.171 C 
ENDROOT
BRANCH   2   3
ATOM      3  C   UNL     1      34.675 -20.135 -20.735  0.00  0.00    +0.035 C 
ATOM      4  C   UNL     1      33.424 -20.526 -20.316  0.00  0.00    +0.006 C 
ATOM      5  C   UNL     1      35.833 -20.692 -20.243  0.00  0.00    +0.006 C 
ATOM      6  C   UNL     1      34.479 -22.113 -18.832  0.00  0.00    +0.139 C 
ATOM      7  C   UNL     1      33.324 -21.529 -19.352  0.00  0.00    +0.037 C 
ATOM      8  C   UNL     1      35.733 -21.695 -19.278  0.00  0.00    +0.037 C 
BRANCH   6   9
ATOM      9  O   UNL     1      34.382 -23.093 -17.893  0.00  0.00    -0.475 OA
BRANCH   9  10
ATOM     10  C   UNL     1      33.104 -23.288 -17.289  0.00  0.00    +0.205 C 
BRANCH  10  11
ATOM     11  C   UNL     1      33.287 -23.410 -15.782  0.00  0.00    +0.047 C 
BRANCH  11  12
ATOM     12  C   UNL     1      31.989 -23.125 -15.033  0.00  0.00    +0.004 C 
ATOM     13  C   UNL     1      30.812 -22.996 -15.985  0.00  0.00    +0.000 C 
ENDBRANCH  11  12
ENDBRANCH  10  11
ENDBRANCH   9  10
ENDBRANCH   6   9
ENDBRANCH   2   3
BRANCH   2  14
ATOM     14  C   UNL     1      34.710 -17.609 -21.322  0.00  0.00    +0.046 C 
BRANCH  14  15
ATOM     15  C   UNL     1      35.078 -16.644 -22.448  0.00  0.00    -0.069 C 
BRANCH  15  16
ATOM     16  N   UNL     1      34.474 -15.330 -22.235  0.00  0.00    +0.387 N 
ATOM     17  C   UNL     1      33.274 -15.445 -21.394  0.00  0.00    -0.077 C 
ATOM     18  C   UNL     1      34.160 -14.693 -23.522  0.00  0.00    -0.077 C 
ATOM     19  C   UNL     1      32.658 -14.073 -21.119  0.00  0.00    -0.023 C 
ATOM     20  C   UNL     1      33.572 -13.296 -23.317  0.00  0.00    -0.023 C 
ATOM     21  C   UNL     1      32.342 -13.337 -22.417  0.00  0.00    -0.004 C 
ATOM     22  H   UNL     1      35.144 -14.737 -21.746  0.00  0.00    -0.080 HD
ENDBRANCH  15  16
ENDBRANCH  14  15
ENDBRANCH   2  14
TORSDOF 8
ENDMDL
MODEL 4
REMARK VINA RESULT:      -8.9      1.476      2.306
REMARK  Name = 3180
REMARK  8 active torsions:
REMARK  status: ('A' for Active; 'I' for Inactive)
REMARK    1  A    between atoms: C_2  and  C_3
REMARK    2  A    between atoms: C_2  and  C_14
REMARK    3  A    between atoms: C_6  and  O_9
REMARK    4  A    between atoms: O_9  and  C_10
REMARK    5  A    between atoms: C_10  and  C_11
REMARK    6  A    between atoms: C_11  and  C_12
REMARK    7  A    between atoms: C_14  and  C_15
REMARK    8  A    between atoms: C_15  and  N_16
REMARK                            x       y       z     vdW  Elec       q    Type
REMARK                         _______ _______ _______ _____ _____    ______ ____
ROOT
ATOM      1  O   UNL     1      36.656 -18.967 -20.964  0.00  0.00    -0.291 OA
ATOM      2  C   UNL     1      35.517 -19.333 -21.243  0.00  0.00    +0.171 C 
ENDROOT
BRANCH   2   3
ATOM      3  C   UNL     1      34.846 -20.349 -20.380  0.00  0.00    +0.035 C 
ATOM      4  C   UNL     1      35.625 -21.269 -19.716  0.00  0.00    +0.006 C 
ATOM      5  C   UNL     1      33.473 -20.325 -20.280  0.00  0.00    +0.006 C 
ATOM      6  C   UNL     1      33.608 -22.220 -18.786  0.00  0.00    +0.139 C 
ATOM      7  C   UNL     1      34.998 -22.217 -18.908  0.00  0.00    +0.037 C 
ATOM      8  C   UNL     1      32.846 -21.273 -19.472  0.00  0.00    +0.037 C 
BRANCH   6   9
ATOM      9  O   UNL     1      32.996 -23.144 -17.996  0.00  0.00    -0.475 OA
BRANCH   9  10
ATOM     10  C   UNL     1      33.601 -23.420 -16.734  0.00  0.00    +0.205 C 
BRANCH  10  11
ATOM     11  C   UNL     1      32.589 -23.140 -15.632  0.00  0.00    +0.047 C 
BRANCH  11  12
ATOM     12  C   UNL     1      31.169 -23.045 -16.182  0.00  0.00    +0.004 C 
ATOM     13  C   UNL     1      30.148 -23.563 -15.182  0.00  0.00    +0.000 C 
ENDBRANCH  11  12
ENDBRANCH  10  11
ENDBRANCH   9  10
ENDBRANCH   6   9
ENDBRANCH   2   3
BRANCH   2  14
ATOM     14  C   UNL     1      34.763 -18.783 -22.445  0.00  0.00    +0.046 C 
BRANCH  14  15
ATOM     15  C   UNL     1      35.708 -18.263 -23.527  0.00  0.00    -0.069 C 
BRANCH  15  16
ATOM     16  N   UNL     1      35.284 -16.948 -24.009  0.00  0.00    +0.387 N 
ATOM     17  C   UNL     1      34.810 -16.118 -22.893  0.00  0.00    -0.077 C 
ATOM     18  C   UNL     1      34.249 -17.090 -25.043  0.00  0.00    -0.077 C 
ATOM     19  C   UNL     1      34.410 -14.723 -23.373  0.00  0.00    -0.023 C 
ATOM     20  C   UNL     1      33.829 -15.726 -25.593  0.00  0.00    -0.023 C 
ATOM     21  C   UNL     1      33.362 -14.797 -24.478  0.00  0.00    -0.004 C 
ATOM     22  H   UNL     1      36.086 -16.480 -24.430  0.00  0.00    -0.080 HD
ENDBRANCH  15  16
ENDBRANCH  14  15
ENDBRANCH   2  14
TORSDOF 8
ENDMDL
MODEL 5
REMARK VINA RESULT:      -8.8      1.727      2.698
REMARK  Name = 3180
REMARK  8 active torsions:
REMARK  status: ('A' for Active; 'I' for Inactive)
REMARK    1  A    between atoms: C_2  and  C_3
REMARK    2  A    between atoms: C_2  and  C_14
REMARK    3  A    between atoms: C_6  and  O_9
REMARK    4  A    between atoms: O_9  and  C_10
REMARK    5  A    between atoms: C_10  and  C_11
REMARK    6  A    between atoms: C_11  and  C_12
REMARK    7  A    between atoms: C_14  and  C_15
REMARK    8  A    between atoms: C_15  and  N_16
REMARK                            x       y       z     vdW  Elec       q    Type
REMARK                         _______ _______ _______ _____ _____    ______ ____
ROOT
ATOM      1  O   UNL     1      35.835 -18.115 -20.751  0.00  0.00    -0.291 OA
ATOM      2  C   UNL     1      35.155 -19.019 -21.229  0.00  0.00    +0.171 C 
ENDROOT
BRANCH   2   3
ATOM      3  C   UNL     1      34.826 -20.207 -20.389  0.00  0.00    +0.035 C 
ATOM      4  C   UNL     1      35.857 -20.909 -19.806  0.00  0.00    +0.006 C 
ATOM      5  C   UNL     1      33.504 -20.555 -20.228  0.00  0.00    +0.006 C 
ATOM      6  C   UNL     1      34.219 -22.398 -18.838  0.00  0.00    +0.139 C 
ATOM      7  C   UNL     1      35.550 -22.019 -19.019  0.00  0.00    +0.037 C 
ATOM      8  C   UNL     1      33.197 -21.665 -19.441  0.00  0.00    +0.037 C 
BRANCH   6   9
ATOM      9  O   UNL     1      33.919 -23.480 -18.068  0.00  0.00    -0.475 OA
BRANCH   9  10
ATOM     10  C   UNL     1      33.530 -23.228 -16.719  0.00  0.00    +0.205 C 
BRANCH  10  11
ATOM     11  C   UNL     1      34.601 -23.779 -15.788  0.00  0.00    +0.047 C 
BRANCH  11  12
ATOM     12  C   UNL     1      35.568 -22.689 -15.335  0.00  0.00    +0.004 C 
ATOM     13  C   UNL     1      36.986 -22.971 -15.805  0.00  0.00    +0.000 C 
ENDBRANCH  11  12
ENDBRANCH  10  11
ENDBRANCH   9  10
ENDBRANCH   6   9
ENDBRANCH   2   3
BRANCH   2  14
ATOM     14  C   UNL     1      34.632 -18.967 -22.658  0.00  0.00    +0.046 C 
BRANCH  14  15
ATOM     15  C   UNL     1      35.293 -17.854 -23.470  0.00  0.00    -0.069 C 
BRANCH  15  16
ATOM     16  N   UNL     1      34.325 -16.815 -23.825  0.00  0.00    +0.387 N 
ATOM     17  C   UNL     1      34.391 -16.519 -25.263  0.00  0.00    -0.077 C 
ATOM     18  C   UNL     1      34.553 -15.605 -23.023  0.00  0.00    -0.077 C 
ATOM     19  C   UNL     1      33.351 -15.471 -25.659  0.00  0.00    -0.023 C 
ATOM     20  C   UNL     1      33.519 -14.526 -23.346  0.00  0.00    -0.023 C 
ATOM     21  C   UNL     1      33.506 -14.198 -24.835  0.00  0.00    -0.004 C 
ATOM     22  H   UNL     1      33.387 -17.158 -23.618  0.00  0.00    -0.080 HD
ENDBRANCH  15  16
ENDBRANCH  14  15
ENDBRANCH   2  14
TORSDOF 8
ENDMDL
MODEL 6
REMARK VINA RESULT:      -8.8      3.770      6.129
REMARK  Name = 3180
REMARK  8 active torsions:
REMARK  status: ('A' for Active; 'I' for Inactive)
REMARK    1  A    between atoms: C_2  and  C_3
REMARK    2  A    between atoms: C_2  and  C_14
REMARK    3  A    between atoms: C_6  and  O_9
REMARK    4  A    between atoms: O_9  and  C_10
REMARK    5  A    between atoms: C_10  and  C_11
REMARK    6  A    between atoms: C_11  and  C_12
REMARK    7  A    between atoms: C_14  and  C_15
REMARK    8  A    between atoms: C_15  and  N_16
REMARK                            x       y       z     vdW  Elec       q    Type
REMARK                         _______ _______ _______ _____ _____    ______ ____
ROOT
ATOM      1  O   UNL     1      33.430 -13.957 -25.315  0.00  0.00    -0.291 OA
ATOM      2  C   UNL     1      33.570 -13.683 -24.126  0.00  0.00    +0.171 C 
ENDROOT
BRANCH   2   3
ATOM      3  C   UNL     1      34.065 -14.734 -23.189  0.00  0.00    +0.035 C 
ATOM      4  C   UNL     1      34.037 -14.479 -21.837  0.00  0.00    +0.006 C 
ATOM      5  C   UNL     1      34.531 -15.918 -23.714  0.00  0.00    +0.006 C 
ATOM      6  C   UNL     1      34.978 -16.672 -21.462  0.00  0.00    +0.139 C 
ATOM      7  C   UNL     1      34.499 -15.461 -20.961  0.00  0.00    +0.037 C 
ATOM      8  C   UNL     1      34.993 -16.900 -22.838  0.00  0.00    +0.037 C 
BRANCH   6   9
ATOM      9  O   UNL     1      35.428 -17.631 -20.607  0.00  0.00    -0.475 OA
BRANCH   9  10
ATOM     10  C   UNL     1      36.077 -18.762 -21.185  0.00  0.00    +0.205 C 
BRANCH  10  11
ATOM     11  C   UNL     1      35.432 -20.030 -20.641  0.00  0.00    +0.047 C 
BRANCH  11  12
ATOM     12  C   UNL     1      33.914 -19.997 -20.786  0.00  0.00    +0.004 C 
ATOM     13  C   UNL     1      33.239 -20.925 -19.789  0.00  0.00    +0.000 C 
ENDBRANCH  11  12
ENDBRANCH  10  11
ENDBRANCH   9  10
ENDBRANCH   6   9
ENDBRANCH   2   3
BRANCH   2  14
ATOM     14  C   UNL     1      33.253 -12.301 -23.573  0.00  0.00    +0.046 C 
BRANCH  14  15
ATOM     15  C   UNL     1      33.945 -11.193 -24.366  0.00  0.00    -0.069 C 
BRANCH  15  16
ATOM     16  N   UNL     1      33.940  -9.933 -23.624  0.00  0.00    +0.387 N 
ATOM     17  C   UNL     1      32.570  -9.415 -23.498  0.00  0.00    -0.077 C 
ATOM     18  C   UNL     1      34.821  -8.951 -24.273  0.00  0.00    -0.077 C 
ATOM     19  C   UNL     1      32.541  -8.122 -22.682  0.00  0.00    -0.023 C 
ATOM     20  C   UNL     1      34.865  -7.642 -23.483  0.00  0.00    -0.023 C 
ATOM     21  C   UNL     1      33.467  -7.069 -23.280  0.00  0.00    -0.004 C 
ATOM     22  H   UNL     1      34.299 -10.104 -22.685  0.00  0.00    -0.080 HD
ENDBRANCH  15  16
ENDBRANCH  14  15
ENDBRANCH   2  14
TORSDOF 8
ENDMDL
MODEL 7
REMARK VINA RESULT:      -8.8      3.212      8.534
REMARK  Name = 3180
REMARK  8 active torsions:
REMARK  status: ('A' for Active; 'I' for Inactive)
REMARK    1  A    between atoms: C_2  and  C_3
REMARK    2  A    between atoms: C_2  and  C_14
REMARK    3  A    between atoms: C_6  and  O_9
REMARK    4  A    between atoms: O_9  and  C_10
REMARK    5  A    between atoms: C_10  and  C_11
REMARK    6  A    between atoms: C_11  and  C_12
REMARK    7  A    between atoms: C_14  and  C_15
REMARK    8  A    between atoms: C_15  and  N_16
REMARK                            x       y       z     vdW  Elec       q    Type
REMARK                         _______ _______ _______ _____ _____    ______ ____
ROOT
ATOM      1  O   UNL     1      33.941 -23.932 -19.622  0.00  0.00    -0.291 OA
ATOM      2  C   UNL     1      33.897 -22.879 -18.990  0.00  0.00    +0.171 C 
ENDROOT
BRANCH   2   3
ATOM      3  C   UNL     1      34.134 -21.590 -19.702  0.00  0.00    +0.035 C 
ATOM      4  C   UNL     1      35.431 -21.178 -19.908  0.00  0.00    +0.006 C 
ATOM      5  C   UNL     1      33.046 -20.862 -20.128  0.00  0.00    +0.006 C 
ATOM      6  C   UNL     1      34.571 -19.213 -21.019  0.00  0.00    +0.139 C 
ATOM      7  C   UNL     1      35.653 -19.974 -20.576  0.00  0.00    +0.037 C 
ATOM      8  C   UNL     1      33.268 -19.658 -20.795  0.00  0.00    +0.037 C 
BRANCH   6   9
ATOM      9  O   UNL     1      34.788 -18.038 -21.671  0.00  0.00    -0.475 OA
BRANCH   9  10
ATOM     10  C   UNL     1      35.643 -18.080 -22.812  0.00  0.00    +0.205 C 
BRANCH  10  11
ATOM     11  C   UNL     1      35.035 -19.014 -23.849  0.00  0.00    +0.047 C 
BRANCH  11  12
ATOM     12  C   UNL     1      34.226 -18.249 -24.892  0.00  0.00    +0.004 C 
ATOM     13  C   UNL     1      34.827 -16.880 -25.168  0.00  0.00    +0.000 C 
ENDBRANCH  11  12
ENDBRANCH  10  11
ENDBRANCH   9  10
ENDBRANCH   6   9
ENDBRANCH   2   3
BRANCH   2  14
ATOM     14  C   UNL     1      33.606 -22.846 -17.496  0.00  0.00    +0.046 C 
BRANCH  14  15
ATOM     15  C   UNL     1      32.107 -22.832 -17.203  0.00  0.00    -0.069 C 
BRANCH  15  16
ATOM     16  N   UNL     1      31.838 -23.205 -15.815  0.00  0.00    +0.387 N 
ATOM     17  C   UNL     1      33.049 -23.748 -15.183  0.00  0.00    -0.077 C 
ATOM     18  C   UNL     1      30.728 -24.167 -15.746  0.00  0.00    -0.077 C 
ATOM     19  C   UNL     1      32.798 -24.097 -13.716  0.00  0.00    -0.023 C 
ATOM     20  C   UNL     1      30.401 -24.530 -14.297  0.00  0.00    -0.023 C 
ATOM     21  C   UNL     1      31.629 -25.064 -13.568  0.00  0.00    -0.004 C 
ATOM     22  H   UNL     1      31.562 -22.370 -15.299  0.00  0.00    -0.080 HD
ENDBRANCH  15  16
ENDBRANCH  14  15
ENDBRANCH   2  14
TORSDOF 8
ENDMDL
MODEL 8
REMARK VINA RESULT:      -8.5      3.677      6.378
REMARK  Name = 3180
REMARK  8 active torsions:
REMARK  status: ('A' for Active; 'I' for Inactive)
REMARK    1  A    between atoms: C_2  and  C_3
REMARK    2  A    between atoms: C_2  and  C_14
REMARK    3  A    between atoms: C_6  and  O_9
REMARK    4  A    between atoms: O_9  and  C_10
REMARK    5  A    between atoms: C_10  and  C_11
REMARK    6  A    between atoms: C_11  and  C_12
REMARK    7  A    between atoms: C_14  and  C_15
REMARK    8  A    between atoms: C_15  and  N_16
REMARK                            x       y       z     vdW  Elec       q    Type
REMARK                         _______ _______ _______ _____ _____    ______ ____
ROOT
ATOM      1  O   UNL     1      32.891 -12.428 -23.560  0.00  0.00    -0.291 OA
ATOM      2  C   UNL     1      32.756 -12.954 -22.458  0.00  0.00    +0.171 C 
ENDROOT
BRANCH   2   3
ATOM      3  C   UNL     1      33.506 -14.207 -22.151  0.00  0.00    +0.035 C 
ATOM      4  C   UNL     1      33.513 -14.671 -20.855  0.00  0.00    +0.006 C 
ATOM      5  C   UNL     1      34.160 -14.851 -23.176  0.00  0.00    +0.006 C 
ATOM      6  C   UNL     1      34.887 -16.519 -21.585  0.00  0.00    +0.139 C 
ATOM      7  C   UNL     1      34.213 -15.843 -20.568  0.00  0.00    +0.037 C 
ATOM      8  C   UNL     1      34.859 -16.024 -22.889  0.00  0.00    +0.037 C 
BRANCH   6   9
ATOM      9  O   UNL     1      35.567 -17.664 -21.306  0.00  0.00    -0.475 OA
BRANCH   9  10
ATOM     10  C   UNL     1      34.983 -18.889 -21.745  0.00  0.00    +0.205 C 
BRANCH  10  11
ATOM     11  C   UNL     1      35.259 -19.966 -20.704  0.00  0.00    +0.047 C 
BRANCH  11  12
ATOM     12  C   UNL     1      33.969 -20.600 -20.193  0.00  0.00    +0.004 C 
ATOM     13  C   UNL     1      32.748 -19.804 -20.624  0.00  0.00    +0.000 C 
ENDBRANCH  11  12
ENDBRANCH  10  11
ENDBRANCH   9  10
ENDBRANCH   6   9
ENDBRANCH   2   3
BRANCH   2  14
ATOM     14  C   UNL     1      31.846 -12.365 -21.389  0.00  0.00    +0.046 C 
BRANCH  14  15
ATOM     15  C   UNL     1      31.076 -11.147 -21.897  0.00  0.00    -0.069 C 
BRANCH  15  16
ATOM     16  N   UNL     1      31.923  -9.954 -21.903  0.00  0.00    +0.387 N 
ATOM     17  C   UNL     1      31.846  -9.261 -20.609  0.00  0.00    -0.077 C 
ATOM     18  C   UNL     1      31.543  -9.061 -23.007  0.00  0.00    -0.077 C 
ATOM     19  C   UNL     1      32.763  -8.039 -20.582  0.00  0.00    -0.023 C 
ATOM     20  C   UNL     1      32.451  -7.831 -23.058  0.00  0.00    -0.023 C 
ATOM     21  C   UNL     1      32.449  -7.084 -21.729  0.00  0.00    -0.004 C 
ATOM     22  H   UNL     1      32.890 -10.240 -22.049  0.00  0.00    -0.080 HD
ENDBRANCH  15  16
ENDBRANCH  14  15
ENDBRANCH   2  14
TORSDOF 8
ENDMDL
MODEL 9
REMARK VINA RESULT:      -8.5      3.966      6.941
REMARK  Name = 3180
REMARK  8 active torsions:
REMARK  status: ('A' for Active; 'I' for Inactive)
REMARK    1  A    between atoms: C_2  and  C_3
REMARK    2  A    between atoms: C_2  and  C_14
REMARK    3  A    between atoms: C_6  and  O_9
REMARK    4  A    between atoms: O_9  and  C_10
REMARK    5  A    between atoms: C_10  and  C_11
REMARK    6  A    between atoms: C_11  and  C_12
REMARK    7  A    between atoms: C_14  and  C_15
REMARK    8  A    between atoms: C_15  and  N_16
REMARK                            x       y       z     vdW  Elec       q    Type
REMARK                         _______ _______ _______ _____ _____    ______ ____
ROOT
ATOM      1  O   UNL     1      31.647 -11.892 -19.861  0.00  0.00    -0.291 OA
ATOM      2  C   UNL     1      31.752 -12.153 -21.057  0.00  0.00    +0.171 C 
ENDROOT
BRANCH   2   3
ATOM      3  C   UNL     1      32.449 -13.406 -21.471  0.00  0.00    +0.035 C 
ATOM      4  C   UNL     1      32.753 -13.583 -22.801  0.00  0.00    +0.006 C 
ATOM      5  C   UNL     1      32.762 -14.335 -20.505  0.00  0.00    +0.006 C 
ATOM      6  C   UNL     1      33.736 -15.716 -22.234  0.00  0.00    +0.139 C 
ATOM      7  C   UNL     1      33.406 -14.753 -23.189  0.00  0.00    +0.037 C 
ATOM      8  C   UNL     1      33.415 -15.506 -20.893  0.00  0.00    +0.037 C 
BRANCH   6   9
ATOM      9  O   UNL     1      34.374 -16.857 -22.612  0.00  0.00    -0.475 OA
BRANCH   9  10
ATOM     10  C   UNL     1      34.905 -17.677 -21.572  0.00  0.00    +0.205 C 
BRANCH  10  11
ATOM     11  C   UNL     1      34.683 -19.138 -21.937  0.00  0.00    +0.047 C 
BRANCH  11  12
ATOM     12  C   UNL     1      34.343 -19.980 -20.712  0.00  0.00    +0.004 C 
ATOM     13  C   UNL     1      32.842 -20.049 -20.483  0.00  0.00    +0.000 C 
ENDBRANCH  11  12
ENDBRANCH  10  11
ENDBRANCH   9  10
ENDBRANCH   6   9
ENDBRANCH   2   3
BRANCH   2  14
ATOM     14  C   UNL     1      31.192 -11.237 -22.136  0.00  0.00    +0.046 C 
BRANCH  14  15
ATOM     15  C   UNL     1      31.503  -9.767 -21.859  0.00  0.00    -0.069 C 
BRANCH  15  16
ATOM     16  N   UNL     1      32.830  -9.406 -22.358  0.00  0.00    +0.387 N 
ATOM     17  C   UNL     1      32.968  -7.945 -22.444  0.00  0.00    -0.077 C 
ATOM     18  C   UNL     1      33.078 -10.041 -23.661  0.00  0.00    -0.077 C 
ATOM     19  C   UNL     1      34.367  -7.550 -22.918  0.00  0.00    -0.023 C 
ATOM     20  C   UNL     1      34.482  -9.713 -24.174  0.00  0.00    -0.023 C 
ATOM     21  C   UNL     1      34.708  -8.207 -24.250  0.00  0.00    -0.004 C 
ATOM     22  H   UNL     1      33.531  -9.750 -21.702  0.00  0.00    -0.080 HD
ENDBRANCH  15  16
ENDBRANCH  14  15
ENDBRANCH   2  14
TORSDOF 8
ENDMDL
