MODEL 1
REMARK VINA RESULT:     -11.2      0.000      0.000
REMARK  Name = 56069
REMARK  8 active torsions:
REMARK  status: ('A' for Active; 'I' for Inactive)
REMARK    1  A    between atoms: N_2  and  C_5
REMARK    2  A    between atoms: C_3  and  C_17
REMARK    3  A    between atoms: C_8  and  C_14
REMARK    4  A    between atoms: C_9  and  C_16
REMARK    5  A    between atoms: C_17  and  O_19
REMARK    6  A    between atoms: C_17  and  C_21
REMARK    7  A    between atoms: C_21  and  S_22
REMARK    8  A    between atoms: S_22  and  C_26
REMARK                            x       y       z     vdW  Elec       q    Type
REMARK                         _______ _______ _______ _____ _____    ______ ____
ROOT
ATOM      1  O   UNL     1      32.902 -15.564 -22.183  0.00  0.00    -0.272 OA
ATOM      2  N   UNL     1      34.059 -14.195 -23.689  0.00  0.00    -0.282 N 
ATOM      3  C   UNL     1      33.739 -15.397 -23.069  0.00  0.00    +0.252 C 
ATOM      4  H   UNL     1      34.755 -14.236 -24.384  0.00  0.00    +0.155 HD
ENDROOT
BRANCH   2   5
ATOM      5  C   UNL     1      33.502 -12.917 -23.439  0.00  0.00    +0.050 C 
ATOM      6  C   UNL     1      32.719 -12.728 -22.313  0.00  0.00    +0.019 C 
ATOM      7  C   UNL     1      33.752 -11.885 -24.327  0.00  0.00    +0.015 C 
ATOM      8  C   UNL     1      32.171 -11.469 -22.067  0.00  0.00    +0.082 C 
ATOM      9  C   UNL     1      32.413 -10.417 -22.951  0.00  0.00    +0.072 C 
ATOM     10  C   UNL     1      33.204 -10.626 -24.081  0.00  0.00    +0.011 C 
BRANCH   8  14
ATOM     11  F   UNL     1      31.548 -10.098 -20.208  0.00  0.00    -0.166 F 
ATOM     12  F   UNL     1      29.988 -11.312 -21.101  0.00  0.00    -0.166 F 
ATOM     13  F   UNL     1      31.546 -12.252 -19.911  0.00  0.00    -0.166 F 
ATOM     14  C   UNL     1      31.328 -11.284 -20.845  0.00  0.00    +0.419 C 
ENDBRANCH   8  14
BRANCH   9  16
ATOM     15  N   UNL     1      31.414  -8.064 -22.535  0.00  0.00    -0.191 NA
ATOM     16  C   UNL     1      31.861  -9.117 -22.721  0.00  0.00    +0.100 C 
ENDBRANCH   9  16
ENDBRANCH   2   5
BRANCH   3  17
ATOM     17  C   UNL     1      34.558 -16.585 -23.607  0.00  0.00    +0.179 C 
ATOM     18  C   UNL     1      34.268 -16.806 -25.097  0.00  0.00    +0.041 C 
BRANCH  17  19
ATOM     19  O   UNL     1      35.941 -16.253 -23.491  0.00  0.00    -0.377 OA
ATOM     20  H   UNL     1      36.240 -15.816 -24.304  0.00  0.00    +0.211 HD
ENDBRANCH  17  19
BRANCH  17  21
ATOM     21  C   UNL     1      34.327 -17.881 -22.826  0.00  0.00    +0.191 C 
BRANCH  21  22
ATOM     22  S   UNL     1      35.519 -18.152 -21.547  0.00  0.00    +0.012 S 
ATOM     23  O   UNL     1      35.421 -17.070 -20.585  0.00  0.00    -0.169 OA
ATOM     24  O   UNL     1      36.788 -18.454 -22.185  0.00  0.00    -0.169 OA
BRANCH  22  26
ATOM     25  F   UNL     1      33.630 -23.024 -18.862  0.00  0.00    -0.204 F 
ATOM     26  C   UNL     1      34.951 -19.618 -20.740  0.00  0.00    +0.106 C 
ATOM     27  C   UNL     1      35.878 -20.519 -20.245  0.00  0.00    +0.021 C 
ATOM     28  C   UNL     1      33.589 -19.838 -20.617  0.00  0.00    +0.021 C 
ATOM     29  C   UNL     1      35.429 -21.676 -19.607  0.00  0.00    +0.031 C 
ATOM     30  C   UNL     1      33.141 -20.994 -19.979  0.00  0.00    +0.031 C 
ATOM     31  C   UNL     1      34.061 -21.913 -19.473  0.00  0.00    +0.140 C 
ENDBRANCH  22  26
ENDBRANCH  21  22
ENDBRANCH  17  21
ENDBRANCH   3  17
TORSDOF 8
ENDMDL
MODEL 2
REMARK VINA RESULT:     -10.7      2.067      2.706
REMARK  Name = 56069
REMARK  8 active torsions:
REMARK  status: ('A' for Active; 'I' for Inactive)
REMARK    1  A    between atoms: N_2  and  C_5
REMARK    2  A    between atoms: C_3  and  C_17
REMARK    3  A    between atoms: C_8  and  C_14
REMARK    4  A    between atoms: C_9  and  C_16
REMARK    5  A    between atoms: C_17  and  O_19
REMARK    6  A    between atoms: C_17  and  C_21
REMARK    7  A    between atoms: C_21  and  S_22
REMARK    8  A    between atoms: S_22  and  C_26
REMARK                            x       y       z     vdW  Elec       q    Type
REMARK                         _______ _______ _______ _____ _____    ______ ____
ROOT
ATOM      1  O   UNL     1      34.617 -14.328 -21.590  0.00  0.00    -0.272 OA
ATOM      2  N   UNL     1      33.507 -13.670 -23.543  0.00  0.00    -0.282 N 
ATOM      3  C   UNL     1      34.210 -14.551 -22.729  0.00  0.00    +0.252 C 
ATOM      4  H   UNL     1      33.253 -14.010 -24.432  0.00  0.00    +0.155 HD
ENDROOT
BRANCH   2   5
ATOM      5  C   UNL     1      33.114 -12.344 -23.246  0.00  0.00    +0.050 C 
ATOM      6  C   UNL     1      33.850 -11.288 -23.755  0.00  0.00    +0.019 C 
ATOM      7  C   UNL     1      32.000 -12.131 -22.451  0.00  0.00    +0.015 C 
ATOM      8  C   UNL     1      33.462  -9.981 -23.462  0.00  0.00    +0.082 C 
ATOM      9  C   UNL     1      32.342  -9.748 -22.663  0.00  0.00    +0.072 C 
ATOM     10  C   UNL     1      31.611 -10.823 -22.158  0.00  0.00    +0.011 C 
BRANCH   8  14
ATOM     11  F   UNL     1      33.529  -7.952 -24.728  0.00  0.00    -0.166 F 
ATOM     12  F   UNL     1      34.913  -8.121 -23.066  0.00  0.00    -0.166 F 
ATOM     13  F   UNL     1      35.242  -9.283 -24.874  0.00  0.00    -0.166 F 
ATOM     14  C   UNL     1      34.270  -8.853 -24.021  0.00  0.00    +0.419 C 
ENDBRANCH   8  14
BRANCH   9  16
ATOM     15  N   UNL     1      31.585  -7.338 -22.092  0.00  0.00    -0.191 NA
ATOM     16  C   UNL     1      31.923  -8.416 -22.347  0.00  0.00    +0.100 C 
ENDBRANCH   9  16
ENDBRANCH   2   5
BRANCH   3  17
ATOM     17  C   UNL     1      34.457 -15.917 -23.397  0.00  0.00    +0.179 C 
ATOM     18  C   UNL     1      33.719 -15.999 -24.738  0.00  0.00    +0.041 C 
BRANCH  17  19
ATOM     19  O   UNL     1      35.853 -16.024 -23.674  0.00  0.00    -0.377 OA
ATOM     20  H   UNL     1      36.333 -15.336 -23.187  0.00  0.00    +0.211 HD
ENDBRANCH  17  19
BRANCH  17  21
ATOM     21  C   UNL     1      34.070 -17.101 -22.507  0.00  0.00    +0.191 C 
BRANCH  21  22
ATOM     22  S   UNL     1      35.240 -18.427 -22.556  0.00  0.00    +0.012 S 
ATOM     23  O   UNL     1      36.518 -17.936 -22.077  0.00  0.00    -0.169 OA
ATOM     24  O   UNL     1      35.138 -19.056 -23.860  0.00  0.00    -0.169 OA
BRANCH  22  26
ATOM     25  F   UNL     1      33.239 -22.230 -18.549  0.00  0.00    -0.204 F 
ATOM     26  C   UNL     1      34.638 -19.570 -21.350  0.00  0.00    +0.106 C 
ATOM     27  C   UNL     1      33.282 -19.609 -21.072  0.00  0.00    +0.021 C 
ATOM     28  C   UNL     1      35.533 -20.407 -20.705  0.00  0.00    +0.021 C 
ATOM     29  C   UNL     1      32.807 -20.512 -20.122  0.00  0.00    +0.031 C 
ATOM     30  C   UNL     1      35.058 -21.310 -19.755  0.00  0.00    +0.031 C 
ATOM     31  C   UNL     1      33.695 -21.363 -19.463  0.00  0.00    +0.140 C 
ENDBRANCH  22  26
ENDBRANCH  21  22
ENDBRANCH  17  21
ENDBRANCH   3  17
TORSDOF 8
ENDMDL
MODEL 3
REMARK VINA RESULT:      -9.7      1.918      2.464
REMARK  Name = 56069
REMARK  8 active torsions:
REMARK  status: ('A' for Active; 'I' for Inactive)
REMARK    1  A    between atoms: N_2  and  C_5
REMARK    2  A    between atoms: C_3  and  C_17
REMARK    3  A    between atoms: C_8  and  C_14
REMARK    4  A    between atoms: C_9  and  C_16
REMARK    5  A    between atoms: C_17  and  O_19
REMARK    6  A    between atoms: C_17  and  C_21
REMARK    7  A    between atoms: C_21  and  S_22
REMARK    8  A    between atoms: S_22  and  C_26
REMARK                            x       y       z     vdW  Elec       q    Type
REMARK                         _______ _______ _______ _____ _____    ______ ____
ROOT
ATOM      1  O   UNL     1      35.749 -15.671 -23.000  0.00  0.00    -0.272 OA
ATOM      2  N   UNL     1      33.455 -15.612 -23.466  0.00  0.00    -0.282 N 
ATOM      3  C   UNL     1      34.710 -16.206 -23.384  0.00  0.00    +0.252 C 
ATOM      4  H   UNL     1      32.724 -16.184 -23.794  0.00  0.00    +0.155 HD
ENDROOT
BRANCH   2   5
ATOM      5  C   UNL     1      33.104 -14.282 -23.131  0.00  0.00    +0.050 C 
ATOM      6  C   UNL     1      33.598 -13.238 -23.894  0.00  0.00    +0.019 C 
ATOM      7  C   UNL     1      32.274 -14.053 -22.047  0.00  0.00    +0.015 C 
ATOM      8  C   UNL     1      33.252 -11.928 -23.565  0.00  0.00    +0.082 C 
ATOM      9  C   UNL     1      32.417 -11.680 -22.476  0.00  0.00    +0.072 C 
ATOM     10  C   UNL     1      31.927 -12.743 -21.717  0.00  0.00    +0.011 C 
BRANCH   8  14
ATOM     11  F   UNL     1      32.848  -9.912 -24.789  0.00  0.00    -0.166 F 
ATOM     12  F   UNL     1      34.755 -10.078 -23.769  0.00  0.00    -0.166 F 
ATOM     13  F   UNL     1      34.373 -11.261 -25.553  0.00  0.00    -0.166 F 
ATOM     14  C   UNL     1      33.796 -10.813 -24.401  0.00  0.00    +0.419 C 
ENDBRANCH   8  14
BRANCH   9  16
ATOM     15  N   UNL     1      31.748  -9.263 -21.826  0.00  0.00    -0.191 NA
ATOM     16  C   UNL     1      32.047 -10.345 -22.117  0.00  0.00    +0.100 C 
ENDBRANCH   9  16
ENDBRANCH   2   5
BRANCH   3  17
ATOM     17  C   UNL     1      34.705 -17.678 -23.836  0.00  0.00    +0.179 C 
ATOM     18  C   UNL     1      33.832 -17.854 -25.085  0.00  0.00    +0.041 C 
BRANCH  17  19
ATOM     19  O   UNL     1      36.040 -18.029 -24.200  0.00  0.00    -0.377 OA
ATOM     20  H   UNL     1      36.364 -18.727 -23.609  0.00  0.00    +0.211 HD
ENDBRANCH  17  19
BRANCH  17  21
ATOM     21  C   UNL     1      34.256 -18.644 -22.737  0.00  0.00    +0.191 C 
BRANCH  21  22
ATOM     22  S   UNL     1      35.317 -18.639 -21.321  0.00  0.00    +0.012 S 
ATOM     23  O   UNL     1      34.994 -17.484 -20.504  0.00  0.00    -0.169 OA
ATOM     24  O   UNL     1      36.676 -18.850 -21.789  0.00  0.00    -0.169 OA
BRANCH  22  26
ATOM     25  F   UNL     1      33.672 -23.403 -18.302  0.00  0.00    -0.204 F 
ATOM     26  C   UNL     1      34.823 -20.072 -20.414  0.00  0.00    +0.106 C 
ATOM     27  C   UNL     1      35.792 -20.874 -19.836  0.00  0.00    +0.021 C 
ATOM     28  C   UNL     1      33.475 -20.367 -20.297  0.00  0.00    +0.021 C 
ATOM     29  C   UNL     1      35.402 -22.005 -19.118  0.00  0.00    +0.031 C 
ATOM     30  C   UNL     1      33.085 -21.497 -19.580  0.00  0.00    +0.031 C 
ATOM     31  C   UNL     1      34.048 -22.316 -18.990  0.00  0.00    +0.140 C 
ENDBRANCH  22  26
ENDBRANCH  21  22
ENDBRANCH  17  21
ENDBRANCH   3  17
TORSDOF 8
ENDMDL
MODEL 4
REMARK VINA RESULT:      -9.7      5.045     10.767
REMARK  Name = 56069
REMARK  8 active torsions:
REMARK  status: ('A' for Active; 'I' for Inactive)
REMARK    1  A    between atoms: N_2  and  C_5
REMARK    2  A    between atoms: C_3  and  C_17
REMARK    3  A    between atoms: C_8  and  C_14
REMARK    4  A    between atoms: C_9  and  C_16
REMARK    5  A    between atoms: C_17  and  O_19
REMARK    6  A    between atoms: C_17  and  C_21
REMARK    7  A    between atoms: C_21  and  S_22
REMARK    8  A    between atoms: S_22  and  C_26
REMARK                            x       y       z     vdW  Elec       q    Type
REMARK                         _______ _______ _______ _____ _____    ______ ____
ROOT
ATOM      1  O   UNL     1      33.923 -10.654 -23.776  0.00  0.00    -0.272 OA
ATOM      2  N   UNL     1      32.402 -12.174 -22.853  0.00  0.00    -0.282 N 
ATOM      3  C   UNL     1      32.909 -10.910 -23.130  0.00  0.00    +0.252 C 
ATOM      4  H   UNL     1      31.574 -12.203 -22.321  0.00  0.00    +0.155 HD
ENDROOT
BRANCH   2   5
ATOM      5  C   UNL     1      32.935 -13.425 -23.245  0.00  0.00    +0.050 C 
ATOM      6  C   UNL     1      33.462 -14.270 -22.283  0.00  0.00    +0.019 C 
ATOM      7  C   UNL     1      32.919 -13.777 -24.584  0.00  0.00    +0.015 C 
ATOM      8  C   UNL     1      33.987 -15.503 -22.671  0.00  0.00    +0.082 C 
ATOM      9  C   UNL     1      33.979 -15.873 -24.015  0.00  0.00    +0.072 C 
ATOM     10  C   UNL     1      33.444 -15.011 -24.972  0.00  0.00    +0.011 C 
BRANCH   8  14
ATOM     11  F   UNL     1      33.778 -17.497 -21.365  0.00  0.00    -0.166 F 
ATOM     12  F   UNL     1      35.784 -16.895 -21.927  0.00  0.00    -0.166 F 
ATOM     13  F   UNL     1      34.698 -15.770 -20.417  0.00  0.00    -0.166 F 
ATOM     14  C   UNL     1      34.551 -16.402 -21.616  0.00  0.00    +0.419 C 
ENDBRANCH   8  14
BRANCH   9  16
ATOM     15  N   UNL     1      34.944 -18.152 -24.780  0.00  0.00    -0.191 NA
ATOM     16  C   UNL     1      34.512 -17.132 -24.438  0.00  0.00    +0.100 C 
ENDBRANCH   9  16
ENDBRANCH   2   5
BRANCH   3  17
ATOM     17  C   UNL     1      32.052  -9.777 -22.534  0.00  0.00    +0.179 C 
ATOM     18  C   UNL     1      30.671 -10.306 -22.129  0.00  0.00    +0.041 C 
BRANCH  17  19
ATOM     19  O   UNL     1      32.695  -9.319 -21.345  0.00  0.00    -0.377 OA
ATOM     20  H   UNL     1      32.058  -8.829 -20.801  0.00  0.00    +0.211 HD
ENDBRANCH  17  19
BRANCH  17  21
ATOM     21  C   UNL     1      31.904  -8.576 -23.472  0.00  0.00    +0.191 C 
BRANCH  21  22
ATOM     22  S   UNL     1      32.752  -7.132 -22.901  0.00  0.00    +0.012 S 
ATOM     23  O   UNL     1      34.176  -7.411 -22.875  0.00  0.00    -0.169 OA
ATOM     24  O   UNL     1      32.072  -6.667 -21.705  0.00  0.00    -0.169 OA
BRANCH  22  26
ATOM     25  F   UNL     1      31.844  -3.184 -27.156  0.00  0.00    -0.204 F 
ATOM     26  C   UNL     1      32.478  -5.945 -24.181  0.00  0.00    +0.106 C 
ATOM     27  C   UNL     1      31.409  -5.071 -24.076  0.00  0.00    +0.021 C 
ATOM     28  C   UNL     1      33.337  -5.910 -25.266  0.00  0.00    +0.021 C 
ATOM     29  C   UNL     1      31.194  -4.133 -25.085  0.00  0.00    +0.031 C 
ATOM     30  C   UNL     1      33.122  -4.973 -26.276  0.00  0.00    +0.031 C 
ATOM     31  C   UNL     1      32.051  -4.083 -26.186  0.00  0.00    +0.140 C 
ENDBRANCH  22  26
ENDBRANCH  21  22
ENDBRANCH  17  21
ENDBRANCH   3  17
TORSDOF 8
ENDMDL
MODEL 5
REMARK VINA RESULT:      -9.6      4.019      6.158
REMARK  Name = 56069
REMARK  8 active torsions:
REMARK  status: ('A' for Active; 'I' for Inactive)
REMARK    1  A    between atoms: N_2  and  C_5
REMARK    2  A    between atoms: C_3  and  C_17
REMARK    3  A    between atoms: C_8  and  C_14
REMARK    4  A    between atoms: C_9  and  C_16
REMARK    5  A    between atoms: C_17  and  O_19
REMARK    6  A    between atoms: C_17  and  C_21
REMARK    7  A    between atoms: C_21  and  S_22
REMARK    8  A    between atoms: S_22  and  C_26
REMARK                            x       y       z     vdW  Elec       q    Type
REMARK                         _______ _______ _______ _____ _____    ______ ____
ROOT
ATOM      1  O   UNL     1      32.651 -19.935 -20.810  0.00  0.00    -0.272 OA
ATOM      2  N   UNL     1      34.816 -19.578 -21.627  0.00  0.00    -0.282 N 
ATOM      3  C   UNL     1      33.860 -20.159 -20.801  0.00  0.00    +0.252 C 
ATOM      4  H   UNL     1      35.745 -19.871 -21.490  0.00  0.00    +0.155 HD
ENDROOT
BRANCH   2   5
ATOM      5  C   UNL     1      34.610 -18.614 -22.644  0.00  0.00    +0.050 C 
ATOM      6  C   UNL     1      34.392 -17.294 -22.291  0.00  0.00    +0.019 C 
ATOM      7  C   UNL     1      34.629 -19.014 -23.969  0.00  0.00    +0.015 C 
ATOM      8  C   UNL     1      34.189 -16.344 -23.293  0.00  0.00    +0.082 C 
ATOM      9  C   UNL     1      34.206 -16.730 -24.634  0.00  0.00    +0.072 C 
ATOM     10  C   UNL     1      34.427 -18.065 -24.972  0.00  0.00    +0.011 C 
BRANCH   8  14
ATOM     11  F   UNL     1      34.673 -14.025 -23.630  0.00  0.00    -0.166 F 
ATOM     12  F   UNL     1      32.655 -14.531 -23.014  0.00  0.00    -0.166 F 
ATOM     13  F   UNL     1      34.293 -14.685 -21.593  0.00  0.00    -0.166 F 
ATOM     14  C   UNL     1      33.956 -14.922 -22.893  0.00  0.00    +0.419 C 
ENDBRANCH   8  14
BRANCH   9  16
ATOM     15  N   UNL     1      33.834 -15.002 -26.527  0.00  0.00    -0.191 NA
ATOM     16  C   UNL     1      34.000 -15.775 -25.679  0.00  0.00    +0.100 C 
ENDBRANCH   9  16
ENDBRANCH   2   5
BRANCH   3  17
ATOM     17  C   UNL     1      34.463 -21.172 -19.810  0.00  0.00    +0.179 C 
ATOM     18  C   UNL     1      35.113 -22.339 -20.563  0.00  0.00    +0.041 C 
BRANCH  17  19
ATOM     19  O   UNL     1      35.496 -20.511 -19.081  0.00  0.00    -0.377 OA
ATOM     20  H   UNL     1      36.111 -21.170 -18.721  0.00  0.00    +0.211 HD
ENDBRANCH  17  19
BRANCH  17  21
ATOM     21  C   UNL     1      33.445 -21.700 -18.795  0.00  0.00    +0.191 C 
BRANCH  21  22
ATOM     22  S   UNL     1      34.006 -23.130 -17.917  0.00  0.00    +0.012 S 
ATOM     23  O   UNL     1      35.350 -22.879 -17.432  0.00  0.00    -0.169 OA
ATOM     24  O   UNL     1      33.729 -24.290 -18.745  0.00  0.00    -0.169 OA
BRANCH  22  26
ATOM     25  F   UNL     1      30.489 -23.370 -13.218  0.00  0.00    -0.204 F 
ATOM     26  C   UNL     1      32.948 -23.203 -16.504  0.00  0.00    +0.106 C 
ATOM     27  C   UNL     1      33.491 -23.511 -15.268  0.00  0.00    +0.021 C 
ATOM     28  C   UNL     1      31.595 -22.950 -16.658  0.00  0.00    +0.021 C 
ATOM     29  C   UNL     1      32.656 -23.568 -14.152  0.00  0.00    +0.031 C 
ATOM     30  C   UNL     1      30.761 -23.006 -15.542  0.00  0.00    +0.031 C 
ATOM     31  C   UNL     1      31.291 -23.315 -14.289  0.00  0.00    +0.140 C 
ENDBRANCH  22  26
ENDBRANCH  21  22
ENDBRANCH  17  21
ENDBRANCH   3  17
TORSDOF 8
ENDMDL
MODEL 6
REMARK VINA RESULT:      -9.6      5.056     10.674
REMARK  Name = 56069
REMARK  8 active torsions:
REMARK  status: ('A' for Active; 'I' for Inactive)
REMARK    1  A    between atoms: N_2  and  C_5
REMARK    2  A    between atoms: C_3  and  C_17
REMARK    3  A    between atoms: C_8  and  C_14
REMARK    4  A    between atoms: C_9  and  C_16
REMARK    5  A    between atoms: C_17  and  O_19
REMARK    6  A    between atoms: C_17  and  C_21
REMARK    7  A    between atoms: C_21  and  S_22
REMARK    8  A    between atoms: S_22  and  C_26
REMARK                            x       y       z     vdW  Elec       q    Type
REMARK                         _______ _______ _______ _____ _____    ______ ____
ROOT
ATOM      1  O   UNL     1      33.727 -11.182 -23.690  0.00  0.00    -0.272 OA
ATOM      2  N   UNL     1      32.580 -12.648 -22.271  0.00  0.00    -0.282 N 
ATOM      3  C   UNL     1      32.851 -11.418 -22.861  0.00  0.00    +0.252 C 
ATOM      4  H   UNL     1      31.838 -12.665 -21.624  0.00  0.00    +0.155 HD
ENDROOT
BRANCH   2   5
ATOM      5  C   UNL     1      33.245 -13.878 -22.490  0.00  0.00    +0.050 C 
ATOM      6  C   UNL     1      33.297 -14.401 -23.771  0.00  0.00    +0.019 C 
ATOM      7  C   UNL     1      33.828 -14.533 -21.419  0.00  0.00    +0.015 C 
ATOM      8  C   UNL     1      33.953 -15.614 -23.987  0.00  0.00    +0.082 C 
ATOM      9  C   UNL     1      34.546 -16.286 -22.918  0.00  0.00    +0.072 C 
ATOM     10  C   UNL     1      34.484 -15.745 -21.634  0.00  0.00    +0.011 C 
BRANCH   8  14
ATOM     11  F   UNL     1      33.337 -17.347 -25.518  0.00  0.00    -0.166 F 
ATOM     12  F   UNL     1      33.449 -15.329 -26.308  0.00  0.00    -0.166 F 
ATOM     13  F   UNL     1      35.273 -16.399 -25.802  0.00  0.00    -0.166 F 
ATOM     14  C   UNL     1      33.999 -16.162 -25.378  0.00  0.00    +0.419 C 
ENDBRANCH   8  14
BRANCH   9  16
ATOM     15  N   UNL     1      35.773 -18.540 -23.273  0.00  0.00    -0.191 NA
ATOM     16  C   UNL     1      35.224 -17.531 -23.114  0.00  0.00    +0.100 C 
ENDBRANCH   9  16
ENDBRANCH   2   5
BRANCH   3  17
ATOM     17  C   UNL     1      31.912 -10.300 -22.372  0.00  0.00    +0.179 C 
ATOM     18  C   UNL     1      30.496 -10.846 -22.152  0.00  0.00    +0.041 C 
BRANCH  17  19
ATOM     19  O   UNL     1      32.391  -9.846 -21.106  0.00  0.00    -0.377 OA
ATOM     20  H   UNL     1      32.735  -8.944 -21.195  0.00  0.00    +0.211 HD
ENDBRANCH  17  19
BRANCH  17  21
ATOM     21  C   UNL     1      31.873  -9.092 -23.311  0.00  0.00    +0.191 C 
BRANCH  21  22
ATOM     22  S   UNL     1      32.565  -7.628 -22.601  0.00  0.00    +0.012 S 
ATOM     23  O   UNL     1      33.991  -7.830 -22.421  0.00  0.00    -0.169 OA
ATOM     24  O   UNL     1      31.730  -7.247 -21.476  0.00  0.00    -0.169 OA
BRANCH  22  26
ATOM     25  F   UNL     1      31.916  -3.572 -26.802  0.00  0.00    -0.204 F 
ATOM     26  C   UNL     1      32.369  -6.408 -23.865  0.00  0.00    +0.106 C 
ATOM     27  C   UNL     1      31.227  -5.626 -23.879  0.00  0.00    +0.021 C 
ATOM     28  C   UNL     1      33.362  -6.257 -24.818  0.00  0.00    +0.021 C 
ATOM     29  C   UNL     1      31.073  -4.663 -24.875  0.00  0.00    +0.031 C 
ATOM     30  C   UNL     1      33.208  -5.294 -25.815  0.00  0.00    +0.031 C 
ATOM     31  C   UNL     1      32.064  -4.496 -25.843  0.00  0.00    +0.140 C 
ENDBRANCH  22  26
ENDBRANCH  21  22
ENDBRANCH  17  21
ENDBRANCH   3  17
TORSDOF 8
ENDMDL
MODEL 7
REMARK VINA RESULT:      -9.5      4.658      6.617
REMARK  Name = 56069
REMARK  8 active torsions:
REMARK  status: ('A' for Active; 'I' for Inactive)
REMARK    1  A    between atoms: N_2  and  C_5
REMARK    2  A    between atoms: C_3  and  C_17
REMARK    3  A    between atoms: C_8  and  C_14
REMARK    4  A    between atoms: C_9  and  C_16
REMARK    5  A    between atoms: C_17  and  O_19
REMARK    6  A    between atoms: C_17  and  C_21
REMARK    7  A    between atoms: C_21  and  S_22
REMARK    8  A    between atoms: S_22  and  C_26
REMARK                            x       y       z     vdW  Elec       q    Type
REMARK                         _______ _______ _______ _____ _____    ______ ____
ROOT
ATOM      1  O   UNL     1      32.654 -20.136 -20.767  0.00  0.00    -0.272 OA
ATOM      2  N   UNL     1      34.804 -19.214 -20.702  0.00  0.00    -0.282 N 
ATOM      3  C   UNL     1      33.832 -20.165 -20.415  0.00  0.00    +0.252 C 
ATOM      4  H   UNL     1      35.704 -19.391 -20.344  0.00  0.00    +0.155 HD
ENDROOT
BRANCH   2   5
ATOM      5  C   UNL     1      34.654 -18.021 -21.449  0.00  0.00    +0.050 C 
ATOM      6  C   UNL     1      34.592 -18.089 -22.830  0.00  0.00    +0.019 C 
ATOM      7  C   UNL     1      34.573 -16.811 -20.781  0.00  0.00    +0.015 C 
ATOM      8  C   UNL     1      34.444 -16.913 -23.566  0.00  0.00    +0.082 C 
ATOM      9  C   UNL     1      34.360 -15.685 -22.909  0.00  0.00    +0.072 C 
ATOM     10  C   UNL     1      34.424 -15.634 -21.516  0.00  0.00    +0.011 C 
BRANCH   8  14
ATOM     11  F   UNL     1      34.342 -18.290 -25.520  0.00  0.00    -0.166 F 
ATOM     12  F   UNL     1      33.279 -16.401 -25.591  0.00  0.00    -0.166 F 
ATOM     13  F   UNL     1      35.452 -16.425 -25.663  0.00  0.00    -0.166 F 
ATOM     14  C   UNL     1      34.378 -17.007 -25.057  0.00  0.00    +0.419 C 
ENDBRANCH   8  14
BRANCH   9  16
ATOM     15  N   UNL     1      34.084 -13.476 -24.233  0.00  0.00    -0.191 NA
ATOM     16  C   UNL     1      34.208 -14.465 -23.641  0.00  0.00    +0.100 C 
ENDBRANCH   9  16
ENDBRANCH   2   5
BRANCH   3  17
ATOM     17  C   UNL     1      34.370 -21.336 -19.572  0.00  0.00    +0.179 C 
ATOM     18  C   UNL     1      34.877 -22.463 -20.481  0.00  0.00    +0.041 C 
BRANCH  17  19
ATOM     19  O   UNL     1      35.489 -20.861 -18.824  0.00  0.00    -0.377 OA
ATOM     20  H   UNL     1      36.195 -20.592 -19.433  0.00  0.00    +0.211 HD
ENDBRANCH  17  19
BRANCH  17  21
ATOM     21  C   UNL     1      33.345 -21.882 -18.575  0.00  0.00    +0.191 C 
BRANCH  21  22
ATOM     22  S   UNL     1      33.916 -23.302 -17.687  0.00  0.00    +0.012 S 
ATOM     23  O   UNL     1      35.271 -23.050 -17.233  0.00  0.00    -0.169 OA
ATOM     24  O   UNL     1      33.617 -24.473 -18.492  0.00  0.00    -0.169 OA
BRANCH  22  26
ATOM     25  F   UNL     1      30.494 -23.460 -12.914  0.00  0.00    -0.204 F 
ATOM     26  C   UNL     1      32.886 -23.348 -16.252  0.00  0.00    +0.106 C 
ATOM     27  C   UNL     1      31.535 -23.077 -16.380  0.00  0.00    +0.021 C 
ATOM     28  C   UNL     1      33.450 -23.656 -15.025  0.00  0.00    +0.021 C 
ATOM     29  C   UNL     1      30.722 -23.115 -15.247  0.00  0.00    +0.031 C 
ATOM     30  C   UNL     1      32.638 -23.694 -13.892  0.00  0.00    +0.031 C 
ATOM     31  C   UNL     1      31.274 -23.424 -14.003  0.00  0.00    +0.140 C 
ENDBRANCH  22  26
ENDBRANCH  21  22
ENDBRANCH  17  21
ENDBRANCH   3  17
TORSDOF 8
ENDMDL
MODEL 8
REMARK VINA RESULT:      -9.5      3.946      5.777
REMARK  Name = 56069
REMARK  8 active torsions:
REMARK  status: ('A' for Active; 'I' for Inactive)
REMARK    1  A    between atoms: N_2  and  C_5
REMARK    2  A    between atoms: C_3  and  C_17
REMARK    3  A    between atoms: C_8  and  C_14
REMARK    4  A    between atoms: C_9  and  C_16
REMARK    5  A    between atoms: C_17  and  O_19
REMARK    6  A    between atoms: C_17  and  C_21
REMARK    7  A    between atoms: C_21  and  S_22
REMARK    8  A    between atoms: S_22  and  C_26
REMARK                            x       y       z     vdW  Elec       q    Type
REMARK                         _______ _______ _______ _____ _____    ______ ____
ROOT
ATOM      1  O   UNL     1      32.735 -20.140 -20.998  0.00  0.00    -0.272 OA
ATOM      2  N   UNL     1      34.801 -19.079 -20.707  0.00  0.00    -0.282 N 
ATOM      3  C   UNL     1      33.876 -20.104 -20.541  0.00  0.00    +0.252 C 
ATOM      4  H   UNL     1      35.675 -19.210 -20.274  0.00  0.00    +0.155 HD
ENDROOT
BRANCH   2   5
ATOM      5  C   UNL     1      34.634 -17.871 -21.424  0.00  0.00    +0.050 C 
ATOM      6  C   UNL     1      33.875 -16.853 -20.872  0.00  0.00    +0.019 C 
ATOM      7  C   UNL     1      35.233 -17.733 -22.665  0.00  0.00    +0.015 C 
ATOM      8  C   UNL     1      33.711 -15.662 -21.580  0.00  0.00    +0.082 C 
ATOM      9  C   UNL     1      34.309 -15.506 -22.830  0.00  0.00    +0.072 C 
ATOM     10  C   UNL     1      35.070 -16.541 -23.373  0.00  0.00    +0.011 C 
BRANCH   8  14
ATOM     11  F   UNL     1      32.351 -14.915 -19.759  0.00  0.00    -0.166 F 
ATOM     12  F   UNL     1      33.590 -13.427 -20.737  0.00  0.00    -0.166 F 
ATOM     13  F   UNL     1      31.834 -14.213 -21.751  0.00  0.00    -0.166 F 
ATOM     14  C   UNL     1      32.888 -14.575 -20.966  0.00  0.00    +0.419 C 
ENDBRANCH   8  14
BRANCH   9  16
ATOM     15  N   UNL     1      34.031 -13.313 -24.180  0.00  0.00    -0.191 NA
ATOM     16  C   UNL     1      34.155 -14.295 -23.576  0.00  0.00    +0.100 C 
ENDBRANCH   9  16
ENDBRANCH   2   5
BRANCH   3  17
ATOM     17  C   UNL     1      34.418 -21.269 -19.692  0.00  0.00    +0.179 C 
ATOM     18  C   UNL     1      34.965 -22.382 -20.593  0.00  0.00    +0.041 C 
BRANCH  17  19
ATOM     19  O   UNL     1      35.511 -20.776 -18.918  0.00  0.00    -0.377 OA
ATOM     20  H   UNL     1      36.081 -21.515 -18.654  0.00  0.00    +0.211 HD
ENDBRANCH  17  19
BRANCH  17  21
ATOM     21  C   UNL     1      33.383 -21.838 -18.718  0.00  0.00    +0.191 C 
BRANCH  21  22
ATOM     22  S   UNL     1      33.966 -23.241 -17.814  0.00  0.00    +0.012 S 
ATOM     23  O   UNL     1      35.313 -22.967 -17.350  0.00  0.00    -0.169 OA
ATOM     24  O   UNL     1      33.690 -24.424 -18.611  0.00  0.00    -0.169 OA
BRANCH  22  26
ATOM     25  F   UNL     1      30.504 -23.401 -13.070  0.00  0.00    -0.204 F 
ATOM     26  C   UNL     1      32.925 -23.290 -16.387  0.00  0.00    +0.106 C 
ATOM     27  C   UNL     1      33.480 -23.591 -15.155  0.00  0.00    +0.021 C 
ATOM     28  C   UNL     1      31.573 -23.027 -16.527  0.00  0.00    +0.021 C 
ATOM     29  C   UNL     1      32.658 -23.628 -14.028  0.00  0.00    +0.031 C 
ATOM     30  C   UNL     1      30.751 -23.064 -15.401  0.00  0.00    +0.031 C 
ATOM     31  C   UNL     1      31.294 -23.364 -14.151  0.00  0.00    +0.140 C 
ENDBRANCH  22  26
ENDBRANCH  21  22
ENDBRANCH  17  21
ENDBRANCH   3  17
TORSDOF 8
ENDMDL
MODEL 9
REMARK VINA RESULT:      -9.5      3.458      9.621
REMARK  Name = 56069
REMARK  8 active torsions:
REMARK  status: ('A' for Active; 'I' for Inactive)
REMARK    1  A    between atoms: N_2  and  C_5
REMARK    2  A    between atoms: C_3  and  C_17
REMARK    3  A    between atoms: C_8  and  C_14
REMARK    4  A    between atoms: C_9  and  C_16
REMARK    5  A    between atoms: C_17  and  O_19
REMARK    6  A    between atoms: C_17  and  C_21
REMARK    7  A    between atoms: C_21  and  S_22
REMARK    8  A    between atoms: S_22  and  C_26
REMARK                            x       y       z     vdW  Elec       q    Type
REMARK                         _______ _______ _______ _____ _____    ______ ____
ROOT
ATOM      1  O   UNL     1      34.956 -15.966 -21.377  0.00  0.00    -0.272 OA
ATOM      2  N   UNL     1      34.147 -17.773 -22.627  0.00  0.00    -0.282 N 
ATOM      3  C   UNL     1      34.527 -16.451 -22.423  0.00  0.00    +0.252 C 
ATOM      4  H   UNL     1      33.826 -17.997 -23.530  0.00  0.00    +0.155 HD
ENDROOT
BRANCH   2   5
ATOM      5  C   UNL     1      34.167 -18.833 -21.690  0.00  0.00    +0.050 C 
ATOM      6  C   UNL     1      35.383 -19.324 -21.247  0.00  0.00    +0.019 C 
ATOM      7  C   UNL     1      32.968 -19.358 -21.237  0.00  0.00    +0.015 C 
ATOM      8  C   UNL     1      35.402 -20.369 -20.324  0.00  0.00    +0.082 C 
ATOM      9  C   UNL     1      34.204 -20.909 -19.857  0.00  0.00    +0.072 C 
ATOM     10  C   UNL     1      32.987 -20.403 -20.313  0.00  0.00    +0.011 C 
BRANCH   8  14
ATOM     11  F   UNL     1      37.784 -20.139 -20.289  0.00  0.00    -0.166 F 
ATOM     12  F   UNL     1      36.844 -20.924 -18.498  0.00  0.00    -0.166 F 
ATOM     13  F   UNL     1      36.970 -22.156 -20.286  0.00  0.00    -0.166 F 
ATOM     14  C   UNL     1      36.726 -20.885 -19.857  0.00  0.00    +0.419 C 
ENDBRANCH   8  14
BRANCH   9  16
ATOM     15  N   UNL     1      34.191 -22.851 -18.142  0.00  0.00    -0.191 NA
ATOM     16  C   UNL     1      34.197 -21.982 -18.909  0.00  0.00    +0.100 C 
ENDBRANCH   9  16
ENDBRANCH   2   5
BRANCH   3  17
ATOM     17  C   UNL     1      34.366 -15.580 -23.683  0.00  0.00    +0.179 C 
ATOM     18  C   UNL     1      35.417 -15.958 -24.734  0.00  0.00    +0.041 C 
BRANCH  17  19
ATOM     19  O   UNL     1      33.085 -15.857 -24.247  0.00  0.00    -0.377 OA
ATOM     20  H   UNL     1      32.938 -15.283 -25.016  0.00  0.00    +0.211 HD
ENDBRANCH  17  19
BRANCH  17  21
ATOM     21  C   UNL     1      34.428 -14.079 -23.390  0.00  0.00    +0.191 C 
BRANCH  21  22
ATOM     22  S   UNL     1      33.102 -13.165 -24.122  0.00  0.00    +0.012 S 
ATOM     23  O   UNL     1      31.931 -13.287 -23.273  0.00  0.00    -0.169 OA
ATOM     24  O   UNL     1      33.034 -13.537 -25.524  0.00  0.00    -0.169 OA
BRANCH  22  26
ATOM     25  F   UNL     1      34.895  -7.579 -23.808  0.00  0.00    -0.204 F 
ATOM     26  C   UNL     1      33.640 -11.485 -24.028  0.00  0.00    +0.106 C 
ATOM     27  C   UNL     1      32.959 -10.602 -23.208  0.00  0.00    +0.021 C 
ATOM     28  C   UNL     1      34.734 -11.083 -24.776  0.00  0.00    +0.021 C 
ATOM     29  C   UNL     1      33.385  -9.276 -23.133  0.00  0.00    +0.031 C 
ATOM     30  C   UNL     1      35.160  -9.757 -24.701  0.00  0.00    +0.031 C 
ATOM     31  C   UNL     1      34.486  -8.853 -23.879  0.00  0.00    +0.140 C 
ENDBRANCH  22  26
ENDBRANCH  21  22
ENDBRANCH  17  21
ENDBRANCH   3  17
TORSDOF 8
ENDMDL
