MODEL 1
REMARK VINA RESULT:      -7.8      0.000      0.000
REMARK  Name = 170345
REMARK  8 active torsions:
REMARK  status: ('A' for Active; 'I' for Inactive)
REMARK    1  A    between atoms: C_1  and  C_2
REMARK    2  A    between atoms: C_1  and  C_12
REMARK    3  A    between atoms: C_5  and  O_8
REMARK    4  A    between atoms: C_7  and  O_10
REMARK    5  A    between atoms: C_12  and  N_13
REMARK    6  A    between atoms: C_12  and  C_18
REMARK    7  A    between atoms: C_18  and  O_19
REMARK    8  A    between atoms: O_19  and  C_20
REMARK                            x       y       z     vdW  Elec       q    Type
REMARK                         _______ _______ _______ _____ _____    ______ ____
ROOT
ATOM      1  C   UNL     1      35.783 -18.586 -21.810  0.00  0.00    +0.015 C 
ENDROOT
BRANCH   1   2
ATOM      2  C   UNL     1      34.972 -19.570 -20.999  0.00  0.00    -0.021 C 
ATOM      3  C   UNL     1      35.628 -20.536 -20.255  0.00  0.00    +0.035 C 
ATOM      4  C   UNL     1      33.589 -19.487 -21.017  0.00  0.00    -0.001 C 
ATOM      5  C   UNL     1      34.880 -21.446 -19.506  0.00  0.00    +0.167 C 
ATOM      6  C   UNL     1      32.842 -20.397 -20.269  0.00  0.00    +0.039 C 
ATOM      7  C   UNL     1      33.487 -21.375 -19.513  0.00  0.00    +0.167 C 
BRANCH   5   8
ATOM      8  O   UNL     1      35.522 -22.399 -18.774  0.00  0.00    -0.503 OA
ATOM      9  H   UNL     1      36.385 -22.235 -18.446  0.00  0.00    +0.292 HD
ENDBRANCH   5   8
BRANCH   7  10
ATOM     10  O   UNL     1      32.746 -22.258 -18.787  0.00  0.00    -0.503 OA
ATOM     11  H   UNL     1      32.021 -21.953 -18.277  0.00  0.00    +0.292 HD
ENDBRANCH   7  10
ENDBRANCH   1   2
BRANCH   1  12
ATOM     12  C   UNL     1      34.929 -17.757 -22.780  0.00  0.00    +0.040 C 
BRANCH  12  13
ATOM     13  N   UNL     1      35.428 -17.931 -24.145  0.00  0.00    +0.389 N 
ATOM     14  H   UNL     1      36.427 -18.137 -24.118  0.00  0.00    -0.088 HD
ATOM     15  H   UNL     1      35.271 -17.075 -24.676  0.00  0.00    -0.088 HD
ATOM     16  H   UNL     1      34.934 -18.704 -24.591  0.00  0.00    -0.088 HD
ENDBRANCH  12  13
BRANCH  12  18
ATOM     17  O   UNL     1      35.117 -15.381 -23.293  0.00  0.00    -0.252 OA
ATOM     18  C   UNL     1      35.025 -16.275 -22.461  0.00  0.00    +0.296 C 
BRANCH  18  19
ATOM     19  O   UNL     1      34.959 -16.098 -21.107  0.00  0.00    -0.450 OA
BRANCH  19  20
ATOM     20  C   UNL     1      34.139 -15.011 -20.666  0.00  0.00    +0.208 C 
ATOM     21  C   UNL     1      32.689 -15.447 -20.691  0.00  0.00    +0.051 C 
ENDBRANCH  19  20
ENDBRANCH  18  19
ENDBRANCH  12  18
ENDBRANCH   1  12
TORSDOF 8
ENDMDL
MODEL 2
REMARK VINA RESULT:      -7.4      0.824      1.735
REMARK  Name = 170345
REMARK  8 active torsions:
REMARK  status: ('A' for Active; 'I' for Inactive)
REMARK    1  A    between atoms: C_1  and  C_2
REMARK    2  A    between atoms: C_1  and  C_12
REMARK    3  A    between atoms: C_5  and  O_8
REMARK    4  A    between atoms: C_7  and  O_10
REMARK    5  A    between atoms: C_12  and  N_13
REMARK    6  A    between atoms: C_12  and  C_18
REMARK    7  A    between atoms: C_18  and  O_19
REMARK    8  A    between atoms: O_19  and  C_20
REMARK                            x       y       z     vdW  Elec       q    Type
REMARK                         _______ _______ _______ _____ _____    ______ ____
ROOT
ATOM      1  C   UNL     1      36.321 -18.635 -21.473  0.00  0.00    +0.015 C 
ENDROOT
BRANCH   1   2
ATOM      2  C   UNL     1      35.821 -19.796 -20.646  0.00  0.00    -0.021 C 
ATOM      3  C   UNL     1      34.474 -20.114 -20.669  0.00  0.00    +0.035 C 
ATOM      4  C   UNL     1      36.721 -20.519 -19.880  0.00  0.00    -0.001 C 
ATOM      5  C   UNL     1      34.012 -21.186 -19.905  0.00  0.00    +0.167 C 
ATOM      6  C   UNL     1      36.259 -21.590 -19.116  0.00  0.00    +0.039 C 
ATOM      7  C   UNL     1      34.905 -21.924 -19.128  0.00  0.00    +0.167 C 
BRANCH   5   8
ATOM      8  O   UNL     1      32.686 -21.500 -19.923  0.00  0.00    -0.503 OA
ATOM      9  H   UNL     1      32.180 -21.444 -19.136  0.00  0.00    +0.292 HD
ENDBRANCH   5   8
BRANCH   7  10
ATOM     10  O   UNL     1      34.466 -22.972 -18.377  0.00  0.00    -0.503 OA
ATOM     11  H   UNL     1      33.918 -23.628 -18.763  0.00  0.00    +0.292 HD
ENDBRANCH   7  10
ENDBRANCH   1   2
BRANCH   1  12
ATOM     12  C   UNL     1      35.251 -18.058 -22.411  0.00  0.00    +0.040 C 
BRANCH  12  13
ATOM     13  N   UNL     1      35.646 -18.280 -23.802  0.00  0.00    +0.389 N 
ATOM     14  H   UNL     1      35.310 -19.194 -24.109  0.00  0.00    -0.088 HD
ATOM     15  H   UNL     1      36.663 -18.249 -23.876  0.00  0.00    -0.088 HD
ATOM     16  H   UNL     1      35.239 -17.554 -24.392  0.00  0.00    -0.088 HD
ENDBRANCH  12  13
BRANCH  12  18
ATOM     17  O   UNL     1      35.191 -15.727 -23.123  0.00  0.00    -0.252 OA
ATOM     18  C   UNL     1      35.115 -16.557 -22.225  0.00  0.00    +0.296 C 
BRANCH  18  19
ATOM     19  O   UNL     1      34.863 -16.284 -20.910  0.00  0.00    -0.450 OA
BRANCH  19  20
ATOM     20  C   UNL     1      34.389 -14.962 -20.633  0.00  0.00    +0.208 C 
ATOM     21  C   UNL     1      32.884 -15.005 -20.463  0.00  0.00    +0.051 C 
ENDBRANCH  19  20
ENDBRANCH  18  19
ENDBRANCH  12  18
ENDBRANCH   1  12
TORSDOF 8
ENDMDL
MODEL 3
REMARK VINA RESULT:      -7.3      1.441      2.206
REMARK  Name = 170345
REMARK  8 active torsions:
REMARK  status: ('A' for Active; 'I' for Inactive)
REMARK    1  A    between atoms: C_1  and  C_2
REMARK    2  A    between atoms: C_1  and  C_12
REMARK    3  A    between atoms: C_5  and  O_8
REMARK    4  A    between atoms: C_7  and  O_10
REMARK    5  A    between atoms: C_12  and  N_13
REMARK    6  A    between atoms: C_12  and  C_18
REMARK    7  A    between atoms: C_18  and  O_19
REMARK    8  A    between atoms: O_19  and  C_20
REMARK                            x       y       z     vdW  Elec       q    Type
REMARK                         _______ _______ _______ _____ _____    ______ ____
ROOT
ATOM      1  C   UNL     1      34.213 -18.738 -21.929  0.00  0.00    +0.015 C 
ENDROOT
BRANCH   1   2
ATOM      2  C   UNL     1      34.458 -19.834 -20.918  0.00  0.00    -0.021 C 
ATOM      3  C   UNL     1      33.376 -20.443 -20.305  0.00  0.00    +0.035 C 
ATOM      4  C   UNL     1      35.760 -20.208 -20.625  0.00  0.00    -0.001 C 
ATOM      5  C   UNL     1      33.602 -21.455 -19.371  0.00  0.00    +0.167 C 
ATOM      6  C   UNL     1      35.984 -21.219 -19.692  0.00  0.00    +0.039 C 
ATOM      7  C   UNL     1      34.906 -21.843 -19.065  0.00  0.00    +0.167 C 
BRANCH   5   8
ATOM      8  O   UNL     1      32.540 -22.055 -18.763  0.00  0.00    -0.503 OA
ATOM      9  H   UNL     1      31.841 -22.405 -19.280  0.00  0.00    +0.292 HD
ENDBRANCH   5   8
BRANCH   7  10
ATOM     10  O   UNL     1      35.139 -22.830 -18.155  0.00  0.00    -0.503 OA
ATOM     11  H   UNL     1      34.625 -23.613 -18.170  0.00  0.00    +0.292 HD
ENDBRANCH   7  10
ENDBRANCH   1   2
BRANCH   1  12
ATOM     12  C   UNL     1      35.259 -17.616 -21.865  0.00  0.00    +0.040 C 
BRANCH  12  13
ATOM     13  N   UNL     1      35.016 -16.784 -20.686  0.00  0.00    +0.389 N 
ATOM     14  H   UNL     1      34.279 -17.206 -20.119  0.00  0.00    -0.088 HD
ATOM     15  H   UNL     1      34.726 -15.852 -20.981  0.00  0.00    -0.088 HD
ATOM     16  H   UNL     1      35.872 -16.716 -20.135  0.00  0.00    -0.088 HD
ENDBRANCH  12  13
BRANCH  12  18
ATOM     17  O   UNL     1      35.086 -17.087 -24.239  0.00  0.00    -0.252 OA
ATOM     18  C   UNL     1      35.155 -16.705 -23.077  0.00  0.00    +0.296 C 
BRANCH  18  19
ATOM     19  O   UNL     1      35.118 -15.403 -22.664  0.00  0.00    -0.450 OA
BRANCH  19  20
ATOM     20  C   UNL     1      34.224 -14.551 -23.386  0.00  0.00    +0.208 C 
ATOM     21  C   UNL     1      32.911 -14.465 -22.636  0.00  0.00    +0.051 C 
ENDBRANCH  19  20
ENDBRANCH  18  19
ENDBRANCH  12  18
ENDBRANCH   1  12
TORSDOF 8
ENDMDL
MODEL 4
REMARK VINA RESULT:      -7.2      1.951      6.072
REMARK  Name = 170345
REMARK  8 active torsions:
REMARK  status: ('A' for Active; 'I' for Inactive)
REMARK    1  A    between atoms: C_1  and  C_2
REMARK    2  A    between atoms: C_1  and  C_12
REMARK    3  A    between atoms: C_5  and  O_8
REMARK    4  A    between atoms: C_7  and  O_10
REMARK    5  A    between atoms: C_12  and  N_13
REMARK    6  A    between atoms: C_12  and  C_18
REMARK    7  A    between atoms: C_18  and  O_19
REMARK    8  A    between atoms: O_19  and  C_20
REMARK                            x       y       z     vdW  Elec       q    Type
REMARK                         _______ _______ _______ _____ _____    ______ ____
ROOT
ATOM      1  C   UNL     1      34.768 -19.448 -20.892  0.00  0.00    +0.015 C 
ENDROOT
BRANCH   1   2
ATOM      2  C   UNL     1      34.777 -18.697 -22.203  0.00  0.00    -0.021 C 
ATOM      3  C   UNL     1      34.922 -17.320 -22.195  0.00  0.00    +0.035 C 
ATOM      4  C   UNL     1      34.639 -19.402 -23.388  0.00  0.00    -0.001 C 
ATOM      5  C   UNL     1      34.930 -16.627 -23.406  0.00  0.00    +0.167 C 
ATOM      6  C   UNL     1      34.647 -18.709 -24.598  0.00  0.00    +0.039 C 
ATOM      7  C   UNL     1      34.792 -17.322 -24.607  0.00  0.00    +0.167 C 
BRANCH   5   8
ATOM      8  O   UNL     1      35.071 -15.272 -23.401  0.00  0.00    -0.503 OA
ATOM      9  H   UNL     1      34.683 -14.764 -22.715  0.00  0.00    +0.292 HD
ENDBRANCH   5   8
BRANCH   7  10
ATOM     10  O   UNL     1      34.798 -16.656 -25.796  0.00  0.00    -0.503 OA
ATOM     11  H   UNL     1      34.108 -16.795 -26.414  0.00  0.00    +0.292 HD
ENDBRANCH   7  10
ENDBRANCH   1   2
BRANCH   1  12
ATOM     12  C   UNL     1      33.598 -20.434 -20.770  0.00  0.00    +0.040 C 
BRANCH  12  13
ATOM     13  N   UNL     1      32.370 -19.703 -20.457  0.00  0.00    +0.389 N 
ATOM     14  H   UNL     1      31.562 -20.275 -20.705  0.00  0.00    -0.088 HD
ATOM     15  H   UNL     1      32.347 -18.833 -20.988  0.00  0.00    -0.088 HD
ATOM     16  H   UNL     1      32.344 -19.493 -19.459  0.00  0.00    -0.088 HD
ENDBRANCH  12  13
BRANCH  12  18
ATOM     17  O   UNL     1      32.975 -22.151 -19.155  0.00  0.00    -0.252 OA
ATOM     18  C   UNL     1      33.830 -21.416 -19.634  0.00  0.00    +0.296 C 
BRANCH  18  19
ATOM     19  O   UNL     1      35.142 -21.372 -19.257  0.00  0.00    -0.450 OA
BRANCH  19  20
ATOM     20  C   UNL     1      35.486 -22.170 -18.119  0.00  0.00    +0.208 C 
ATOM     21  C   UNL     1      36.821 -21.705 -17.576  0.00  0.00    +0.051 C 
ENDBRANCH  19  20
ENDBRANCH  18  19
ENDBRANCH  12  18
ENDBRANCH   1  12
TORSDOF 8
ENDMDL
MODEL 5
REMARK VINA RESULT:      -6.9      2.230      6.091
REMARK  Name = 170345
REMARK  8 active torsions:
REMARK  status: ('A' for Active; 'I' for Inactive)
REMARK    1  A    between atoms: C_1  and  C_2
REMARK    2  A    between atoms: C_1  and  C_12
REMARK    3  A    between atoms: C_5  and  O_8
REMARK    4  A    between atoms: C_7  and  O_10
REMARK    5  A    between atoms: C_12  and  N_13
REMARK    6  A    between atoms: C_12  and  C_18
REMARK    7  A    between atoms: C_18  and  O_19
REMARK    8  A    between atoms: O_19  and  C_20
REMARK                            x       y       z     vdW  Elec       q    Type
REMARK                         _______ _______ _______ _____ _____    ______ ____
ROOT
ATOM      1  C   UNL     1      35.033 -20.062 -20.376  0.00  0.00    +0.015 C 
ENDROOT
BRANCH   1   2
ATOM      2  C   UNL     1      34.938 -19.006 -21.452  0.00  0.00    -0.021 C 
ATOM      3  C   UNL     1      34.751 -19.395 -22.768  0.00  0.00    +0.035 C 
ATOM      4  C   UNL     1      35.039 -17.670 -21.102  0.00  0.00    -0.001 C 
ATOM      5  C   UNL     1      34.663 -18.420 -23.763  0.00  0.00    +0.167 C 
ATOM      6  C   UNL     1      34.952 -16.696 -22.096  0.00  0.00    +0.039 C 
ATOM      7  C   UNL     1      34.764 -17.071 -23.426  0.00  0.00    +0.167 C 
BRANCH   5   8
ATOM      8  O   UNL     1      34.483 -18.800 -25.059  0.00  0.00    -0.503 OA
ATOM      9  H   UNL     1      33.817 -18.393 -25.577  0.00  0.00    +0.292 HD
ENDBRANCH   5   8
BRANCH   7  10
ATOM     10  O   UNL     1      34.680 -16.109 -24.388  0.00  0.00    -0.503 OA
ATOM     11  H   UNL     1      34.184 -16.268 -25.167  0.00  0.00    +0.292 HD
ENDBRANCH   7  10
ENDBRANCH   1   2
BRANCH   1  12
ATOM     12  C   UNL     1      33.825 -21.009 -20.352  0.00  0.00    +0.040 C 
BRANCH  12  13
ATOM     13  N   UNL     1      32.623 -20.262 -19.976  0.00  0.00    +0.389 N 
ATOM     14  H   UNL     1      32.874 -19.292 -19.781  0.00  0.00    -0.088 HD
ATOM     15  H   UNL     1      32.210 -20.680 -19.142  0.00  0.00    -0.088 HD
ATOM     16  H   UNL     1      31.950 -20.293 -20.742  0.00  0.00    -0.088 HD
ENDBRANCH  12  13
BRANCH  12  18
ATOM     17  O   UNL     1      35.074 -22.647 -19.048  0.00  0.00    -0.252 OA
ATOM     18  C   UNL     1      34.009 -22.101 -19.313  0.00  0.00    +0.296 C 
BRANCH  18  19
ATOM     19  O   UNL     1      32.813 -22.353 -18.701  0.00  0.00    -0.450 OA
BRANCH  19  20
ATOM     20  C   UNL     1      32.885 -23.119 -17.495  0.00  0.00    +0.208 C 
ATOM     21  C   UNL     1      31.613 -22.907 -16.701  0.00  0.00    +0.051 C 
ENDBRANCH  19  20
ENDBRANCH  18  19
ENDBRANCH  12  18
ENDBRANCH   1  12
TORSDOF 8
ENDMDL
MODEL 6
REMARK VINA RESULT:      -6.8      2.353      6.046
REMARK  Name = 170345
REMARK  8 active torsions:
REMARK  status: ('A' for Active; 'I' for Inactive)
REMARK    1  A    between atoms: C_1  and  C_2
REMARK    2  A    between atoms: C_1  and  C_12
REMARK    3  A    between atoms: C_5  and  O_8
REMARK    4  A    between atoms: C_7  and  O_10
REMARK    5  A    between atoms: C_12  and  N_13
REMARK    6  A    between atoms: C_12  and  C_18
REMARK    7  A    between atoms: C_18  and  O_19
REMARK    8  A    between atoms: O_19  and  C_20
REMARK                            x       y       z     vdW  Elec       q    Type
REMARK                         _______ _______ _______ _____ _____    ______ ____
ROOT
ATOM      1  C   UNL     1      35.690 -18.445 -23.337  0.00  0.00    +0.015 C 
ENDROOT
BRANCH   1   2
ATOM      2  C   UNL     1      34.961 -17.178 -23.717  0.00  0.00    -0.021 C 
ATOM      3  C   UNL     1      34.492 -17.028 -25.011  0.00  0.00    +0.035 C 
ATOM      4  C   UNL     1      34.775 -16.190 -22.763  0.00  0.00    -0.001 C 
ATOM      5  C   UNL     1      33.819 -15.858 -25.363  0.00  0.00    +0.167 C 
ATOM      6  C   UNL     1      34.103 -15.020 -23.115  0.00  0.00    +0.039 C 
ATOM      7  C   UNL     1      33.624 -14.854 -24.414  0.00  0.00    +0.167 C 
BRANCH   5   8
ATOM      8  O   UNL     1      33.359 -15.706 -26.636  0.00  0.00    -0.503 OA
ATOM      9  H   UNL     1      33.738 -15.059 -27.197  0.00  0.00    +0.292 HD
ENDBRANCH   5   8
BRANCH   7  10
ATOM     10  O   UNL     1      32.969 -13.707 -24.745  0.00  0.00    -0.503 OA
ATOM     11  H   UNL     1      33.262 -13.192 -25.471  0.00  0.00    +0.292 HD
ENDBRANCH   7  10
ENDBRANCH   1   2
BRANCH   1  12
ATOM     12  C   UNL     1      36.401 -18.348 -21.980  0.00  0.00    +0.040 C 
BRANCH  12  13
ATOM     13  N   UNL     1      37.836 -18.573 -22.159  0.00  0.00    +0.389 N 
ATOM     14  H   UNL     1      38.322 -17.676 -22.174  0.00  0.00    -0.088 HD
ATOM     15  H   UNL     1      37.995 -19.061 -23.041  0.00  0.00    -0.088 HD
ATOM     16  H   UNL     1      38.190 -19.139 -21.388  0.00  0.00    -0.088 HD
ENDBRANCH  12  13
BRANCH  12  18
ATOM     17  O   UNL     1      36.445 -19.730 -19.972  0.00  0.00    -0.252 OA
ATOM     18  C   UNL     1      35.902 -19.419 -21.025  0.00  0.00    +0.296 C 
BRANCH  18  19
ATOM     19  O   UNL     1      34.740 -19.952 -21.509  0.00  0.00    -0.450 OA
BRANCH  19  20
ATOM     20  C   UNL     1      33.570 -19.696 -20.727  0.00  0.00    +0.208 C 
ATOM     21  C   UNL     1      33.235 -20.935 -19.922  0.00  0.00    +0.051 C 
ENDBRANCH  19  20
ENDBRANCH  18  19
ENDBRANCH  12  18
ENDBRANCH   1  12
TORSDOF 8
ENDMDL
MODEL 7
REMARK VINA RESULT:      -6.8      1.468      1.587
REMARK  Name = 170345
REMARK  8 active torsions:
REMARK  status: ('A' for Active; 'I' for Inactive)
REMARK    1  A    between atoms: C_1  and  C_2
REMARK    2  A    between atoms: C_1  and  C_12
REMARK    3  A    between atoms: C_5  and  O_8
REMARK    4  A    between atoms: C_7  and  O_10
REMARK    5  A    between atoms: C_12  and  N_13
REMARK    6  A    between atoms: C_12  and  C_18
REMARK    7  A    between atoms: C_18  and  O_19
REMARK    8  A    between atoms: O_19  and  C_20
REMARK                            x       y       z     vdW  Elec       q    Type
REMARK                         _______ _______ _______ _____ _____    ______ ____
ROOT
ATOM      1  C   UNL     1      34.467 -18.749 -22.233  0.00  0.00    +0.015 C 
ENDROOT
BRANCH   1   2
ATOM      2  C   UNL     1      34.491 -19.790 -21.138  0.00  0.00    -0.021 C 
ATOM      3  C   UNL     1      35.710 -20.258 -20.675  0.00  0.00    +0.035 C 
ATOM      4  C   UNL     1      33.294 -20.256 -20.619  0.00  0.00    -0.001 C 
ATOM      5  C   UNL     1      35.733 -21.219 -19.664  0.00  0.00    +0.167 C 
ATOM      6  C   UNL     1      33.318 -21.218 -19.609  0.00  0.00    +0.039 C 
ATOM      7  C   UNL     1      34.536 -21.699 -19.131  0.00  0.00    +0.167 C 
BRANCH   5   8
ATOM      8  O   UNL     1      36.930 -21.683 -19.208  0.00  0.00    -0.503 OA
ATOM      9  H   UNL     1      36.960 -22.446 -18.665  0.00  0.00    +0.292 HD
ENDBRANCH   5   8
BRANCH   7  10
ATOM     10  O   UNL     1      34.546 -22.638 -18.144  0.00  0.00    -0.503 OA
ATOM     11  H   UNL     1      34.935 -22.442 -17.314  0.00  0.00    +0.292 HD
ENDBRANCH   7  10
ENDBRANCH   1   2
BRANCH   1  12
ATOM     12  C   UNL     1      35.302 -17.505 -21.900  0.00  0.00    +0.040 C 
BRANCH  12  13
ATOM     13  N   UNL     1      34.921 -16.996 -20.581  0.00  0.00    +0.389 N 
ATOM     14  H   UNL     1      35.532 -16.219 -20.328  0.00  0.00    -0.088 HD
ATOM     15  H   UNL     1      35.013 -17.740 -19.890  0.00  0.00    -0.088 HD
ATOM     16  H   UNL     1      33.954 -16.674 -20.608  0.00  0.00    -0.088 HD
ENDBRANCH  12  13
BRANCH  12  18
ATOM     17  O   UNL     1      35.168 -16.487 -24.111  0.00  0.00    -0.252 OA
ATOM     18  C   UNL     1      35.038 -16.389 -22.897  0.00  0.00    +0.296 C 
BRANCH  18  19
ATOM     19  O   UNL     1      34.604 -15.278 -22.230  0.00  0.00    -0.450 OA
BRANCH  19  20
ATOM     20  C   UNL     1      33.516 -14.578 -22.840  0.00  0.00    +0.208 C 
ATOM     21  C   UNL     1      32.501 -14.220 -21.773  0.00  0.00    +0.051 C 
ENDBRANCH  19  20
ENDBRANCH  18  19
ENDBRANCH  12  18
ENDBRANCH   1  12
TORSDOF 8
ENDMDL
MODEL 8
REMARK VINA RESULT:      -6.7      1.980      6.047
REMARK  Name = 170345
REMARK  8 active torsions:
REMARK  status: ('A' for Active; 'I' for Inactive)
REMARK    1  A    between atoms: C_1  and  C_2
REMARK    2  A    between atoms: C_1  and  C_12
REMARK    3  A    between atoms: C_5  and  O_8
REMARK    4  A    between atoms: C_7  and  O_10
REMARK    5  A    between atoms: C_12  and  N_13
REMARK    6  A    between atoms: C_12  and  C_18
REMARK    7  A    between atoms: C_18  and  O_19
REMARK    8  A    between atoms: O_19  and  C_20
REMARK                            x       y       z     vdW  Elec       q    Type
REMARK                         _______ _______ _______ _____ _____    ______ ____
ROOT
ATOM      1  C   UNL     1      34.968 -20.415 -21.472  0.00  0.00    +0.015 C 
ENDROOT
BRANCH   1   2
ATOM      2  C   UNL     1      34.967 -18.980 -21.944  0.00  0.00    -0.021 C 
ATOM      3  C   UNL     1      34.944 -17.959 -21.009  0.00  0.00    +0.035 C 
ATOM      4  C   UNL     1      34.989 -18.714 -23.304  0.00  0.00    -0.001 C 
ATOM      5  C   UNL     1      34.943 -16.633 -21.446  0.00  0.00    +0.167 C 
ATOM      6  C   UNL     1      34.987 -17.389 -23.740  0.00  0.00    +0.039 C 
ATOM      7  C   UNL     1      34.964 -16.349 -22.811  0.00  0.00    +0.167 C 
BRANCH   5   8
ATOM      8  O   UNL     1      34.917 -15.626 -20.528  0.00  0.00    -0.503 OA
ATOM      9  H   UNL     1      34.274 -15.629 -19.847  0.00  0.00    +0.292 HD
ENDBRANCH   5   8
BRANCH   7  10
ATOM     10  O   UNL     1      34.962 -15.059 -23.249  0.00  0.00    -0.503 OA
ATOM     11  H   UNL     1      35.772 -14.600 -23.360  0.00  0.00    +0.292 HD
ENDBRANCH   7  10
ENDBRANCH   1   2
BRANCH   1  12
ATOM     12  C   UNL     1      34.851 -20.547 -19.947  0.00  0.00    +0.040 C 
BRANCH  12  13
ATOM     13  N   UNL     1      36.151 -20.912 -19.384  0.00  0.00    +0.389 N 
ATOM     14  H   UNL     1      36.569 -20.096 -18.935  0.00  0.00    -0.088 HD
ATOM     15  H   UNL     1      36.764 -21.241 -20.130  0.00  0.00    -0.088 HD
ATOM     16  H   UNL     1      36.027 -21.653 -18.693  0.00  0.00    -0.088 HD
ENDBRANCH  12  13
BRANCH  12  18
ATOM     17  O   UNL     1      32.733 -21.755 -19.989  0.00  0.00    -0.252 OA
ATOM     18  C   UNL     1      33.880 -21.653 -19.569  0.00  0.00    +0.296 C 
BRANCH  18  19
ATOM     19  O   UNL     1      34.496 -22.526 -18.719  0.00  0.00    -0.450 OA
BRANCH  19  20
ATOM     20  C   UNL     1      33.634 -23.210 -17.803  0.00  0.00    +0.208 C 
ATOM     21  C   UNL     1      34.265 -23.194 -16.427  0.00  0.00    +0.051 C 
ENDBRANCH  19  20
ENDBRANCH  18  19
ENDBRANCH  12  18
ENDBRANCH   1  12
TORSDOF 8
ENDMDL
MODEL 9
REMARK VINA RESULT:      -6.7      6.890      9.247
REMARK  Name = 170345
REMARK  8 active torsions:
REMARK  status: ('A' for Active; 'I' for Inactive)
REMARK    1  A    between atoms: C_1  and  C_2
REMARK    2  A    between atoms: C_1  and  C_12
REMARK    3  A    between atoms: C_5  and  O_8
REMARK    4  A    between atoms: C_7  and  O_10
REMARK    5  A    between atoms: C_12  and  N_13
REMARK    6  A    between atoms: C_12  and  C_18
REMARK    7  A    between atoms: C_18  and  O_19
REMARK    8  A    between atoms: O_19  and  C_20
REMARK                            x       y       z     vdW  Elec       q    Type
REMARK                         _______ _______ _______ _____ _____    ______ ____
ROOT
ATOM      1  C   UNL     1      34.826 -24.016 -14.331  0.00  0.00    +0.015 C 
ENDROOT
BRANCH   1   2
ATOM      2  C   UNL     1      33.592 -23.588 -15.091  0.00  0.00    -0.021 C 
ATOM      3  C   UNL     1      33.694 -23.307 -16.443  0.00  0.00    +0.035 C 
ATOM      4  C   UNL     1      32.385 -23.485 -14.420  0.00  0.00    -0.001 C 
ATOM      5  C   UNL     1      32.554 -22.911 -17.145  0.00  0.00    +0.167 C 
ATOM      6  C   UNL     1      31.247 -23.089 -15.121  0.00  0.00    +0.039 C 
ATOM      7  C   UNL     1      31.331 -22.802 -16.484  0.00  0.00    +0.167 C 
BRANCH   5   8
ATOM      8  O   UNL     1      32.650 -22.632 -18.475  0.00  0.00    -0.503 OA
ATOM      9  H   UNL     1      33.489 -22.470 -18.860  0.00  0.00    +0.292 HD
ENDBRANCH   5   8
BRANCH   7  10
ATOM     10  O   UNL     1      30.212 -22.417 -17.158  0.00  0.00    -0.503 OA
ATOM     11  H   UNL     1      29.768 -21.627 -16.917  0.00  0.00    +0.292 HD
ENDBRANCH   7  10
ENDBRANCH   1   2
BRANCH   1  12
ATOM     12  C   UNL     1      35.841 -24.768 -15.203  0.00  0.00    +0.040 C 
BRANCH  12  13
ATOM     13  N   UNL     1      35.717 -26.207 -14.972  0.00  0.00    +0.389 N 
ATOM     14  H   UNL     1      35.132 -26.370 -14.151  0.00  0.00    -0.088 HD
ATOM     15  H   UNL     1      36.641 -26.608 -14.815  0.00  0.00    -0.088 HD
ATOM     16  H   UNL     1      35.288 -26.647 -15.786  0.00  0.00    -0.088 HD
ENDBRANCH  12  13
BRANCH  12  18
ATOM     17  O   UNL     1      37.637 -23.249 -14.565  0.00  0.00    -0.252 OA
ATOM     18  C   UNL     1      37.264 -24.383 -14.838  0.00  0.00    +0.296 C 
BRANCH  18  19
ATOM     19  O   UNL     1      38.049 -25.502 -14.831  0.00  0.00    -0.450 OA
BRANCH  19  20
ATOM     20  C   UNL     1      39.059 -25.542 -13.818  0.00  0.00    +0.208 C 
ATOM     21  C   UNL     1      40.394 -25.844 -14.465  0.00  0.00    +0.051 C 
ENDBRANCH  19  20
ENDBRANCH  18  19
ENDBRANCH  12  18
ENDBRANCH   1  12
TORSDOF 8
ENDMDL
