MODEL 1
REMARK VINA RESULT:      -9.5      0.000      0.000
REMARK  Name = 2581
REMARK  3 active torsions:
REMARK  status: ('A' for Active; 'I' for Inactive)
REMARK    1  A    between atoms: C_6  and  C_16
REMARK    2  A    between atoms: C_16  and  C_19
REMARK    3  A    between atoms: C_19  and  O_20
REMARK                            x       y       z     vdW  Elec       q    Type
REMARK                         _______ _______ _______ _____ _____    ______ ____
ROOT
ATOM      1 CL   UNL     1      31.515 -23.956 -16.043  0.00  0.00    -0.082 Cl
ATOM      2  N   UNL     1      35.977 -21.456 -18.864  0.00  0.00    -0.353 N 
ATOM      3  C   UNL     1      33.970 -21.017 -19.731  0.00  0.00    +0.017 A 
ATOM      4  C   UNL     1      35.337 -20.778 -19.875  0.00  0.00    +0.056 A 
ATOM      5  C   UNL     1      33.802 -21.867 -18.592  0.00  0.00    +0.018 A 
ATOM      6  C   UNL     1      34.962 -19.407 -21.801  0.00  0.00    -0.011 C 
ATOM      7  C   UNL     1      35.071 -22.123 -18.074  0.00  0.00    +0.057 A 
ATOM      8  C   UNL     1      35.863 -19.980 -20.897  0.00  0.00    +0.013 C 
ATOM      9  C   UNL     1      33.081 -20.427 -20.656  0.00  0.00    +0.001 C 
ATOM     10  C   UNL     1      33.591 -19.626 -21.683  0.00  0.00    -0.004 C 
ATOM     11  C   UNL     1      32.684 -22.443 -17.954  0.00  0.00    +0.013 C 
ATOM     12  C   UNL     1      35.281 -22.927 -16.947  0.00  0.00    +0.018 C 
ATOM     13  C   UNL     1      32.877 -23.250 -16.827  0.00  0.00    +0.058 C 
ATOM     14  C   UNL     1      34.158 -23.486 -16.333  0.00  0.00    +0.013 C 
ATOM     15  H   UNL     1      36.952 -21.463 -18.726  0.00  0.00    +0.166 HD
ENDROOT
BRANCH   6  16
ATOM     16  C   UNL     1      35.479 -18.548 -22.906  0.00  0.00    +0.121 C 
ATOM     17  C   UNL     1      34.781 -18.787 -24.261  0.00  0.00    +0.016 C 
BRANCH  16  19
ATOM     18  O   UNL     1      35.060 -16.597 -21.497  0.00  0.00    -0.250 OA
ATOM     19  C   UNL     1      35.400 -17.053 -22.581  0.00  0.00    +0.317 C 
BRANCH  19  20
ATOM     20  O   UNL     1      35.740 -16.261 -23.633  0.00  0.00    -0.480 OA
ATOM     21  H   UNL     1      35.116 -16.086 -24.308  0.00  0.00    +0.295 HD
ENDBRANCH  19  20
ENDBRANCH  16  19
ENDBRANCH   6  16
TORSDOF 3
ENDMDL
MODEL 2
REMARK VINA RESULT:      -9.5      1.299      2.037
REMARK  Name = 2581
REMARK  3 active torsions:
REMARK  status: ('A' for Active; 'I' for Inactive)
REMARK    1  A    between atoms: C_6  and  C_16
REMARK    2  A    between atoms: C_16  and  C_19
REMARK    3  A    between atoms: C_19  and  O_20
REMARK                            x       y       z     vdW  Elec       q    Type
REMARK                         _______ _______ _______ _____ _____    ______ ____
ROOT
ATOM      1 CL   UNL     1      35.560 -24.023 -15.232  0.00  0.00    -0.082 Cl
ATOM      2  N   UNL     1      33.096 -21.303 -19.777  0.00  0.00    -0.353 N 
ATOM      3  C   UNL     1      35.286 -20.949 -19.561  0.00  0.00    +0.017 A 
ATOM      4  C   UNL     1      34.167 -20.648 -20.337  0.00  0.00    +0.056 A 
ATOM      5  C   UNL     1      34.856 -21.814 -18.506  0.00  0.00    +0.018 A 
ATOM      6  C   UNL     1      35.469 -19.279 -21.806  0.00  0.00    -0.011 C 
ATOM      7  C   UNL     1      33.485 -22.016 -18.667  0.00  0.00    +0.057 A 
ATOM      8  C   UNL     1      34.226 -19.818 -21.462  0.00  0.00    +0.013 C 
ATOM      9  C   UNL     1      36.531 -20.393 -19.929  0.00  0.00    +0.001 C 
ATOM     10  C   UNL     1      36.606 -19.562 -21.052  0.00  0.00    -0.004 C 
ATOM     11  C   UNL     1      35.509 -22.446 -17.426  0.00  0.00    +0.013 C 
ATOM     12  C   UNL     1      32.731 -22.819 -17.803  0.00  0.00    +0.018 C 
ATOM     13  C   UNL     1      34.768 -23.250 -16.553  0.00  0.00    +0.058 C 
ATOM     14  C   UNL     1      33.400 -23.432 -16.741  0.00  0.00    +0.013 C 
ATOM     15  H   UNL     1      32.175 -21.266 -20.122  0.00  0.00    +0.166 HD
ENDROOT
BRANCH   6  16
ATOM     16  C   UNL     1      35.578 -18.389 -22.999  0.00  0.00    +0.121 C 
ATOM     17  C   UNL     1      34.640 -18.782 -24.158  0.00  0.00    +0.016 C 
BRANCH  16  19
ATOM     18  O   UNL     1      34.874 -16.514 -21.599  0.00  0.00    -0.250 OA
ATOM     19  C   UNL     1      35.334 -16.915 -22.661  0.00  0.00    +0.317 C 
BRANCH  19  20
ATOM     20  O   UNL     1      35.672 -16.073 -23.674  0.00  0.00    -0.480 OA
ATOM     21  H   UNL     1      36.310 -16.336 -24.307  0.00  0.00    +0.295 HD
ENDBRANCH  19  20
ENDBRANCH  16  19
ENDBRANCH   6  16
TORSDOF 3
ENDMDL
MODEL 3
REMARK VINA RESULT:      -9.4      5.331      7.650
REMARK  Name = 2581
REMARK  3 active torsions:
REMARK  status: ('A' for Active; 'I' for Inactive)
REMARK    1  A    between atoms: C_6  and  C_16
REMARK    2  A    between atoms: C_16  and  C_19
REMARK    3  A    between atoms: C_19  and  O_20
REMARK                            x       y       z     vdW  Elec       q    Type
REMARK                         _______ _______ _______ _____ _____    ______ ____
ROOT
ATOM      1 CL   UNL     1      36.317 -19.513 -20.800  0.00  0.00    -0.082 Cl
ATOM      2  N   UNL     1      33.720 -15.337 -23.953  0.00  0.00    -0.353 N 
ATOM      3  C   UNL     1      33.546 -15.075 -21.745  0.00  0.00    +0.017 A 
ATOM      4  C   UNL     1      33.203 -14.518 -22.977  0.00  0.00    +0.056 A 
ATOM      5  C   UNL     1      34.293 -16.267 -22.008  0.00  0.00    +0.018 A 
ATOM      6  C   UNL     1      32.062 -12.702 -21.913  0.00  0.00    -0.011 C 
ATOM      7  C   UNL     1      34.384 -16.404 -23.393  0.00  0.00    +0.057 A 
ATOM      8  C   UNL     1      32.464 -13.335 -23.094  0.00  0.00    +0.013 C 
ATOM      9  C   UNL     1      33.130 -14.417 -20.568  0.00  0.00    +0.001 C 
ATOM     10  C   UNL     1      32.390 -13.234 -20.668  0.00  0.00    -0.004 C 
ATOM     11  C   UNL     1      34.901 -17.244 -21.192  0.00  0.00    +0.013 C 
ATOM     12  C   UNL     1      35.054 -17.469 -24.006  0.00  0.00    +0.018 C 
ATOM     13  C   UNL     1      35.573 -18.316 -21.791  0.00  0.00    +0.058 C 
ATOM     14  C   UNL     1      35.647 -18.424 -23.178  0.00  0.00    +0.013 C 
ATOM     15  H   UNL     1      33.627 -15.182 -24.920  0.00  0.00    +0.166 HD
ENDROOT
BRANCH   6  16
ATOM     16  C   UNL     1      31.272 -11.439 -21.991  0.00  0.00    +0.121 C 
ATOM     17  C   UNL     1      30.536 -11.082 -20.684  0.00  0.00    +0.016 C 
BRANCH  16  19
ATOM     18  O   UNL     1      32.590 -10.074 -23.529  0.00  0.00    -0.250 OA
ATOM     19  C   UNL     1      32.120 -10.234 -22.410  0.00  0.00    +0.317 C 
BRANCH  19  20
ATOM     20  O   UNL     1      32.316  -9.344 -21.401  0.00  0.00    -0.480 OA
ATOM     21  H   UNL     1      32.667  -8.496 -21.587  0.00  0.00    +0.295 HD
ENDBRANCH  19  20
ENDBRANCH  16  19
ENDBRANCH   6  16
TORSDOF 3
ENDMDL
MODEL 4
REMARK VINA RESULT:      -9.4      6.715      8.912
REMARK  Name = 2581
REMARK  3 active torsions:
REMARK  status: ('A' for Active; 'I' for Inactive)
REMARK    1  A    between atoms: C_6  and  C_16
REMARK    2  A    between atoms: C_16  and  C_19
REMARK    3  A    between atoms: C_19  and  O_20
REMARK                            x       y       z     vdW  Elec       q    Type
REMARK                         _______ _______ _______ _____ _____    ______ ____
ROOT
ATOM      1 CL   UNL     1      35.354 -18.856 -23.562  0.00  0.00    -0.082 Cl
ATOM      2  N   UNL     1      32.813 -13.633 -24.182  0.00  0.00    -0.353 N 
ATOM      3  C   UNL     1      33.030 -14.313 -22.070  0.00  0.00    +0.017 A 
ATOM      4  C   UNL     1      32.564 -13.276 -22.878  0.00  0.00    +0.056 A 
ATOM      5  C   UNL     1      33.573 -15.317 -22.933  0.00  0.00    +0.018 A 
ATOM      6  C   UNL     1      31.840 -12.025 -20.970  0.00  0.00    -0.011 C 
ATOM      7  C   UNL     1      33.423 -14.864 -24.244  0.00  0.00    +0.057 A 
ATOM      8  C   UNL     1      31.966 -12.122 -22.359  0.00  0.00    +0.013 C 
ATOM      9  C   UNL     1      32.892 -14.191 -20.670  0.00  0.00    +0.001 C 
ATOM     10  C   UNL     1      32.297 -13.044 -20.136  0.00  0.00    -0.004 C 
ATOM     11  C   UNL     1      34.181 -16.572 -22.719  0.00  0.00    +0.013 C 
ATOM     12  C   UNL     1      33.850 -15.602 -25.354  0.00  0.00    +0.018 C 
ATOM     13  C   UNL     1      34.611 -17.322 -23.818  0.00  0.00    +0.058 C 
ATOM     14  C   UNL     1      34.447 -16.842 -25.115  0.00  0.00    +0.013 C 
ATOM     15  H   UNL     1      32.584 -13.082 -24.965  0.00  0.00    +0.166 HD
ENDROOT
BRANCH   6  16
ATOM     16  C   UNL     1      31.208 -10.812 -20.374  0.00  0.00    +0.121 C 
ATOM     17  C   UNL     1      31.125 -10.844 -18.834  0.00  0.00    +0.016 C 
BRANCH  16  19
ATOM     18  O   UNL     1      31.822  -9.009 -21.903  0.00  0.00    -0.250 OA
ATOM     19  C   UNL     1      31.907  -9.514 -20.791  0.00  0.00    +0.317 C 
BRANCH  19  20
ATOM     20  O   UNL     1      32.654  -8.967 -19.795  0.00  0.00    -0.480 OA
ATOM     21  H   UNL     1      32.719  -9.401 -18.967  0.00  0.00    +0.295 HD
ENDBRANCH  19  20
ENDBRANCH  16  19
ENDBRANCH   6  16
TORSDOF 3
ENDMDL
MODEL 5
REMARK VINA RESULT:      -9.3      4.836      8.087
REMARK  Name = 2581
REMARK  3 active torsions:
REMARK  status: ('A' for Active; 'I' for Inactive)
REMARK    1  A    between atoms: C_6  and  C_16
REMARK    2  A    between atoms: C_16  and  C_19
REMARK    3  A    between atoms: C_19  and  O_20
REMARK                            x       y       z     vdW  Elec       q    Type
REMARK                         _______ _______ _______ _____ _____    ______ ____
ROOT
ATOM      1 CL   UNL     1      32.951 -13.350 -27.368  0.00  0.00    -0.082 Cl
ATOM      2  N   UNL     1      34.497 -15.365 -22.108  0.00  0.00    -0.353 N 
ATOM      3  C   UNL     1      34.382 -16.922 -23.699  0.00  0.00    +0.017 A 
ATOM      4  C   UNL     1      34.660 -16.708 -22.349  0.00  0.00    +0.056 A 
ATOM      5  C   UNL     1      34.043 -15.655 -24.272  0.00  0.00    +0.018 A 
ATOM      6  C   UNL     1      35.118 -19.033 -22.007  0.00  0.00    -0.011 C 
ATOM      7  C   UNL     1      34.123 -14.704 -23.255  0.00  0.00    +0.057 A 
ATOM      8  C   UNL     1      35.030 -17.740 -21.479  0.00  0.00    +0.013 C 
ATOM      9  C   UNL     1      34.479 -18.235 -24.208  0.00  0.00    +0.001 C 
ATOM     10  C   UNL     1      34.847 -19.277 -23.352  0.00  0.00    -0.004 C 
ATOM     11  C   UNL     1      33.675 -15.229 -25.566  0.00  0.00    +0.013 C 
ATOM     12  C   UNL     1      33.854 -13.347 -23.464  0.00  0.00    +0.018 C 
ATOM     13  C   UNL     1      33.402 -13.876 -25.790  0.00  0.00    +0.058 C 
ATOM     14  C   UNL     1      33.491 -12.950 -24.753  0.00  0.00    +0.013 C 
ATOM     15  H   UNL     1      34.628 -14.934 -21.232  0.00  0.00    +0.166 HD
ENDROOT
BRANCH   6  16
ATOM     16  C   UNL     1      35.508 -20.163 -21.115  0.00  0.00    +0.121 C 
ATOM     17  C   UNL     1      36.741 -19.868 -20.236  0.00  0.00    +0.016 C 
BRANCH  16  19
ATOM     18  O   UNL     1      33.199 -20.268 -20.326  0.00  0.00    -0.250 OA
ATOM     19  C   UNL     1      34.365 -20.619 -20.203  0.00  0.00    +0.317 C 
BRANCH  19  20
ATOM     20  O   UNL     1      34.775 -21.461 -19.216  0.00  0.00    -0.480 OA
ATOM     21  H   UNL     1      34.200 -22.133 -18.906  0.00  0.00    +0.295 HD
ENDBRANCH  19  20
ENDBRANCH  16  19
ENDBRANCH   6  16
TORSDOF 3
ENDMDL
MODEL 6
REMARK VINA RESULT:      -9.1      6.606      8.193
REMARK  Name = 2581
REMARK  3 active torsions:
REMARK  status: ('A' for Active; 'I' for Inactive)
REMARK    1  A    between atoms: C_6  and  C_16
REMARK    2  A    between atoms: C_16  and  C_19
REMARK    3  A    between atoms: C_19  and  O_20
REMARK                            x       y       z     vdW  Elec       q    Type
REMARK                         _______ _______ _______ _____ _____    ______ ____
ROOT
ATOM      1 CL   UNL     1      29.102 -22.531 -16.848  0.00  0.00    -0.082 Cl
ATOM      2  N   UNL     1      33.168 -25.010 -13.465  0.00  0.00    -0.353 N 
ATOM      3  C   UNL     1      33.979 -23.783 -15.141  0.00  0.00    +0.017 A 
ATOM      4  C   UNL     1      34.334 -24.580 -14.053  0.00  0.00    +0.056 A 
ATOM      5  C   UNL     1      32.549 -23.744 -15.194  0.00  0.00    +0.018 A 
ATOM      6  C   UNL     1      36.665 -24.259 -14.493  0.00  0.00    -0.011 C 
ATOM      7  C   UNL     1      32.073 -24.519 -14.136  0.00  0.00    +0.057 A 
ATOM      8  C   UNL     1      35.665 -24.836 -13.704  0.00  0.00    +0.013 C 
ATOM      9  C   UNL     1      35.006 -23.212 -15.922  0.00  0.00    +0.001 C 
ATOM     10  C   UNL     1      36.341 -23.458 -15.586  0.00  0.00    -0.004 C 
ATOM     11  C   UNL     1      31.615 -23.119 -16.046  0.00  0.00    +0.013 C 
ATOM     12  C   UNL     1      30.708 -24.700 -13.886  0.00  0.00    +0.018 C 
ATOM     13  C   UNL     1      30.247 -23.292 -15.810  0.00  0.00    +0.058 C 
ATOM     14  C   UNL     1      29.803 -24.072 -14.744  0.00  0.00    +0.013 C 
ATOM     15  H   UNL     1      33.123 -25.591 -12.672  0.00  0.00    +0.166 HD
ENDROOT
BRANCH   6  16
ATOM     16  C   UNL     1      38.098 -24.506 -14.157  0.00  0.00    +0.121 C 
ATOM     17  C   UNL     1      38.378 -24.590 -12.643  0.00  0.00    +0.016 C 
BRANCH  16  19
ATOM     18  O   UNL     1      38.265 -26.908 -14.574  0.00  0.00    -0.250 OA
ATOM     19  C   UNL     1      38.651 -25.772 -14.820  0.00  0.00    +0.317 C 
BRANCH  19  20
ATOM     20  O   UNL     1      39.638 -25.515 -15.719  0.00  0.00    -0.480 OA
ATOM     21  H   UNL     1      39.708 -26.031 -16.498  0.00  0.00    +0.295 HD
ENDBRANCH  19  20
ENDBRANCH  16  19
ENDBRANCH   6  16
TORSDOF 3
ENDMDL
MODEL 7
REMARK VINA RESULT:      -9.0      5.173      8.346
REMARK  Name = 2581
REMARK  3 active torsions:
REMARK  status: ('A' for Active; 'I' for Inactive)
REMARK    1  A    between atoms: C_6  and  C_16
REMARK    2  A    between atoms: C_16  and  C_19
REMARK    3  A    between atoms: C_19  and  O_20
REMARK                            x       y       z     vdW  Elec       q    Type
REMARK                         _______ _______ _______ _____ _____    ______ ____
ROOT
ATOM      1 CL   UNL     1      33.020 -21.118 -20.398  0.00  0.00    -0.082 Cl
ATOM      2  N   UNL     1      37.324 -22.485 -16.694  0.00  0.00    -0.353 N 
ATOM      3  C   UNL     1      35.301 -23.170 -16.056  0.00  0.00    +0.017 A 
ATOM      4  C   UNL     1      36.648 -23.151 -15.698  0.00  0.00    +0.056 A 
ATOM      5  C   UNL     1      35.181 -22.490 -17.310  0.00  0.00    +0.018 A 
ATOM      6  C   UNL     1      36.198 -24.351 -13.677  0.00  0.00    -0.011 C 
ATOM      7  C   UNL     1      36.460 -22.074 -17.681  0.00  0.00    +0.057 A 
ATOM      8  C   UNL     1      37.127 -23.731 -14.518  0.00  0.00    +0.013 C 
ATOM      9  C   UNL     1      34.382 -23.803 -15.191  0.00  0.00    +0.001 C 
ATOM     10  C   UNL     1      34.845 -24.388 -14.008  0.00  0.00    -0.004 C 
ATOM     11  C   UNL     1      34.099 -22.190 -18.164  0.00  0.00    +0.013 C 
ATOM     12  C   UNL     1      36.713 -21.372 -18.865  0.00  0.00    +0.018 C 
ATOM     13  C   UNL     1      34.337 -21.488 -19.351  0.00  0.00    +0.058 C 
ATOM     14  C   UNL     1      35.626 -21.087 -19.694  0.00  0.00    +0.013 C 
ATOM     15  H   UNL     1      38.295 -22.323 -16.698  0.00  0.00    +0.166 HD
ENDROOT
BRANCH   6  16
ATOM     16  C   UNL     1      36.665 -24.983 -12.408  0.00  0.00    +0.121 C 
ATOM     17  C   UNL     1      38.173 -25.307 -12.391  0.00  0.00    +0.016 C 
BRANCH  16  19
ATOM     18  O   UNL     1      35.451 -24.395 -10.371  0.00  0.00    -0.250 OA
ATOM     19  C   UNL     1      36.341 -24.138 -11.172  0.00  0.00    +0.317 C 
BRANCH  19  20
ATOM     20  O   UNL     1      37.143 -23.047 -11.047  0.00  0.00    -0.480 OA
ATOM     21  H   UNL     1      37.593 -22.709 -11.796  0.00  0.00    +0.295 HD
ENDBRANCH  19  20
ENDBRANCH  16  19
ENDBRANCH   6  16
TORSDOF 3
ENDMDL
MODEL 8
REMARK VINA RESULT:      -9.0      8.057     11.227
REMARK  Name = 2581
REMARK  3 active torsions:
REMARK  status: ('A' for Active; 'I' for Inactive)
REMARK    1  A    between atoms: C_6  and  C_16
REMARK    2  A    between atoms: C_16  and  C_19
REMARK    3  A    between atoms: C_19  and  O_20
REMARK                            x       y       z     vdW  Elec       q    Type
REMARK                         _______ _______ _______ _____ _____    ______ ____
ROOT
ATOM      1 CL   UNL     1      31.741  -6.395 -21.048  0.00  0.00    -0.082 Cl
ATOM      2  N   UNL     1      34.409 -10.330 -24.442  0.00  0.00    -0.353 N 
ATOM      3  C   UNL     1      32.876 -11.182 -23.065  0.00  0.00    +0.017 A 
ATOM      4  C   UNL     1      33.805 -11.503 -24.054  0.00  0.00    +0.056 A 
ATOM      5  C   UNL     1      32.937  -9.766 -22.865  0.00  0.00    +0.018 A 
ATOM      6  C   UNL     1      33.244 -13.826 -23.921  0.00  0.00    -0.011 C 
ATOM      7  C   UNL     1      33.902  -9.264 -23.737  0.00  0.00    +0.057 A 
ATOM      8  C   UNL     1      34.013 -12.813 -24.502  0.00  0.00    +0.013 C 
ATOM      9  C   UNL     1      32.112 -12.222 -22.494  0.00  0.00    +0.001 C 
ATOM     10  C   UNL     1      32.307 -13.536 -22.931  0.00  0.00    -0.004 C 
ATOM     11  C   UNL     1      32.257  -8.864 -22.020  0.00  0.00    +0.013 C 
ATOM     12  C   UNL     1      34.224  -7.903 -23.809  0.00  0.00    +0.018 C 
ATOM     13  C   UNL     1      32.568  -7.501 -22.079  0.00  0.00    +0.058 C 
ATOM     14  C   UNL     1      33.537  -7.031 -22.961  0.00  0.00    +0.013 C 
ATOM     15  H   UNL     1      35.111 -10.263 -25.129  0.00  0.00    +0.166 HD
ENDROOT
BRANCH   6  16
ATOM     16  C   UNL     1      33.432 -15.237 -24.368  0.00  0.00    +0.121 C 
ATOM     17  C   UNL     1      33.423 -15.412 -25.901  0.00  0.00    +0.016 C 
BRANCH  16  19
ATOM     18  O   UNL     1      35.196 -15.617 -22.722  0.00  0.00    -0.250 OA
ATOM     19  C   UNL     1      34.718 -15.866 -23.821  0.00  0.00    +0.317 C 
BRANCH  19  20
ATOM     20  O   UNL     1      35.297 -16.737 -24.690  0.00  0.00    -0.480 OA
ATOM     21  H   UNL     1      35.921 -17.362 -24.379  0.00  0.00    +0.295 HD
ENDBRANCH  19  20
ENDBRANCH  16  19
ENDBRANCH   6  16
TORSDOF 3
ENDMDL
MODEL 9
REMARK VINA RESULT:      -8.9      5.768      8.422
REMARK  Name = 2581
REMARK  3 active torsions:
REMARK  status: ('A' for Active; 'I' for Inactive)
REMARK    1  A    between atoms: C_6  and  C_16
REMARK    2  A    between atoms: C_16  and  C_19
REMARK    3  A    between atoms: C_19  and  O_20
REMARK                            x       y       z     vdW  Elec       q    Type
REMARK                         _______ _______ _______ _____ _____    ______ ____
ROOT
ATOM      1 CL   UNL     1      31.672  -9.389 -23.183  0.00  0.00    -0.082 Cl
ATOM      2  N   UNL     1      32.603 -14.434 -20.389  0.00  0.00    -0.353 N 
ATOM      3  C   UNL     1      33.314 -14.400 -22.502  0.00  0.00    +0.017 A 
ATOM      4  C   UNL     1      33.219 -15.191 -21.357  0.00  0.00    +0.056 A 
ATOM      5  C   UNL     1      32.733 -13.129 -22.193  0.00  0.00    +0.018 A 
ATOM      6  C   UNL     1      34.284 -17.030 -22.459  0.00  0.00    -0.011 C 
ATOM      7  C   UNL     1      32.298 -13.181 -20.868  0.00  0.00    +0.057 A 
ATOM      8  C   UNL     1      33.693 -16.507 -21.304  0.00  0.00    +0.013 C 
ATOM      9  C   UNL     1      33.916 -14.950 -23.654  0.00  0.00    +0.001 C 
ATOM     10  C   UNL     1      34.395 -16.263 -23.617  0.00  0.00    -0.004 C 
ATOM     11  C   UNL     1      32.537 -11.936 -22.920  0.00  0.00    +0.013 C 
ATOM     12  C   UNL     1      31.676 -12.101 -20.232  0.00  0.00    +0.018 C 
ATOM     13  C   UNL     1      31.915 -10.848 -22.298  0.00  0.00    +0.058 C 
ATOM     14  C   UNL     1      31.493 -10.931 -20.974  0.00  0.00    +0.013 C 
ATOM     15  H   UNL     1      32.406 -14.746 -19.476  0.00  0.00    +0.166 HD
ENDROOT
BRANCH   6  16
ATOM     16  C   UNL     1      34.803 -18.429 -22.447  0.00  0.00    +0.121 C 
ATOM     17  C   UNL     1      35.003 -19.032 -23.853  0.00  0.00    +0.016 C 
BRANCH  16  19
ATOM     18  O   UNL     1      36.199 -18.916 -20.502  0.00  0.00    -0.250 OA
ATOM     19  C   UNL     1      36.118 -18.566 -21.673  0.00  0.00    +0.317 C 
BRANCH  19  20
ATOM     20  O   UNL     1      37.210 -18.249 -22.418  0.00  0.00    -0.480 OA
ATOM     21  H   UNL     1      38.036 -18.107 -22.000  0.00  0.00    +0.295 HD
ENDBRANCH  19  20
ENDBRANCH  16  19
ENDBRANCH   6  16
TORSDOF 3
ENDMDL
