MODEL 1
REMARK VINA RESULT:      -7.6      0.000      0.000
REMARK  Name = 8249
REMARK  6 active torsions:
REMARK  status: ('A' for Active; 'I' for Inactive)
REMARK    1  A    between atoms: N_1  and  C_3
REMARK    2  A    between atoms: N_1  and  C_14
REMARK    3  A    between atoms: C_3  and  N_6
REMARK    4  A    between atoms: N_6  and  C_9
REMARK    5  A    between atoms: C_14  and  C_15
REMARK    6  A    between atoms: C_15  and  C_16
REMARK                            x       y       z     vdW  Elec       q    Type
REMARK                         _______ _______ _______ _____ _____    ______ ____
ROOT
ATOM      1  N   UNL     1      34.172 -18.667 -25.006  0.00  0.00    -0.368 N 
ATOM      2  C   UNL     1      34.631 -17.388 -24.780  0.00  0.00    +0.220 C 
ATOM      3  H   UNL     1      34.307 -19.366 -24.326  0.00  0.00    +0.159 HD
ATOM      4  H   UNL     1      33.711 -18.882 -25.849  0.00  0.00    +0.159 HD
ENDROOT
BRANCH   2   5
ATOM      5  N   UNL     1      35.271 -16.958 -23.739  0.00  0.00    -0.238 NA
BRANCH   5   6
ATOM      6  C   UNL     1      34.793 -17.394 -22.433  0.00  0.00    +0.133 C 
BRANCH   6   7
ATOM      7  C   UNL     1      35.717 -18.472 -21.874  0.00  0.00    +0.053 C 
BRANCH   7   8
ATOM      8  C   UNL     1      34.986 -19.508 -21.055  0.00  0.00    -0.020 C 
ATOM      9  C   UNL     1      35.713 -20.470 -20.370  0.00  0.00    -0.004 C 
ATOM     10  C   UNL     1      33.601 -19.480 -21.002  0.00  0.00    -0.004 C 
ATOM     11  C   UNL     1      35.037 -21.427 -19.613  0.00  0.00    -0.000 C 
ATOM     12  C   UNL     1      32.926 -20.437 -20.244  0.00  0.00    -0.000 C 
ATOM     13  C   UNL     1      33.644 -21.411 -19.550  0.00  0.00    -0.000 C 
ENDBRANCH   7   8
ENDBRANCH   6   7
ENDBRANCH   5   6
ENDBRANCH   2   5
BRANCH   2  14
ATOM     14  N   UNL     1      34.424 -16.435 -25.758  0.00  0.00    -0.180 NA
BRANCH  14  17
ATOM     15  N   UNL     1      32.594 -15.181 -26.479  0.00  0.00    -0.370 N 
ATOM     16  N   UNL     1      33.384 -14.763 -24.377  0.00  0.00    -0.370 N 
ATOM     17  C   UNL     1      33.529 -15.509 -25.526  0.00  0.00    +0.196 C 
ATOM     18  H   UNL     1      32.593 -15.645 -27.347  0.00  0.00    +0.159 HD
ATOM     19  H   UNL     1      31.927 -14.482 -26.294  0.00  0.00    +0.159 HD
ATOM     20  H   UNL     1      33.994 -14.904 -23.617  0.00  0.00    +0.159 HD
ATOM     21  H   UNL     1      32.670 -14.088 -24.315  0.00  0.00    +0.159 HD
ENDBRANCH  14  17
ENDBRANCH   2  14
TORSDOF 6
ENDMDL
MODEL 2
REMARK VINA RESULT:      -7.6      1.260      1.756
REMARK  Name = 8249
REMARK  6 active torsions:
REMARK  status: ('A' for Active; 'I' for Inactive)
REMARK    1  A    between atoms: N_1  and  C_3
REMARK    2  A    between atoms: N_1  and  C_14
REMARK    3  A    between atoms: C_3  and  N_6
REMARK    4  A    between atoms: N_6  and  C_9
REMARK    5  A    between atoms: C_14  and  C_15
REMARK    6  A    between atoms: C_15  and  C_16
REMARK                            x       y       z     vdW  Elec       q    Type
REMARK                         _______ _______ _______ _____ _____    ______ ____
ROOT
ATOM      1  N   UNL     1      35.102 -17.135 -25.120  0.00  0.00    -0.368 N 
ATOM      2  C   UNL     1      34.751 -16.351 -24.042  0.00  0.00    +0.220 C 
ATOM      3  H   UNL     1      35.860 -17.760 -25.047  0.00  0.00    +0.159 HD
ATOM      4  H   UNL     1      34.597 -17.070 -25.962  0.00  0.00    +0.159 HD
ENDROOT
BRANCH   2   5
ATOM      5  N   UNL     1      35.328 -16.308 -22.884  0.00  0.00    -0.238 NA
BRANCH   5   6
ATOM      6  C   UNL     1      35.564 -17.576 -22.206  0.00  0.00    +0.133 C 
BRANCH   6   7
ATOM      7  C   UNL     1      34.239 -18.160 -21.720  0.00  0.00    +0.053 C 
BRANCH   7   8
ATOM      8  C   UNL     1      34.413 -19.430 -20.924  0.00  0.00    -0.020 C 
ATOM      9  C   UNL     1      35.690 -19.913 -20.683  0.00  0.00    -0.004 C 
ATOM     10  C   UNL     1      33.292 -20.093 -20.448  0.00  0.00    -0.004 C 
ATOM     11  C   UNL     1      35.850 -21.087 -19.947  0.00  0.00    -0.000 C 
ATOM     12  C   UNL     1      33.453 -21.267 -19.712  0.00  0.00    -0.000 C 
ATOM     13  C   UNL     1      34.732 -21.764 -19.461  0.00  0.00    -0.000 C 
ENDBRANCH   7   8
ENDBRANCH   6   7
ENDBRANCH   5   6
ENDBRANCH   2   5
BRANCH   2  14
ATOM     14  N   UNL     1      33.683 -15.487 -24.182  0.00  0.00    -0.180 NA
BRANCH  14  17
ATOM     15  N   UNL     1      32.710 -14.705 -22.212  0.00  0.00    -0.370 N 
ATOM     16  N   UNL     1      34.167 -13.310 -23.283  0.00  0.00    -0.370 N 
ATOM     17  C   UNL     1      33.547 -14.539 -23.291  0.00  0.00    +0.196 C 
ATOM     18  H   UNL     1      32.207 -15.544 -22.104  0.00  0.00    +0.159 HD
ATOM     19  H   UNL     1      32.614 -13.985 -21.548  0.00  0.00    +0.159 HD
ATOM     20  H   UNL     1      34.793 -13.069 -24.004  0.00  0.00    +0.159 HD
ATOM     21  H   UNL     1      33.985 -12.671 -22.556  0.00  0.00    +0.159 HD
ENDBRANCH  14  17
ENDBRANCH   2  14
TORSDOF 6
ENDMDL
MODEL 3
REMARK VINA RESULT:      -7.5      1.402      2.216
REMARK  Name = 8249
REMARK  6 active torsions:
REMARK  status: ('A' for Active; 'I' for Inactive)
REMARK    1  A    between atoms: N_1  and  C_3
REMARK    2  A    between atoms: N_1  and  C_14
REMARK    3  A    between atoms: C_3  and  N_6
REMARK    4  A    between atoms: N_6  and  C_9
REMARK    5  A    between atoms: C_14  and  C_15
REMARK    6  A    between atoms: C_15  and  C_16
REMARK                            x       y       z     vdW  Elec       q    Type
REMARK                         _______ _______ _______ _____ _____    ______ ____
ROOT
ATOM      1  N   UNL     1      34.586 -15.798 -20.542  0.00  0.00    -0.368 N 
ATOM      2  C   UNL     1      34.470 -15.858 -21.914  0.00  0.00    +0.220 C 
ATOM      3  H   UNL     1      35.349 -16.230 -20.093  0.00  0.00    +0.159 HD
ATOM      4  H   UNL     1      33.906 -15.324 -20.011  0.00  0.00    +0.159 HD
ENDROOT
BRANCH   2   5
ATOM      5  N   UNL     1      35.266 -16.458 -22.742  0.00  0.00    -0.238 NA
BRANCH   5   6
ATOM      6  C   UNL     1      35.098 -17.896 -22.906  0.00  0.00    +0.133 C 
BRANCH   6   7
ATOM      7  C   UNL     1      35.903 -18.639 -21.843  0.00  0.00    +0.053 C 
BRANCH   7   8
ATOM      8  C   UNL     1      35.067 -19.605 -21.040  0.00  0.00    -0.020 C 
ATOM      9  C   UNL     1      35.692 -20.630 -20.345  0.00  0.00    -0.004 C 
ATOM     10  C   UNL     1      33.690 -19.452 -21.010  0.00  0.00    -0.004 C 
ATOM     11  C   UNL     1      34.920 -21.523 -19.602  0.00  0.00    -0.000 C 
ATOM     12  C   UNL     1      32.918 -20.345 -20.267  0.00  0.00    -0.000 C 
ATOM     13  C   UNL     1      33.532 -21.381 -19.563  0.00  0.00    -0.000 C 
ENDBRANCH   7   8
ENDBRANCH   6   7
ENDBRANCH   5   6
ENDBRANCH   2   5
BRANCH   2  14
ATOM     14  N   UNL     1      33.386 -15.242 -22.507  0.00  0.00    -0.180 NA
BRANCH  14  17
ATOM     15  N   UNL     1      34.155 -13.288 -23.524  0.00  0.00    -0.370 N 
ATOM     16  N   UNL     1      33.330 -14.922 -24.890  0.00  0.00    -0.370 N 
ATOM     17  C   UNL     1      33.602 -14.545 -23.593  0.00  0.00    +0.196 C 
ATOM     18  H   UNL     1      34.394 -12.904 -22.650  0.00  0.00    +0.159 HD
ATOM     19  H   UNL     1      34.311 -12.773 -24.348  0.00  0.00    +0.159 HD
ATOM     20  H   UNL     1      32.932 -15.804 -25.074  0.00  0.00    +0.159 HD
ATOM     21  H   UNL     1      33.535 -14.311 -25.634  0.00  0.00    +0.159 HD
ENDBRANCH  14  17
ENDBRANCH   2  14
TORSDOF 6
ENDMDL
MODEL 4
REMARK VINA RESULT:      -7.5      7.161      9.622
REMARK  Name = 8249
REMARK  6 active torsions:
REMARK  status: ('A' for Active; 'I' for Inactive)
REMARK    1  A    between atoms: N_1  and  C_3
REMARK    2  A    between atoms: N_1  and  C_14
REMARK    3  A    between atoms: C_3  and  N_6
REMARK    4  A    between atoms: N_6  and  C_9
REMARK    5  A    between atoms: C_14  and  C_15
REMARK    6  A    between atoms: C_15  and  C_16
REMARK                            x       y       z     vdW  Elec       q    Type
REMARK                         _______ _______ _______ _____ _____    ______ ____
ROOT
ATOM      1  N   UNL     1      33.419 -23.276 -14.384  0.00  0.00    -0.368 N 
ATOM      2  C   UNL     1      34.428 -23.958 -15.028  0.00  0.00    +0.220 C 
ATOM      3  H   UNL     1      32.739 -22.794 -14.907  0.00  0.00    +0.159 HD
ATOM      4  H   UNL     1      33.379 -23.270 -13.400  0.00  0.00    +0.159 HD
ENDROOT
BRANCH   2   5
ATOM      5  N   UNL     1      34.627 -24.040 -16.305  0.00  0.00    -0.238 NA
BRANCH   5   6
ATOM      6  C   UNL     1      34.745 -22.790 -17.045  0.00  0.00    +0.133 C 
BRANCH   6   7
ATOM      7  C   UNL     1      33.798 -22.804 -18.242  0.00  0.00    +0.053 C 
BRANCH   7   8
ATOM      8  C   UNL     1      34.077 -21.694 -19.225  0.00  0.00    -0.020 C 
ATOM      9  C   UNL     1      35.387 -21.419 -19.588  0.00  0.00    -0.004 C 
ATOM     10  C   UNL     1      33.019 -20.967 -19.749  0.00  0.00    -0.004 C 
ATOM     11  C   UNL     1      35.644 -20.393 -20.497  0.00  0.00    -0.000 C 
ATOM     12  C   UNL     1      33.276 -19.941 -20.659  0.00  0.00    -0.000 C 
ATOM     13  C   UNL     1      34.589 -19.654 -21.033  0.00  0.00    -0.000 C 
ENDBRANCH   7   8
ENDBRANCH   6   7
ENDBRANCH   5   6
ENDBRANCH   2   5
BRANCH   2  14
ATOM     14  N   UNL     1      35.365 -24.621 -14.259  0.00  0.00    -0.180 NA
BRANCH  14  17
ATOM     15  N   UNL     1      35.988 -26.669 -15.185  0.00  0.00    -0.370 N 
ATOM     16  N   UNL     1      37.505 -24.966 -15.299  0.00  0.00    -0.370 N 
ATOM     17  C   UNL     1      36.252 -25.355 -14.880  0.00  0.00    +0.196 C 
ATOM     18  H   UNL     1      35.123 -27.068 -14.936  0.00  0.00    +0.159 HD
ATOM     19  H   UNL     1      36.664 -27.212 -15.651  0.00  0.00    +0.159 HD
ATOM     20  H   UNL     1      37.814 -24.045 -15.140  0.00  0.00    +0.159 HD
ATOM     21  H   UNL     1      38.093 -25.609 -15.758  0.00  0.00    +0.159 HD
ENDBRANCH  14  17
ENDBRANCH   2  14
TORSDOF 6
ENDMDL
MODEL 5
REMARK VINA RESULT:      -7.3      1.262      2.138
REMARK  Name = 8249
REMARK  6 active torsions:
REMARK  status: ('A' for Active; 'I' for Inactive)
REMARK    1  A    between atoms: N_1  and  C_3
REMARK    2  A    between atoms: N_1  and  C_14
REMARK    3  A    between atoms: C_3  and  N_6
REMARK    4  A    between atoms: N_6  and  C_9
REMARK    5  A    between atoms: C_14  and  C_15
REMARK    6  A    between atoms: C_15  and  C_16
REMARK                            x       y       z     vdW  Elec       q    Type
REMARK                         _______ _______ _______ _____ _____    ______ ____
ROOT
ATOM      1  N   UNL     1      34.306 -14.496 -21.894  0.00  0.00    -0.368 N 
ATOM      2  C   UNL     1      34.572 -15.750 -22.400  0.00  0.00    +0.220 C 
ATOM      3  H   UNL     1      33.850 -14.401 -21.027  0.00  0.00    +0.159 HD
ATOM      4  H   UNL     1      34.570 -13.694 -22.402  0.00  0.00    +0.159 HD
ENDROOT
BRANCH   2   5
ATOM      5  N   UNL     1      34.269 -16.890 -21.865  0.00  0.00    -0.238 NA
BRANCH   5   6
ATOM      6  C   UNL     1      35.326 -17.595 -21.151  0.00  0.00    +0.133 C 
BRANCH   6   7
ATOM      7  C   UNL     1      35.466 -19.014 -21.697  0.00  0.00    +0.053 C 
BRANCH   7   8
ATOM      8  C   UNL     1      34.950 -20.065 -20.745  0.00  0.00    -0.020 C 
ATOM      9  C   UNL     1      35.849 -20.913 -20.117  0.00  0.00    -0.004 C 
ATOM     10  C   UNL     1      33.587 -20.163 -20.515  0.00  0.00    -0.004 C 
ATOM     11  C   UNL     1      35.372 -21.885 -19.236  0.00  0.00    -0.000 C 
ATOM     12  C   UNL     1      33.110 -21.135 -19.634  0.00  0.00    -0.000 C 
ATOM     13  C   UNL     1      34.002 -21.996 -18.995  0.00  0.00    -0.000 C 
ENDBRANCH   7   8
ENDBRANCH   6   7
ENDBRANCH   5   6
ENDBRANCH   2   5
BRANCH   2  14
ATOM     14  N   UNL     1      35.212 -15.842 -23.620  0.00  0.00    -0.180 NA
BRANCH  14  17
ATOM     15  N   UNL     1      34.594 -17.669 -24.932  0.00  0.00    -0.370 N 
ATOM     16  N   UNL     1      33.710 -15.638 -25.488  0.00  0.00    -0.370 N 
ATOM     17  C   UNL     1      34.534 -16.329 -24.627  0.00  0.00    +0.196 C 
ATOM     18  H   UNL     1      35.152 -18.272 -24.389  0.00  0.00    +0.159 HD
ATOM     19  H   UNL     1      34.081 -18.024 -25.693  0.00  0.00    +0.159 HD
ATOM     20  H   UNL     1      33.583 -14.668 -25.374  0.00  0.00    +0.159 HD
ATOM     21  H   UNL     1      33.249 -16.112 -26.216  0.00  0.00    +0.159 HD
ENDBRANCH  14  17
ENDBRANCH   2  14
TORSDOF 6
ENDMDL
MODEL 6
REMARK VINA RESULT:      -7.2      1.904      2.730
REMARK  Name = 8249
REMARK  6 active torsions:
REMARK  status: ('A' for Active; 'I' for Inactive)
REMARK    1  A    between atoms: N_1  and  C_3
REMARK    2  A    between atoms: N_1  and  C_14
REMARK    3  A    between atoms: C_3  and  N_6
REMARK    4  A    between atoms: N_6  and  C_9
REMARK    5  A    between atoms: C_14  and  C_15
REMARK    6  A    between atoms: C_15  and  C_16
REMARK                            x       y       z     vdW  Elec       q    Type
REMARK                         _______ _______ _______ _____ _____    ______ ____
ROOT
ATOM      1  N   UNL     1      32.730 -15.731 -20.937  0.00  0.00    -0.368 N 
ATOM      2  C   UNL     1      33.882 -15.543 -21.669  0.00  0.00    +0.220 C 
ATOM      3  H   UNL     1      32.476 -16.635 -20.642  0.00  0.00    +0.159 HD
ATOM      4  H   UNL     1      32.159 -14.961 -20.711  0.00  0.00    +0.159 HD
ENDROOT
BRANCH   2   5
ATOM      5  N   UNL     1      34.718 -16.451 -22.061  0.00  0.00    -0.238 NA
BRANCH   5   6
ATOM      6  C   UNL     1      34.986 -17.552 -21.145  0.00  0.00    +0.133 C 
BRANCH   6   7
ATOM      7  C   UNL     1      34.487 -18.863 -21.747  0.00  0.00    +0.053 C 
BRANCH   7   8
ATOM      8  C   UNL     1      34.506 -20.008 -20.763  0.00  0.00    -0.020 C 
ATOM      9  C   UNL     1      33.307 -20.491 -20.259  0.00  0.00    -0.004 C 
ATOM     10  C   UNL     1      35.720 -20.556 -20.380  0.00  0.00    -0.004 C 
ATOM     11  C   UNL     1      33.324 -21.549 -19.350  0.00  0.00    -0.000 C 
ATOM     12  C   UNL     1      35.737 -21.615 -19.471  0.00  0.00    -0.000 C 
ATOM     13  C   UNL     1      34.539 -22.111 -18.956  0.00  0.00    -0.000 C 
ENDBRANCH   7   8
ENDBRANCH   6   7
ENDBRANCH   5   6
ENDBRANCH   2   5
BRANCH   2  14
ATOM     14  N   UNL     1      34.203 -14.260 -22.066  0.00  0.00    -0.180 NA
BRANCH  14  17
ATOM     15  N   UNL     1      33.435 -14.843 -24.190  0.00  0.00    -0.370 N 
ATOM     16  N   UNL     1      34.101 -12.681 -23.877  0.00  0.00    -0.370 N 
ATOM     17  C   UNL     1      33.936 -13.921 -23.301  0.00  0.00    +0.196 C 
ATOM     18  H   UNL     1      33.272 -15.769 -23.899  0.00  0.00    +0.159 HD
ATOM     19  H   UNL     1      33.239 -14.576 -25.117  0.00  0.00    +0.159 HD
ATOM     20  H   UNL     1      34.453 -11.933 -23.343  0.00  0.00    +0.159 HD
ATOM     21  H   UNL     1      33.866 -12.541 -24.823  0.00  0.00    +0.159 HD
ENDBRANCH  14  17
ENDBRANCH   2  14
TORSDOF 6
ENDMDL
MODEL 7
REMARK VINA RESULT:      -7.1      7.124      9.379
REMARK  Name = 8249
REMARK  6 active torsions:
REMARK  status: ('A' for Active; 'I' for Inactive)
REMARK    1  A    between atoms: N_1  and  C_3
REMARK    2  A    between atoms: N_1  and  C_14
REMARK    3  A    between atoms: C_3  and  N_6
REMARK    4  A    between atoms: N_6  and  C_9
REMARK    5  A    between atoms: C_14  and  C_15
REMARK    6  A    between atoms: C_15  and  C_16
REMARK                            x       y       z     vdW  Elec       q    Type
REMARK                         _______ _______ _______ _____ _____    ______ ____
ROOT
ATOM      1  N   UNL     1      29.649 -23.060 -16.777  0.00  0.00    -0.368 N 
ATOM      2  C   UNL     1      30.753 -23.420 -16.035  0.00  0.00    +0.220 C 
ATOM      3  H   UNL     1      29.754 -22.796 -17.719  0.00  0.00    +0.159 HD
ATOM      4  H   UNL     1      28.755 -23.065 -16.363  0.00  0.00    +0.159 HD
ENDROOT
BRANCH   2   5
ATOM      5  N   UNL     1      31.987 -23.442 -16.428  0.00  0.00    -0.238 NA
BRANCH   5   6
ATOM      6  C   UNL     1      32.354 -22.561 -17.529  0.00  0.00    +0.133 C 
BRANCH   6   7
ATOM      7  C   UNL     1      33.745 -22.923 -18.044  0.00  0.00    +0.053 C 
BRANCH   7   8
ATOM      8  C   UNL     1      34.304 -21.898 -19.000  0.00  0.00    -0.020 C 
ATOM      9  C   UNL     1      35.678 -21.768 -19.130  0.00  0.00    -0.004 C 
ATOM     10  C   UNL     1      33.435 -21.104 -19.731  0.00  0.00    -0.004 C 
ATOM     11  C   UNL     1      36.196 -20.821 -20.014  0.00  0.00    -0.000 C 
ATOM     12  C   UNL     1      33.952 -20.157 -20.615  0.00  0.00    -0.000 C 
ATOM     13  C   UNL     1      35.332 -20.015 -20.757  0.00  0.00    -0.000 C 
ENDBRANCH   7   8
ENDBRANCH   6   7
ENDBRANCH   5   6
ENDBRANCH   2   5
BRANCH   2  14
ATOM     14  N   UNL     1      30.566 -23.782 -14.716  0.00  0.00    -0.180 NA
BRANCH  14  17
ATOM     15  N   UNL     1      32.278 -22.946 -13.370  0.00  0.00    -0.370 N 
ATOM     16  N   UNL     1      32.239 -25.201 -13.730  0.00  0.00    -0.370 N 
ATOM     17  C   UNL     1      31.631 -23.992 -13.985  0.00  0.00    +0.196 C 
ATOM     18  H   UNL     1      31.941 -22.027 -13.477  0.00  0.00    +0.159 HD
ATOM     19  H   UNL     1      33.080 -23.115 -12.825  0.00  0.00    +0.159 HD
ATOM     20  H   UNL     1      31.870 -26.029 -14.114  0.00  0.00    +0.159 HD
ATOM     21  H   UNL     1      33.043 -25.238 -13.163  0.00  0.00    +0.159 HD
ENDBRANCH  14  17
ENDBRANCH   2  14
TORSDOF 6
ENDMDL
MODEL 8
REMARK VINA RESULT:      -7.1      3.924      6.457
REMARK  Name = 8249
REMARK  6 active torsions:
REMARK  status: ('A' for Active; 'I' for Inactive)
REMARK    1  A    between atoms: N_1  and  C_3
REMARK    2  A    between atoms: N_1  and  C_14
REMARK    3  A    between atoms: C_3  and  N_6
REMARK    4  A    between atoms: N_6  and  C_9
REMARK    5  A    between atoms: C_14  and  C_15
REMARK    6  A    between atoms: C_15  and  C_16
REMARK                            x       y       z     vdW  Elec       q    Type
REMARK                         _______ _______ _______ _____ _____    ______ ____
ROOT
ATOM      1  N   UNL     1      36.580 -20.890 -18.816  0.00  0.00    -0.368 N 
ATOM      2  C   UNL     1      35.550 -21.035 -19.720  0.00  0.00    +0.220 C 
ATOM      3  H   UNL     1      37.224 -20.153 -18.918  0.00  0.00    +0.159 HD
ATOM      4  H   UNL     1      36.671 -21.525 -18.068  0.00  0.00    +0.159 HD
ENDROOT
BRANCH   2   5
ATOM      5  N   UNL     1      35.312 -20.301 -20.760  0.00  0.00    -0.238 NA
BRANCH   5   6
ATOM      6  C   UNL     1      36.142 -19.118 -20.947  0.00  0.00    +0.133 C 
BRANCH   6   7
ATOM      7  C   UNL     1      35.829 -18.469 -22.293  0.00  0.00    +0.053 C 
BRANCH   7   8
ATOM      8  C   UNL     1      35.246 -17.084 -22.157  0.00  0.00    -0.020 C 
ATOM      9  C   UNL     1      35.071 -16.306 -23.292  0.00  0.00    -0.004 C 
ATOM     10  C   UNL     1      34.896 -16.613 -20.902  0.00  0.00    -0.004 C 
ATOM     11  C   UNL     1      34.532 -15.025 -23.167  0.00  0.00    -0.000 C 
ATOM     12  C   UNL     1      34.357 -15.332 -20.777  0.00  0.00    -0.000 C 
ATOM     13  C   UNL     1      34.175 -14.538 -21.909  0.00  0.00    -0.000 C 
ENDBRANCH   7   8
ENDBRANCH   6   7
ENDBRANCH   5   6
ENDBRANCH   2   5
BRANCH   2  14
ATOM     14  N   UNL     1      34.667 -22.082 -19.545  0.00  0.00    -0.180 NA
BRANCH  14  17
ATOM     15  N   UNL     1      32.777 -22.555 -18.262  0.00  0.00    -0.370 N 
ATOM     16  N   UNL     1      32.667 -20.752 -19.659  0.00  0.00    -0.370 N 
ATOM     17  C   UNL     1      33.441 -21.791 -19.192  0.00  0.00    +0.196 C 
ATOM     18  H   UNL     1      33.225 -23.331 -17.853  0.00  0.00    +0.159 HD
ATOM     19  H   UNL     1      31.855 -22.328 -18.005  0.00  0.00    +0.159 HD
ATOM     20  H   UNL     1      33.029 -20.130 -20.330  0.00  0.00    +0.159 HD
ATOM     21  H   UNL     1      31.750 -20.630 -19.320  0.00  0.00    +0.159 HD
ENDBRANCH  14  17
ENDBRANCH   2  14
TORSDOF 6
ENDMDL
MODEL 9
REMARK VINA RESULT:      -7.1      7.275      9.474
REMARK  Name = 8249
REMARK  6 active torsions:
REMARK  status: ('A' for Active; 'I' for Inactive)
REMARK    1  A    between atoms: N_1  and  C_3
REMARK    2  A    between atoms: N_1  and  C_14
REMARK    3  A    between atoms: C_3  and  N_6
REMARK    4  A    between atoms: N_6  and  C_9
REMARK    5  A    between atoms: C_14  and  C_15
REMARK    6  A    between atoms: C_15  and  C_16
REMARK                            x       y       z     vdW  Elec       q    Type
REMARK                         _______ _______ _______ _____ _____    ______ ____
ROOT
ATOM      1  N   UNL     1      32.423 -22.508 -14.179  0.00  0.00    -0.368 N 
ATOM      2  C   UNL     1      31.558 -23.133 -15.051  0.00  0.00    +0.220 C 
ATOM      3  H   UNL     1      33.379 -22.431 -14.405  0.00  0.00    +0.159 HD
ATOM      4  H   UNL     1      32.087 -22.140 -13.330  0.00  0.00    +0.159 HD
ENDROOT
BRANCH   2   5
ATOM      5  N   UNL     1      31.851 -23.682 -16.186  0.00  0.00    -0.238 NA
BRANCH   5   6
ATOM      6  C   UNL     1      32.172 -22.793 -17.295  0.00  0.00    +0.133 C 
BRANCH   6   7
ATOM      7  C   UNL     1      33.581 -23.086 -17.805  0.00  0.00    +0.053 C 
BRANCH   7   8
ATOM      8  C   UNL     1      34.074 -22.061 -18.797  0.00  0.00    -0.020 C 
ATOM      9  C   UNL     1      35.437 -21.915 -19.003  0.00  0.00    -0.004 C 
ATOM     10  C   UNL     1      33.156 -21.282 -19.484  0.00  0.00    -0.004 C 
ATOM     11  C   UNL     1      35.893 -20.967 -19.920  0.00  0.00    -0.000 C 
ATOM     12  C   UNL     1      33.612 -20.335 -20.400  0.00  0.00    -0.000 C 
ATOM     13  C   UNL     1      34.980 -20.177 -20.618  0.00  0.00    -0.000 C 
ENDBRANCH   7   8
ENDBRANCH   6   7
ENDBRANCH   5   6
ENDBRANCH   2   5
BRANCH   2  14
ATOM     14  N   UNL     1      30.226 -23.223 -14.698  0.00  0.00    -0.180 NA
BRANCH  14  17
ATOM     15  N   UNL     1      29.684 -25.480 -14.464  0.00  0.00    -0.370 N 
ATOM     16  N   UNL     1      28.685 -24.337 -16.171  0.00  0.00    -0.370 N 
ATOM     17  C   UNL     1      29.558 -24.271 -15.108  0.00  0.00    +0.196 C 
ATOM     18  H   UNL     1      30.281 -25.563 -13.686  0.00  0.00    +0.159 HD
ATOM     19  H   UNL     1      29.177 -26.262 -14.782  0.00  0.00    +0.159 HD
ATOM     20  H   UNL     1      28.508 -23.535 -16.714  0.00  0.00    +0.159 HD
ATOM     21  H   UNL     1      28.237 -25.186 -16.389  0.00  0.00    +0.159 HD
ENDBRANCH  14  17
ENDBRANCH   2  14
TORSDOF 6
ENDMDL
