MODEL 1
REMARK VINA RESULT:      -8.4      0.000      0.000
REMARK  Name = 14584
REMARK  3 active torsions:
REMARK  status: ('A' for Active; 'I' for Inactive)
REMARK    1  A    between atoms: C_3  and  C_8
REMARK    2  A    between atoms: C_4  and  N_14
REMARK    3  A    between atoms: N_14  and  C_17
REMARK                            x       y       z     vdW  Elec       q    Type
REMARK                         _______ _______ _______ _____ _____    ______ ____
ROOT
ATOM      1  C   UNL     1      33.418 -15.756 -20.718  0.00  0.00    +0.002 C 
ATOM      2  C   UNL     1      34.492 -14.642 -22.326  0.00  0.00    -0.019 C 
ATOM      3  C   UNL     1      33.686 -16.869 -21.777  0.00  0.00    +0.003 C 
ATOM      4  C   UNL     1      34.542 -16.105 -22.831  0.00  0.00    -0.058 C 
ATOM      5  C   UNL     1      34.658 -14.860 -20.821  0.00  0.00    -0.002 C 
ATOM      6  C   UNL     1      32.332 -14.815 -21.277  0.00  0.00    +0.000 C 
ATOM      7  C   UNL     1      33.070 -14.055 -22.387  0.00  0.00    -0.002 C 
ENDROOT
BRANCH   3   8
ATOM      8  C   UNL     1      34.373 -18.136 -21.299  0.00  0.00    -0.024 C 
ATOM      9  C   UNL     1      33.610 -19.229 -20.893  0.00  0.00    -0.004 C 
ATOM     10  C   UNL     1      35.764 -18.202 -21.267  0.00  0.00    -0.004 C 
ATOM     11  C   UNL     1      34.241 -20.393 -20.454  0.00  0.00    -0.000 C 
ATOM     12  C   UNL     1      36.395 -19.366 -20.829  0.00  0.00    -0.000 C 
ATOM     13  C   UNL     1      35.634 -20.462 -20.422  0.00  0.00    -0.000 C 
ENDBRANCH   3   8
BRANCH   4  14
ATOM     14  N   UNL     1      34.073 -16.291 -24.197  0.00  0.00    +0.385 N 
ATOM     15  H   UNL     1      34.082 -15.392 -24.678  0.00  0.00    -0.084 HD
ATOM     16  H   UNL     1      33.127 -16.671 -24.168  0.00  0.00    -0.084 HD
BRANCH  14  17
ATOM     17  C   UNL     1      34.928 -17.225 -24.917  0.00  0.00    -0.082 C 
ATOM     18  C   UNL     1      34.328 -18.616 -24.947  0.00  0.00    -0.026 C 
ENDBRANCH  14  17
ENDBRANCH   4  14
TORSDOF 3
ENDMDL
MODEL 2
REMARK VINA RESULT:      -7.7      2.216      5.077
REMARK  Name = 14584
REMARK  3 active torsions:
REMARK  status: ('A' for Active; 'I' for Inactive)
REMARK    1  A    between atoms: C_3  and  C_8
REMARK    2  A    between atoms: C_4  and  N_14
REMARK    3  A    between atoms: N_14  and  C_17
REMARK                            x       y       z     vdW  Elec       q    Type
REMARK                         _______ _______ _______ _____ _____    ______ ____
ROOT
ATOM      1  C   UNL     1      33.666 -14.357 -21.763  0.00  0.00    +0.002 C 
ATOM      2  C   UNL     1      33.735 -16.578 -21.561  0.00  0.00    -0.019 C 
ATOM      3  C   UNL     1      34.437 -14.786 -23.047  0.00  0.00    +0.003 C 
ATOM      4  C   UNL     1      34.369 -16.340 -22.955  0.00  0.00    -0.058 C 
ATOM      5  C   UNL     1      32.658 -15.493 -21.556  0.00  0.00    -0.002 C 
ATOM      6  C   UNL     1      34.597 -14.569 -20.552  0.00  0.00    +0.000 C 
ATOM      7  C   UNL     1      34.649 -16.097 -20.420  0.00  0.00    -0.002 C 
ENDROOT
BRANCH   3   8
ATOM      8  C   UNL     1      33.916 -14.275 -24.379  0.00  0.00    -0.024 C 
ATOM      9  C   UNL     1      33.918 -12.907 -24.646  0.00  0.00    -0.004 C 
ATOM     10  C   UNL     1      33.438 -15.174 -25.330  0.00  0.00    -0.004 C 
ATOM     11  C   UNL     1      33.439 -12.436 -25.869  0.00  0.00    -0.000 C 
ATOM     12  C   UNL     1      32.960 -14.703 -26.553  0.00  0.00    -0.000 C 
ATOM     13  C   UNL     1      32.960 -13.335 -26.823  0.00  0.00    -0.000 C 
ENDBRANCH   3   8
BRANCH   4  14
ATOM     14  N   UNL     1      35.659 -16.986 -23.153  0.00  0.00    +0.385 N 
ATOM     15  H   UNL     1      36.228 -16.856 -22.317  0.00  0.00    -0.084 HD
ATOM     16  H   UNL     1      36.112 -16.566 -23.964  0.00  0.00    -0.084 HD
BRANCH  14  17
ATOM     17  C   UNL     1      35.493 -18.412 -23.399  0.00  0.00    -0.082 C 
ATOM     18  C   UNL     1      34.566 -18.668 -24.570  0.00  0.00    -0.026 C 
ENDBRANCH  14  17
ENDBRANCH   4  14
TORSDOF 3
ENDMDL
MODEL 3
REMARK VINA RESULT:      -7.6      7.153      8.964
REMARK  Name = 14584
REMARK  3 active torsions:
REMARK  status: ('A' for Active; 'I' for Inactive)
REMARK    1  A    between atoms: C_3  and  C_8
REMARK    2  A    between atoms: C_4  and  N_14
REMARK    3  A    between atoms: N_14  and  C_17
REMARK                            x       y       z     vdW  Elec       q    Type
REMARK                         _______ _______ _______ _____ _____    ______ ____
ROOT
ATOM      1  C   UNL     1      30.961  -7.486 -23.039  0.00  0.00    +0.002 C 
ATOM      2  C   UNL     1      32.839  -6.283 -22.993  0.00  0.00    -0.019 C 
ATOM      3  C   UNL     1      32.049  -8.572 -22.775  0.00  0.00    +0.003 C 
ATOM      4  C   UNL     1      33.333  -7.704 -22.622  0.00  0.00    -0.058 C 
ATOM      5  C   UNL     1      31.487  -6.263 -22.280  0.00  0.00    -0.002 C 
ATOM      6  C   UNL     1      31.106  -7.009 -24.498  0.00  0.00    +0.000 C 
ATOM      7  C   UNL     1      32.402  -6.188 -24.466  0.00  0.00    -0.002 C 
ENDROOT
BRANCH   3   8
ATOM      8  C   UNL     1      31.842  -9.492 -21.585  0.00  0.00    -0.024 C 
ATOM      9  C   UNL     1      31.307 -10.765 -21.775  0.00  0.00    -0.004 C 
ATOM     10  C   UNL     1      32.188  -9.062 -20.305  0.00  0.00    -0.004 C 
ATOM     11  C   UNL     1      31.117 -11.611 -20.682  0.00  0.00    -0.000 C 
ATOM     12  C   UNL     1      31.998  -9.908 -19.212  0.00  0.00    -0.000 C 
ATOM     13  C   UNL     1      31.463 -11.182 -19.400  0.00  0.00    -0.000 C 
ENDBRANCH   3   8
BRANCH   4  14
ATOM     14  N   UNL     1      34.451  -8.185 -23.421  0.00  0.00    +0.385 N 
ATOM     15  H   UNL     1      35.285  -8.229 -22.835  0.00  0.00    -0.084 HD
ATOM     16  H   UNL     1      34.595  -7.542 -24.200  0.00  0.00    -0.084 HD
BRANCH  14  17
ATOM     17  C   UNL     1      34.175  -9.511 -23.957  0.00  0.00    -0.082 C 
ATOM     18  C   UNL     1      35.224  -9.931 -24.966  0.00  0.00    -0.026 C 
ENDBRANCH  14  17
ENDBRANCH   4  14
TORSDOF 3
ENDMDL
MODEL 4
REMARK VINA RESULT:      -7.3      5.985      8.365
REMARK  Name = 14584
REMARK  3 active torsions:
REMARK  status: ('A' for Active; 'I' for Inactive)
REMARK    1  A    between atoms: C_3  and  C_8
REMARK    2  A    between atoms: C_4  and  N_14
REMARK    3  A    between atoms: N_14  and  C_17
REMARK                            x       y       z     vdW  Elec       q    Type
REMARK                         _______ _______ _______ _____ _____    ______ ____
ROOT
ATOM      1  C   UNL     1      33.031  -7.267 -22.742  0.00  0.00    +0.002 C 
ATOM      2  C   UNL     1      34.723  -8.238 -23.824  0.00  0.00    -0.019 C 
ATOM      3  C   UNL     1      32.501  -8.717 -22.960  0.00  0.00    +0.003 C 
ATOM      4  C   UNL     1      33.737  -9.413 -23.602  0.00  0.00    -0.058 C 
ATOM      5  C   UNL     1      34.534  -7.466 -22.517  0.00  0.00    -0.002 C 
ATOM      6  C   UNL     1      33.032  -6.548 -24.106  0.00  0.00    +0.000 C 
ATOM      7  C   UNL     1      34.192  -7.223 -24.851  0.00  0.00    -0.002 C 
ENDROOT
BRANCH   3   8
ATOM      8  C   UNL     1      31.999  -9.468 -21.739  0.00  0.00    -0.024 C 
ATOM      9  C   UNL     1      31.334 -10.683 -21.895  0.00  0.00    -0.004 C 
ATOM     10  C   UNL     1      32.203  -8.939 -20.466  0.00  0.00    -0.004 C 
ATOM     11  C   UNL     1      30.872 -11.373 -20.774  0.00  0.00    -0.000 C 
ATOM     12  C   UNL     1      31.742  -9.629 -19.345  0.00  0.00    -0.000 C 
ATOM     13  C   UNL     1      31.076 -10.846 -19.498  0.00  0.00    -0.000 C 
ENDBRANCH   3   8
BRANCH   4  14
ATOM     14  N   UNL     1      33.413 -10.168 -24.805  0.00  0.00    +0.385 N 
ATOM     15  H   UNL     1      33.538  -9.566 -25.619  0.00  0.00    -0.084 HD
ATOM     16  H   UNL     1      32.446 -10.485 -24.739  0.00  0.00    -0.084 HD
BRANCH  14  17
ATOM     17  C   UNL     1      34.279 -11.332 -24.937  0.00  0.00    -0.082 C 
ATOM     18  C   UNL     1      33.711 -12.530 -24.203  0.00  0.00    -0.026 C 
ENDBRANCH  14  17
ENDBRANCH   4  14
TORSDOF 3
ENDMDL
MODEL 5
REMARK VINA RESULT:      -7.2      1.202      4.543
REMARK  Name = 14584
REMARK  3 active torsions:
REMARK  status: ('A' for Active; 'I' for Inactive)
REMARK    1  A    between atoms: C_3  and  C_8
REMARK    2  A    between atoms: C_4  and  N_14
REMARK    3  A    between atoms: N_14  and  C_17
REMARK                            x       y       z     vdW  Elec       q    Type
REMARK                         _______ _______ _______ _____ _____    ______ ____
ROOT
ATOM      1  C   UNL     1      35.014 -17.770 -20.894  0.00  0.00    +0.002 C 
ATOM      2  C   UNL     1      34.539 -18.951 -22.727  0.00  0.00    -0.019 C 
ATOM      3  C   UNL     1      34.956 -16.669 -21.996  0.00  0.00    +0.003 C 
ATOM      4  C   UNL     1      34.503 -17.490 -23.240  0.00  0.00    -0.058 C 
ATOM      5  C   UNL     1      33.938 -18.771 -21.332  0.00  0.00    -0.002 C 
ATOM      6  C   UNL     1      36.293 -18.602 -21.114  0.00  0.00    +0.000 C 
ATOM      7  C   UNL     1      35.968 -19.408 -22.380  0.00  0.00    -0.002 C 
ENDROOT
BRANCH   3   8
ATOM      8  C   UNL     1      34.052 -15.476 -21.745  0.00  0.00    -0.024 C 
ATOM      9  C   UNL     1      33.954 -14.465 -22.699  0.00  0.00    -0.004 C 
ATOM     10  C   UNL     1      33.323 -15.394 -20.560  0.00  0.00    -0.004 C 
ATOM     11  C   UNL     1      33.123 -13.368 -22.469  0.00  0.00    -0.000 C 
ATOM     12  C   UNL     1      32.492 -14.297 -20.329  0.00  0.00    -0.000 C 
ATOM     13  C   UNL     1      32.392 -13.284 -21.283  0.00  0.00    -0.000 C 
ENDBRANCH   3   8
BRANCH   4  14
ATOM     14  N   UNL     1      35.319 -17.242 -24.421  0.00  0.00    +0.385 N 
ATOM     15  H   UNL     1      36.002 -17.993 -24.518  0.00  0.00    -0.084 HD
ATOM     16  H   UNL     1      35.788 -16.343 -24.311  0.00  0.00    -0.084 HD
BRANCH  14  17
ATOM     17  C   UNL     1      34.494 -17.193 -25.621  0.00  0.00    -0.082 C 
ATOM     18  C   UNL     1      33.675 -15.920 -25.679  0.00  0.00    -0.026 C 
ENDBRANCH  14  17
ENDBRANCH   4  14
TORSDOF 3
ENDMDL
MODEL 6
REMARK VINA RESULT:      -7.2      7.724     11.066
REMARK  Name = 14584
REMARK  3 active torsions:
REMARK  status: ('A' for Active; 'I' for Inactive)
REMARK    1  A    between atoms: C_3  and  C_8
REMARK    2  A    between atoms: C_4  and  N_14
REMARK    3  A    between atoms: N_14  and  C_17
REMARK                            x       y       z     vdW  Elec       q    Type
REMARK                         _______ _______ _______ _____ _____    ______ ____
ROOT
ATOM      1  C   UNL     1      31.899  -6.785 -22.652  0.00  0.00    +0.002 C 
ATOM      2  C   UNL     1      31.835  -8.982 -23.034  0.00  0.00    -0.019 C 
ATOM      3  C   UNL     1      33.189  -7.016 -23.495  0.00  0.00    +0.003 C 
ATOM      4  C   UNL     1      33.066  -8.525 -23.857  0.00  0.00    -0.058 C 
ATOM      5  C   UNL     1      30.902  -7.788 -23.242  0.00  0.00    -0.002 C 
ATOM      6  C   UNL     1      32.127  -7.389 -21.252  0.00  0.00    +0.000 C 
ATOM      7  C   UNL     1      32.090  -8.901 -21.518  0.00  0.00    -0.002 C 
ENDROOT
BRANCH   3   8
ATOM      8  C   UNL     1      33.382  -6.151 -24.728  0.00  0.00    -0.024 C 
ATOM      9  C   UNL     1      32.385  -5.257 -25.113  0.00  0.00    -0.004 C 
ATOM     10  C   UNL     1      34.556  -6.254 -25.472  0.00  0.00    -0.004 C 
ATOM     11  C   UNL     1      32.561  -4.462 -26.245  0.00  0.00    -0.000 C 
ATOM     12  C   UNL     1      34.733  -5.459 -26.605  0.00  0.00    -0.000 C 
ATOM     13  C   UNL     1      33.736  -4.563 -26.992  0.00  0.00    -0.000 C 
ENDBRANCH   3   8
BRANCH   4  14
ATOM     14  N   UNL     1      34.283  -9.282 -23.598  0.00  0.00    +0.385 N 
ATOM     15  H   UNL     1      34.292  -9.573 -22.621  0.00  0.00    -0.084 HD
ATOM     16  H   UNL     1      35.086  -8.686 -23.801  0.00  0.00    -0.084 HD
BRANCH  14  17
ATOM     17  C   UNL     1      34.352 -10.463 -24.448  0.00  0.00    -0.082 C 
ATOM     18  C   UNL     1      35.361 -10.284 -25.563  0.00  0.00    -0.026 C 
ENDBRANCH  14  17
ENDBRANCH   4  14
TORSDOF 3
ENDMDL
MODEL 7
REMARK VINA RESULT:      -7.1      8.576     11.360
REMARK  Name = 14584
REMARK  3 active torsions:
REMARK  status: ('A' for Active; 'I' for Inactive)
REMARK    1  A    between atoms: C_3  and  C_8
REMARK    2  A    between atoms: C_4  and  N_14
REMARK    3  A    between atoms: N_14  and  C_17
REMARK                            x       y       z     vdW  Elec       q    Type
REMARK                         _______ _______ _______ _____ _____    ______ ____
ROOT
ATOM      1  C   UNL     1      35.860 -23.405 -12.388  0.00  0.00    +0.002 C 
ATOM      2  C   UNL     1      37.137 -25.216 -12.648  0.00  0.00    -0.019 C 
ATOM      3  C   UNL     1      36.033 -23.474 -13.936  0.00  0.00    +0.003 C 
ATOM      4  C   UNL     1      36.819 -24.808 -14.108  0.00  0.00    -0.058 C 
ATOM      5  C   UNL     1      35.809 -24.879 -11.969  0.00  0.00    -0.002 C 
ATOM      6  C   UNL     1      37.207 -22.974 -11.775  0.00  0.00    +0.000 C 
ATOM      7  C   UNL     1      38.086 -24.218 -11.961  0.00  0.00    -0.002 C 
ENDROOT
BRANCH   3   8
ATOM      8  C   UNL     1      34.772 -23.446 -14.781  0.00  0.00    -0.024 C 
ATOM      9  C   UNL     1      33.529 -23.637 -14.181  0.00  0.00    -0.004 C 
ATOM     10  C   UNL     1      34.862 -23.230 -16.155  0.00  0.00    -0.004 C 
ATOM     11  C   UNL     1      32.370 -23.611 -14.958  0.00  0.00    -0.000 C 
ATOM     12  C   UNL     1      33.703 -23.204 -16.932  0.00  0.00    -0.000 C 
ATOM     13  C   UNL     1      32.457 -23.395 -16.333  0.00  0.00    -0.000 C 
ENDBRANCH   3   8
BRANCH   4  14
ATOM     14  N   UNL     1      37.986 -24.681 -14.970  0.00  0.00    +0.385 N 
ATOM     15  H   UNL     1      38.523 -23.862 -14.687  0.00  0.00    -0.084 HD
ATOM     16  H   UNL     1      37.670 -24.585 -15.935  0.00  0.00    -0.084 HD
BRANCH  14  17
ATOM     17  C   UNL     1      38.834 -25.862 -14.874  0.00  0.00    -0.082 C 
ATOM     18  C   UNL     1      40.293 -25.485 -14.721  0.00  0.00    -0.026 C 
ENDBRANCH  14  17
ENDBRANCH   4  14
TORSDOF 3
ENDMDL
MODEL 8
REMARK VINA RESULT:      -7.0      6.720      9.497
REMARK  Name = 14584
REMARK  3 active torsions:
REMARK  status: ('A' for Active; 'I' for Inactive)
REMARK    1  A    between atoms: C_3  and  C_8
REMARK    2  A    between atoms: C_4  and  N_14
REMARK    3  A    between atoms: N_14  and  C_17
REMARK                            x       y       z     vdW  Elec       q    Type
REMARK                         _______ _______ _______ _____ _____    ______ ____
ROOT
ATOM      1  C   UNL     1      32.710 -24.107 -14.490  0.00  0.00    +0.002 C 
ATOM      2  C   UNL     1      30.828 -22.914 -14.380  0.00  0.00    -0.019 C 
ATOM      3  C   UNL     1      32.417 -23.804 -15.991  0.00  0.00    +0.003 C 
ATOM      4  C   UNL     1      31.175 -22.869 -15.889  0.00  0.00    -0.058 C 
ATOM      5  C   UNL     1      32.229 -22.842 -13.770  0.00  0.00    -0.002 C 
ATOM      6  C   UNL     1      31.673 -25.136 -13.998  0.00  0.00    +0.000 C 
ATOM      7  C   UNL     1      30.378 -24.315 -13.930  0.00  0.00    -0.002 C 
ENDROOT
BRANCH   3   8
ATOM      8  C   UNL     1      33.533 -23.176 -16.808  0.00  0.00    -0.024 C 
ATOM      9  C   UNL     1      34.799 -23.018 -16.248  0.00  0.00    -0.004 C 
ATOM     10  C   UNL     1      33.287 -22.760 -18.115  0.00  0.00    -0.004 C 
ATOM     11  C   UNL     1      35.825 -22.442 -16.998  0.00  0.00    -0.000 C 
ATOM     12  C   UNL     1      34.313 -22.184 -18.865  0.00  0.00    -0.000 C 
ATOM     13  C   UNL     1      35.582 -22.024 -18.307  0.00  0.00    -0.000 C 
ENDBRANCH   3   8
BRANCH   4  14
ATOM     14  N   UNL     1      30.086 -23.261 -16.773  0.00  0.00    +0.385 N 
ATOM     15  H   UNL     1      29.868 -24.245 -16.619  0.00  0.00    -0.084 HD
ATOM     16  H   UNL     1      30.378 -23.106 -17.738  0.00  0.00    -0.084 HD
BRANCH  14  17
ATOM     17  C   UNL     1      28.894 -22.464 -16.514  0.00  0.00    -0.082 C 
ATOM     18  C   UNL     1      27.706 -22.970 -17.305  0.00  0.00    -0.026 C 
ENDBRANCH  14  17
ENDBRANCH   4  14
TORSDOF 3
ENDMDL
MODEL 9
REMARK VINA RESULT:      -7.0      3.268      6.239
REMARK  Name = 14584
REMARK  3 active torsions:
REMARK  status: ('A' for Active; 'I' for Inactive)
REMARK    1  A    between atoms: C_3  and  C_8
REMARK    2  A    between atoms: C_4  and  N_14
REMARK    3  A    between atoms: N_14  and  C_17
REMARK                            x       y       z     vdW  Elec       q    Type
REMARK                         _______ _______ _______ _____ _____    ______ ____
ROOT
ATOM      1  C   UNL     1      33.528 -15.360 -22.505  0.00  0.00    +0.002 C 
ATOM      2  C   UNL     1      33.485 -13.838 -20.874  0.00  0.00    -0.019 C 
ATOM      3  C   UNL     1      32.637 -14.237 -23.118  0.00  0.00    +0.003 C 
ATOM      4  C   UNL     1      32.720 -13.133 -22.022  0.00  0.00    -0.058 C 
ATOM      5  C   UNL     1      34.555 -14.586 -21.671  0.00  0.00    -0.002 C 
ATOM      6  C   UNL     1      32.719 -16.060 -21.394  0.00  0.00    +0.000 C 
ATOM      7  C   UNL     1      32.684 -15.008 -20.277  0.00  0.00    -0.002 C 
ENDROOT
BRANCH   3   8
ATOM      8  C   UNL     1      33.025 -13.706 -24.487  0.00  0.00    -0.024 C 
ATOM      9  C   UNL     1      32.843 -14.501 -25.617  0.00  0.00    -0.004 C 
ATOM     10  C   UNL     1      33.564 -12.427 -24.609  0.00  0.00    -0.004 C 
ATOM     11  C   UNL     1      33.199 -14.015 -26.875  0.00  0.00    -0.000 C 
ATOM     12  C   UNL     1      33.920 -11.940 -25.867  0.00  0.00    -0.000 C 
ATOM     13  C   UNL     1      33.738 -12.734 -27.000  0.00  0.00    -0.000 C 
ENDBRANCH   3   8
BRANCH   4  14
ATOM     14  N   UNL     1      31.419 -12.598 -21.644  0.00  0.00    +0.385 N 
ATOM     15  H   UNL     1      31.056 -13.131 -20.854  0.00  0.00    -0.084 HD
ATOM     16  H   UNL     1      30.791 -12.672 -22.444  0.00  0.00    -0.084 HD
BRANCH  14  17
ATOM     17  C   UNL     1      31.524 -11.196 -21.263  0.00  0.00    -0.082 C 
ATOM     18  C   UNL     1      31.257 -11.002 -19.785  0.00  0.00    -0.026 C 
ENDBRANCH  14  17
ENDBRANCH   4  14
TORSDOF 3
ENDMDL
