MODEL 1
REMARK VINA RESULT:      -9.6      0.000      0.000
REMARK  Name = 3715
REMARK  5 active torsions:
REMARK  status: ('A' for Active; 'I' for Inactive)
REMARK    1  A    between atoms: C_3  and  C_22
REMARK    2  A    between atoms: C_10  and  C_14
REMARK    3  A    between atoms: C_11  and  O_20
REMARK    4  A    between atoms: C_22  and  C_24
REMARK    5  A    between atoms: C_24  and  O_25
REMARK                            x       y       z     vdW  Elec       q    Type
REMARK                         _______ _______ _______ _____ _____    ______ ____
ROOT
ATOM      1  O   UNL     1      33.415 -24.615 -12.773  0.00  0.00    -0.267 OA
ATOM      2  N   UNL     1      32.904 -23.730 -14.793  0.00  0.00    -0.279 N 
ATOM      3  C   UNL     1      30.959 -22.985 -15.642  0.00  0.00    +0.003 A 
ATOM      4  C   UNL     1      31.956 -22.818 -16.632  0.00  0.00    +0.017 A 
ATOM      5  C   UNL     1      33.163 -23.282 -16.092  0.00  0.00    +0.066 A 
ATOM      6  C   UNL     1      31.559 -23.533 -14.536  0.00  0.00    +0.041 A 
ATOM      7  C   UNL     1      31.933 -22.308 -17.947  0.00  0.00    +0.038 C 
ATOM      8  C   UNL     1      34.348 -23.251 -16.853  0.00  0.00    +0.021 C 
ATOM      9  C   UNL     1      30.906 -23.878 -13.251  0.00  0.00    +0.050 C 
ATOM     10  C   UNL     1      33.832 -24.259 -13.871  0.00  0.00    +0.264 C 
ATOM     11  C   UNL     1      33.110 -22.274 -18.696  0.00  0.00    +0.139 C 
ATOM     12  C   UNL     1      34.300 -22.741 -18.155  0.00  0.00    +0.038 C 
ENDROOT
BRANCH  10  14
ATOM     13 CL   UNL     1      39.676 -24.951 -14.940  0.00  0.00    -0.082 Cl
ATOM     14  C   UNL     1      35.274 -24.431 -14.135  0.00  0.00    +0.057 C 
ATOM     15  C   UNL     1      36.171 -23.439 -13.747  0.00  0.00    +0.006 C 
ATOM     16  C   UNL     1      35.731 -25.583 -14.770  0.00  0.00    +0.006 C 
ATOM     17  C   UNL     1      37.535 -23.601 -13.995  0.00  0.00    +0.012 C 
ATOM     18  C   UNL     1      37.094 -25.744 -15.020  0.00  0.00    +0.012 C 
ATOM     19  C   UNL     1      37.996 -24.753 -14.632  0.00  0.00    +0.058 C 
ENDBRANCH  10  14
BRANCH  11  20
ATOM     20  O   UNL     1      33.088 -21.781 -19.966  0.00  0.00    -0.471 OA
ATOM     21  C   UNL     1      33.065 -20.363 -20.111  0.00  0.00    +0.252 C 
ENDBRANCH  11  20
BRANCH   3  22
ATOM     22  C   UNL     1      29.530 -22.629 -15.773  0.00  0.00    +0.137 C 
BRANCH  22  24
ATOM     23  O   UNL     1      28.670 -24.857 -16.163  0.00  0.00    -0.250 OA
ATOM     24  C   UNL     1      28.759 -23.690 -16.526  0.00  0.00    +0.318 C 
BRANCH  24  25
ATOM     25  O   UNL     1      28.207 -23.225 -17.674  0.00  0.00    -0.480 OA
ATOM     26  H   UNL     1      28.551 -22.454 -18.080  0.00  0.00    +0.295 HD
ENDBRANCH  24  25
ENDBRANCH  22  24
ENDBRANCH   3  22
TORSDOF 5
ENDMDL
MODEL 2
REMARK VINA RESULT:      -9.1      3.231      6.114
REMARK  Name = 3715
REMARK  5 active torsions:
REMARK  status: ('A' for Active; 'I' for Inactive)
REMARK    1  A    between atoms: C_3  and  C_22
REMARK    2  A    between atoms: C_10  and  C_14
REMARK    3  A    between atoms: C_11  and  O_20
REMARK    4  A    between atoms: C_22  and  C_24
REMARK    5  A    between atoms: C_24  and  O_25
REMARK                            x       y       z     vdW  Elec       q    Type
REMARK                         _______ _______ _______ _____ _____    ______ ____
ROOT
ATOM      1  O   UNL     1      32.333 -24.397 -13.003  0.00  0.00    -0.267 OA
ATOM      2  N   UNL     1      33.728 -23.669 -14.630  0.00  0.00    -0.279 N 
ATOM      3  C   UNL     1      35.963 -23.425 -14.674  0.00  0.00    +0.003 A 
ATOM      4  C   UNL     1      35.459 -23.025 -15.934  0.00  0.00    +0.017 A 
ATOM      5  C   UNL     1      34.067 -23.184 -15.897  0.00  0.00    +0.066 A 
ATOM      6  C   UNL     1      34.897 -23.816 -13.905  0.00  0.00    +0.041 A 
ATOM      7  C   UNL     1      36.072 -22.541 -17.108  0.00  0.00    +0.038 C 
ATOM      8  C   UNL     1      33.277 -22.856 -17.016  0.00  0.00    +0.021 C 
ATOM      9  C   UNL     1      34.944 -24.320 -12.512  0.00  0.00    +0.050 C 
ATOM     10  C   UNL     1      32.439 -23.995 -14.157  0.00  0.00    +0.264 C 
ATOM     11  C   UNL     1      35.287 -22.222 -18.217  0.00  0.00    +0.139 C 
ATOM     12  C   UNL     1      33.908 -22.377 -18.169  0.00  0.00    +0.038 C 
ENDROOT
BRANCH  10  14
ATOM     13 CL   UNL     1      27.412 -23.499 -17.360  0.00  0.00    -0.082 Cl
ATOM     14  C   UNL     1      31.199 -23.873 -14.947  0.00  0.00    +0.057 C 
ATOM     15  C   UNL     1      30.590 -22.629 -15.094  0.00  0.00    +0.006 C 
ATOM     16  C   UNL     1      30.642 -25.002 -15.544  0.00  0.00    +0.006 C 
ATOM     17  C   UNL     1      29.419 -22.513 -15.842  0.00  0.00    +0.012 C 
ATOM     18  C   UNL     1      29.470 -24.887 -16.291  0.00  0.00    +0.012 C 
ATOM     19  C   UNL     1      28.858 -23.641 -16.440  0.00  0.00    +0.058 C 
ENDBRANCH  10  14
BRANCH  11  20
ATOM     20  O   UNL     1      35.879 -21.753 -19.352  0.00  0.00    -0.471 OA
ATOM     21  C   UNL     1      35.149 -20.794 -20.114  0.00  0.00    +0.252 C 
ENDBRANCH  11  20
BRANCH   3  22
ATOM     22  C   UNL     1      37.383 -23.426 -14.262  0.00  0.00    +0.137 C 
BRANCH  22  24
ATOM     23  O   UNL     1      37.825 -25.767 -14.690  0.00  0.00    -0.250 OA
ATOM     24  C   UNL     1      38.135 -24.594 -14.861  0.00  0.00    +0.318 C 
BRANCH  24  25
ATOM     25  O   UNL     1      39.221 -24.209 -15.577  0.00  0.00    -0.480 OA
ATOM     26  H   UNL     1      39.219 -24.292 -16.511  0.00  0.00    +0.295 HD
ENDBRANCH  24  25
ENDBRANCH  22  24
ENDBRANCH   3  22
TORSDOF 5
ENDMDL
MODEL 3
REMARK VINA RESULT:      -9.0      7.993     11.375
REMARK  Name = 3715
REMARK  5 active torsions:
REMARK  status: ('A' for Active; 'I' for Inactive)
REMARK    1  A    between atoms: C_3  and  C_22
REMARK    2  A    between atoms: C_10  and  C_14
REMARK    3  A    between atoms: C_11  and  O_20
REMARK    4  A    between atoms: C_22  and  C_24
REMARK    5  A    between atoms: C_24  and  O_25
REMARK                            x       y       z     vdW  Elec       q    Type
REMARK                         _______ _______ _______ _____ _____    ______ ____
ROOT
ATOM      1  O   UNL     1      34.924 -17.907 -24.928  0.00  0.00    -0.267 OA
ATOM      2  N   UNL     1      34.039 -16.220 -23.705  0.00  0.00    -0.279 N 
ATOM      3  C   UNL     1      33.122 -14.260 -24.318  0.00  0.00    +0.003 A 
ATOM      4  C   UNL     1      33.079 -14.336 -22.906  0.00  0.00    +0.017 A 
ATOM      5  C   UNL     1      33.649 -15.562 -22.535  0.00  0.00    +0.066 A 
ATOM      6  C   UNL     1      33.702 -15.416 -24.778  0.00  0.00    +0.041 A 
ATOM      7  C   UNL     1      32.599 -13.462 -21.908  0.00  0.00    +0.038 C 
ATOM      8  C   UNL     1      33.755 -15.922 -21.178  0.00  0.00    +0.021 C 
ATOM      9  C   UNL     1      33.951 -15.782 -26.193  0.00  0.00    +0.050 C 
ATOM     10  C   UNL     1      34.638 -17.494 -23.808  0.00  0.00    +0.264 C 
ATOM     11  C   UNL     1      32.701 -13.825 -20.565  0.00  0.00    +0.139 C 
ATOM     12  C   UNL     1      33.272 -15.038 -20.206  0.00  0.00    +0.038 C 
ENDROOT
BRANCH  10  14
ATOM     13 CL   UNL     1      35.944 -21.030 -19.164  0.00  0.00    -0.082 Cl
ATOM     14  C   UNL     1      34.959 -18.367 -22.663  0.00  0.00    +0.057 C 
ATOM     15  C   UNL     1      36.235 -18.335 -22.105  0.00  0.00    +0.006 C 
ATOM     16  C   UNL     1      33.986 -19.218 -22.143  0.00  0.00    +0.006 C 
ATOM     17  C   UNL     1      36.539 -19.158 -21.021  0.00  0.00    +0.012 C 
ATOM     18  C   UNL     1      34.291 -20.042 -21.061  0.00  0.00    +0.012 C 
ATOM     19  C   UNL     1      35.568 -20.012 -20.499  0.00  0.00    +0.058 C 
ENDBRANCH  10  14
BRANCH  11  20
ATOM     20  O   UNL     1      32.238 -12.981 -19.600  0.00  0.00    -0.471 OA
ATOM     21  C   UNL     1      31.643 -11.761 -20.038  0.00  0.00    +0.252 C 
ENDBRANCH  11  20
BRANCH   3  22
ATOM     22  C   UNL     1      32.628 -13.142 -25.148  0.00  0.00    +0.137 C 
BRANCH  22  24
ATOM     23  O   UNL     1      34.111 -11.934 -26.631  0.00  0.00    -0.250 OA
ATOM     24  C   UNL     1      33.736 -12.170 -25.488  0.00  0.00    +0.318 C 
BRANCH  24  25
ATOM     25  O   UNL     1      34.304 -11.613 -24.390  0.00  0.00    -0.480 OA
ATOM     26  H   UNL     1      34.748 -12.155 -23.767  0.00  0.00    +0.295 HD
ENDBRANCH  24  25
ENDBRANCH  22  24
ENDBRANCH   3  22
TORSDOF 5
ENDMDL
MODEL 4
REMARK VINA RESULT:      -8.8     11.263     15.280
REMARK  Name = 3715
REMARK  5 active torsions:
REMARK  status: ('A' for Active; 'I' for Inactive)
REMARK    1  A    between atoms: C_3  and  C_22
REMARK    2  A    between atoms: C_10  and  C_14
REMARK    3  A    between atoms: C_11  and  O_20
REMARK    4  A    between atoms: C_22  and  C_24
REMARK    5  A    between atoms: C_24  and  O_25
REMARK                            x       y       z     vdW  Elec       q    Type
REMARK                         _______ _______ _______ _____ _____    ______ ____
ROOT
ATOM      1  O   UNL     1      31.781  -9.091 -20.535  0.00  0.00    -0.267 OA
ATOM      2  N   UNL     1      32.295 -10.831 -21.889  0.00  0.00    -0.279 N 
ATOM      3  C   UNL     1      32.287 -13.051 -21.528  0.00  0.00    +0.003 A 
ATOM      4  C   UNL     1      32.698 -12.831 -22.863  0.00  0.00    +0.017 A 
ATOM      5  C   UNL     1      32.696 -11.446 -23.079  0.00  0.00    +0.066 A 
ATOM      6  C   UNL     1      32.043 -11.825 -20.961  0.00  0.00    +0.041 A 
ATOM      7  C   UNL     1      33.072 -13.698 -23.912  0.00  0.00    +0.038 C 
ATOM      8  C   UNL     1      33.073 -10.913 -24.327  0.00  0.00    +0.021 C 
ATOM      9  C   UNL     1      31.584 -11.563 -19.576  0.00  0.00    +0.050 C 
ATOM     10  C   UNL     1      32.131  -9.449 -21.655  0.00  0.00    +0.264 C 
ATOM     11  C   UNL     1      33.439 -13.167 -25.149  0.00  0.00    +0.139 C 
ATOM     12  C   UNL     1      33.440 -11.793 -25.352  0.00  0.00    +0.038 C 
ENDROOT
BRANCH  10  14
ATOM     13 CL   UNL     1      33.067  -5.171 -25.730  0.00  0.00    -0.082 Cl
ATOM     14  C   UNL     1      32.363  -8.394 -22.660  0.00  0.00    +0.057 C 
ATOM     15  C   UNL     1      31.289  -7.874 -23.379  0.00  0.00    +0.006 C 
ATOM     16  C   UNL     1      33.653  -7.920 -22.885  0.00  0.00    +0.006 C 
ATOM     17  C   UNL     1      31.507  -6.876 -24.328  0.00  0.00    +0.012 C 
ATOM     18  C   UNL     1      33.872  -6.923 -23.835  0.00  0.00    +0.012 C 
ATOM     19  C   UNL     1      32.798  -6.401 -24.557  0.00  0.00    +0.058 C 
ENDBRANCH  10  14
BRANCH  11  20
ATOM     20  O   UNL     1      33.800 -14.003 -26.163  0.00  0.00    -0.471 OA
ATOM     21  C   UNL     1      33.040 -15.199 -26.317  0.00  0.00    +0.252 C 
ENDBRANCH  11  20
BRANCH   3  22
ATOM     22  C   UNL     1      32.141 -14.363 -20.863  0.00  0.00    +0.137 C 
BRANCH  22  24
ATOM     23  O   UNL     1      34.531 -14.575 -20.547  0.00  0.00    -0.250 OA
ATOM     24  C   UNL     1      33.457 -15.106 -20.804  0.00  0.00    +0.318 C 
BRANCH  24  25
ATOM     25  O   UNL     1      33.334 -16.422 -21.109  0.00  0.00    -0.480 OA
ATOM     26  H   UNL     1      32.968 -17.016 -20.483  0.00  0.00    +0.295 HD
ENDBRANCH  24  25
ENDBRANCH  22  24
ENDBRANCH   3  22
TORSDOF 5
ENDMDL
MODEL 5
REMARK VINA RESULT:      -8.2      3.540      6.347
REMARK  Name = 3715
REMARK  5 active torsions:
REMARK  status: ('A' for Active; 'I' for Inactive)
REMARK    1  A    between atoms: C_3  and  C_22
REMARK    2  A    between atoms: C_10  and  C_14
REMARK    3  A    between atoms: C_11  and  O_20
REMARK    4  A    between atoms: C_22  and  C_24
REMARK    5  A    between atoms: C_24  and  O_25
REMARK                            x       y       z     vdW  Elec       q    Type
REMARK                         _______ _______ _______ _____ _____    ______ ____
ROOT
ATOM      1  O   UNL     1      33.933 -25.046 -12.327  0.00  0.00    -0.267 OA
ATOM      2  N   UNL     1      35.179 -24.144 -13.987  0.00  0.00    -0.279 N 
ATOM      3  C   UNL     1      37.406 -24.009 -14.271  0.00  0.00    +0.003 A 
ATOM      4  C   UNL     1      36.789 -23.393 -15.385  0.00  0.00    +0.017 A 
ATOM      5  C   UNL     1      35.403 -23.485 -15.200  0.00  0.00    +0.066 A 
ATOM      6  C   UNL     1      36.410 -24.461 -13.442  0.00  0.00    +0.041 A 
ATOM      7  C   UNL     1      37.296 -22.763 -16.541  0.00  0.00    +0.038 C 
ATOM      8  C   UNL     1      34.514 -22.947 -16.151  0.00  0.00    +0.021 C 
ATOM      9  C   UNL     1      36.583 -25.177 -12.156  0.00  0.00    +0.050 C 
ATOM     10  C   UNL     1      33.933 -24.474 -13.412  0.00  0.00    +0.264 C 
ATOM     11  C   UNL     1      36.413 -22.236 -17.484  0.00  0.00    +0.139 C 
ATOM     12  C   UNL     1      35.041 -22.327 -17.290  0.00  0.00    +0.038 C 
ENDROOT
BRANCH  10  14
ATOM     13 CL   UNL     1      28.619 -23.233 -15.860  0.00  0.00    -0.082 Cl
ATOM     14  C   UNL     1      32.622 -24.169 -14.016  0.00  0.00    +0.057 C 
ATOM     15  C   UNL     1      32.175 -22.851 -14.070  0.00  0.00    +0.006 C 
ATOM     16  C   UNL     1      31.838 -25.199 -14.531  0.00  0.00    +0.006 C 
ATOM     17  C   UNL     1      30.936 -22.561 -14.642  0.00  0.00    +0.012 C 
ATOM     18  C   UNL     1      30.599 -24.909 -15.102  0.00  0.00    +0.012 C 
ATOM     19  C   UNL     1      30.148 -23.590 -15.157  0.00  0.00    +0.058 C 
ENDBRANCH  10  14
BRANCH  11  20
ATOM     20  O   UNL     1      36.901 -21.627 -18.601  0.00  0.00    -0.471 OA
ATOM     21  C   UNL     1      35.949 -21.181 -19.565  0.00  0.00    +0.252 C 
ENDBRANCH  11  20
BRANCH   3  22
ATOM     22  C   UNL     1      38.860 -24.146 -14.043  0.00  0.00    +0.137 C 
BRANCH  22  24
ATOM     23  O   UNL     1      40.639 -25.401 -15.098  0.00  0.00    -0.250 OA
ATOM     24  C   UNL     1      39.445 -25.284 -14.848  0.00  0.00    +0.318 C 
BRANCH  24  25
ATOM     25  O   UNL     1      38.503 -26.146 -15.305  0.00  0.00    -0.480 OA
ATOM     26  H   UNL     1      38.616 -27.069 -15.187  0.00  0.00    +0.295 HD
ENDBRANCH  24  25
ENDBRANCH  22  24
ENDBRANCH   3  22
TORSDOF 5
ENDMDL
MODEL 6
REMARK VINA RESULT:      -7.7      3.076      6.391
REMARK  Name = 3715
REMARK  5 active torsions:
REMARK  status: ('A' for Active; 'I' for Inactive)
REMARK    1  A    between atoms: C_3  and  C_22
REMARK    2  A    between atoms: C_10  and  C_14
REMARK    3  A    between atoms: C_11  and  O_20
REMARK    4  A    between atoms: C_22  and  C_24
REMARK    5  A    between atoms: C_24  and  O_25
REMARK                            x       y       z     vdW  Elec       q    Type
REMARK                         _______ _______ _______ _____ _____    ______ ____
ROOT
ATOM      1  O   UNL     1      38.005 -22.789 -16.482  0.00  0.00    -0.267 OA
ATOM      2  N   UNL     1      36.122 -23.377 -15.371  0.00  0.00    -0.279 N 
ATOM      3  C   UNL     1      35.821 -24.390 -13.386  0.00  0.00    +0.003 A 
ATOM      4  C   UNL     1      34.545 -24.125 -13.935  0.00  0.00    +0.017 A 
ATOM      5  C   UNL     1      34.743 -23.491 -15.169  0.00  0.00    +0.066 A 
ATOM      6  C   UNL     1      36.759 -23.923 -14.272  0.00  0.00    +0.041 A 
ATOM      7  C   UNL     1      33.231 -24.371 -13.482  0.00  0.00    +0.038 C 
ATOM      8  C   UNL     1      33.646 -23.108 -15.964  0.00  0.00    +0.021 C 
ATOM      9  C   UNL     1      38.232 -23.977 -14.115  0.00  0.00    +0.050 C 
ATOM     10  C   UNL     1      36.778 -22.785 -16.472  0.00  0.00    +0.264 C 
ATOM     11  C   UNL     1      32.146 -23.984 -14.270  0.00  0.00    +0.139 C 
ATOM     12  C   UNL     1      32.352 -23.362 -15.494  0.00  0.00    +0.038 C 
ENDROOT
BRANCH  10  14
ATOM     13 CL   UNL     1      34.008 -20.285 -21.146  0.00  0.00    -0.082 Cl
ATOM     14  C   UNL     1      36.093 -22.168 -17.625  0.00  0.00    +0.057 C 
ATOM     15  C   UNL     1      36.743 -21.190 -18.373  0.00  0.00    +0.006 C 
ATOM     16  C   UNL     1      34.802 -22.569 -17.961  0.00  0.00    +0.006 C 
ATOM     17  C   UNL     1      36.098 -20.607 -19.464  0.00  0.00    +0.012 C 
ATOM     18  C   UNL     1      34.156 -21.985 -19.051  0.00  0.00    +0.012 C 
ATOM     19  C   UNL     1      34.804 -21.005 -19.802  0.00  0.00    +0.058 C 
ENDBRANCH  10  14
BRANCH  11  20
ATOM     20  O   UNL     1      30.877 -24.221 -13.834  0.00  0.00    -0.471 OA
ATOM     21  C   UNL     1      30.142 -25.243 -14.504  0.00  0.00    +0.252 C 
ENDBRANCH  11  20
BRANCH   3  22
ATOM     22  C   UNL     1      36.096 -25.047 -12.091  0.00  0.00    +0.137 C 
BRANCH  22  24
ATOM     23  O   UNL     1      36.968 -23.083 -10.979  0.00  0.00    -0.250 OA
ATOM     24  C   UNL     1      36.203 -24.041 -10.967  0.00  0.00    +0.318 C 
BRANCH  24  25
ATOM     25  O   UNL     1      35.392 -24.331  -9.920  0.00  0.00    -0.480 OA
ATOM     26  H   UNL     1      35.621 -24.046  -9.057  0.00  0.00    +0.295 HD
ENDBRANCH  24  25
ENDBRANCH  22  24
ENDBRANCH   3  22
TORSDOF 5
ENDMDL
MODEL 7
REMARK VINA RESULT:      -7.6      2.677      5.678
REMARK  Name = 3715
REMARK  5 active torsions:
REMARK  status: ('A' for Active; 'I' for Inactive)
REMARK    1  A    between atoms: C_3  and  C_22
REMARK    2  A    between atoms: C_10  and  C_14
REMARK    3  A    between atoms: C_11  and  O_20
REMARK    4  A    between atoms: C_22  and  C_24
REMARK    5  A    between atoms: C_24  and  O_25
REMARK                            x       y       z     vdW  Elec       q    Type
REMARK                         _______ _______ _______ _____ _____    ______ ____
ROOT
ATOM      1  O   UNL     1      32.319 -22.407 -18.748  0.00  0.00    -0.267 OA
ATOM      2  N   UNL     1      33.682 -22.860 -16.999  0.00  0.00    -0.279 N 
ATOM      3  C   UNL     1      33.330 -24.001 -15.094  0.00  0.00    +0.003 A 
ATOM      4  C   UNL     1      34.667 -23.540 -15.081  0.00  0.00    +0.017 A 
ATOM      5  C   UNL     1      34.877 -22.834 -16.274  0.00  0.00    +0.066 A 
ATOM      6  C   UNL     1      32.757 -23.581 -16.268  0.00  0.00    +0.041 A 
ATOM      7  C   UNL     1      35.721 -23.666 -14.152  0.00  0.00    +0.038 C 
ATOM      8  C   UNL     1      36.126 -22.242 -16.547  0.00  0.00    +0.021 C 
ATOM      9  C   UNL     1      31.368 -23.837 -16.719  0.00  0.00    +0.050 C 
ATOM     10  C   UNL     1      33.443 -22.293 -18.270  0.00  0.00    +0.264 C 
ATOM     11  C   UNL     1      36.959 -23.083 -14.429  0.00  0.00    +0.139 C 
ATOM     12  C   UNL     1      37.156 -22.381 -15.610  0.00  0.00    +0.038 C 
ENDROOT
BRANCH  10  14
ATOM     13 CL   UNL     1      37.503 -19.310 -21.492  0.00  0.00    -0.082 Cl
ATOM     14  C   UNL     1      34.445 -21.558 -19.064  0.00  0.00    +0.057 C 
ATOM     15  C   UNL     1      34.042 -20.507 -19.885  0.00  0.00    +0.006 C 
ATOM     16  C   UNL     1      35.789 -21.916 -18.990  0.00  0.00    +0.006 C 
ATOM     17  C   UNL     1      34.989 -19.810 -20.636  0.00  0.00    +0.012 C 
ATOM     18  C   UNL     1      36.736 -21.220 -19.741  0.00  0.00    +0.012 C 
ATOM     19  C   UNL     1      36.335 -20.167 -20.564  0.00  0.00    +0.058 C 
ENDBRANCH  10  14
BRANCH  11  20
ATOM     20  O   UNL     1      37.978 -23.204 -13.532  0.00  0.00    -0.471 OA
ATOM     21  C   UNL     1      37.638 -23.116 -12.150  0.00  0.00    +0.252 C 
ENDBRANCH  11  20
BRANCH   3  22
ATOM     22  C   UNL     1      32.669 -24.795 -14.036  0.00  0.00    +0.137 C 
BRANCH  22  24
ATOM     23  O   UNL     1      30.585 -24.225 -12.946  0.00  0.00    -0.250 OA
ATOM     24  C   UNL     1      31.752 -23.941 -13.190  0.00  0.00    +0.318 C 
BRANCH  24  25
ATOM     25  O   UNL     1      32.343 -22.798 -12.761  0.00  0.00    -0.480 OA
ATOM     26  H   UNL     1      33.275 -22.758 -12.669  0.00  0.00    +0.295 HD
ENDBRANCH  24  25
ENDBRANCH  22  24
ENDBRANCH   3  22
TORSDOF 5
ENDMDL
MODEL 8
REMARK VINA RESULT:      -7.6      2.868      6.111
REMARK  Name = 3715
REMARK  5 active torsions:
REMARK  status: ('A' for Active; 'I' for Inactive)
REMARK    1  A    between atoms: C_3  and  C_22
REMARK    2  A    between atoms: C_10  and  C_14
REMARK    3  A    between atoms: C_11  and  O_20
REMARK    4  A    between atoms: C_22  and  C_24
REMARK    5  A    between atoms: C_24  and  O_25
REMARK                            x       y       z     vdW  Elec       q    Type
REMARK                         _______ _______ _______ _____ _____    ______ ____
ROOT
ATOM      1  O   UNL     1      31.802 -22.052 -18.516  0.00  0.00    -0.267 OA
ATOM      2  N   UNL     1      33.582 -22.670 -17.262  0.00  0.00    -0.279 N 
ATOM      3  C   UNL     1      33.730 -23.937 -15.409  0.00  0.00    +0.003 A 
ATOM      4  C   UNL     1      35.036 -23.516 -15.751  0.00  0.00    +0.017 A 
ATOM      5  C   UNL     1      34.934 -22.731 -16.908  0.00  0.00    +0.066 A 
ATOM      6  C   UNL     1      32.868 -23.417 -16.342  0.00  0.00    +0.041 A 
ATOM      7  C   UNL     1      36.303 -23.739 -15.173  0.00  0.00    +0.038 C 
ATOM      8  C   UNL     1      36.080 -22.157 -17.490  0.00  0.00    +0.021 C 
ATOM      9  C   UNL     1      31.398 -23.599 -16.391  0.00  0.00    +0.050 C 
ATOM     10  C   UNL     1      33.019 -22.006 -18.373  0.00  0.00    +0.264 C 
ATOM     11  C   UNL     1      37.438 -23.174 -15.755  0.00  0.00    +0.139 C 
ATOM     12  C   UNL     1      37.326 -22.393 -16.898  0.00  0.00    +0.038 C 
ENDROOT
BRANCH  10  14
ATOM     13 CL   UNL     1      36.137 -18.912 -22.432  0.00  0.00    -0.082 Cl
ATOM     14  C   UNL     1      33.790 -21.243 -19.374  0.00  0.00    +0.057 C 
ATOM     15  C   UNL     1      33.192 -20.176 -20.040  0.00  0.00    +0.006 C 
ATOM     16  C   UNL     1      35.110 -21.593 -19.648  0.00  0.00    +0.006 C 
ATOM     17  C   UNL     1      33.920 -19.454 -20.986  0.00  0.00    +0.012 C 
ATOM     18  C   UNL     1      35.837 -20.871 -20.594  0.00  0.00    +0.012 C 
ATOM     19  C   UNL     1      35.241 -19.802 -21.264  0.00  0.00    +0.058 C 
ENDBRANCH  10  14
BRANCH  11  20
ATOM     20  O   UNL     1      38.663 -23.389 -15.197  0.00  0.00    -0.471 OA
ATOM     21  C   UNL     1      39.034 -24.744 -14.952  0.00  0.00    +0.252 C 
ENDBRANCH  11  20
BRANCH   3  22
ATOM     22  C   UNL     1      33.359 -24.786 -14.258  0.00  0.00    +0.137 C 
BRANCH  22  24
ATOM     23  O   UNL     1      34.479 -24.393 -12.149  0.00  0.00    -0.250 OA
ATOM     24  C   UNL     1      33.600 -24.079 -12.943  0.00  0.00    +0.318 C 
BRANCH  24  25
ATOM     25  O   UNL     1      32.712 -23.080 -12.711  0.00  0.00    -0.480 OA
ATOM     26  H   UNL     1      31.872 -23.095 -13.127  0.00  0.00    +0.295 HD
ENDBRANCH  24  25
ENDBRANCH  22  24
ENDBRANCH   3  22
TORSDOF 5
ENDMDL
MODEL 9
REMARK VINA RESULT:      -7.5      8.076     11.677
REMARK  Name = 3715
REMARK  5 active torsions:
REMARK  status: ('A' for Active; 'I' for Inactive)
REMARK    1  A    between atoms: C_3  and  C_22
REMARK    2  A    between atoms: C_10  and  C_14
REMARK    3  A    between atoms: C_11  and  O_20
REMARK    4  A    between atoms: C_22  and  C_24
REMARK    5  A    between atoms: C_24  and  O_25
REMARK                            x       y       z     vdW  Elec       q    Type
REMARK                         _______ _______ _______ _____ _____    ______ ____
ROOT
ATOM      1  O   UNL     1      32.717 -15.047 -19.523  0.00  0.00    -0.267 OA
ATOM      2  N   UNL     1      32.840 -14.511 -21.719  0.00  0.00    -0.279 N 
ATOM      3  C   UNL     1      32.257 -12.645 -22.830  0.00  0.00    +0.003 A 
ATOM      4  C   UNL     1      32.777 -13.564 -23.771  0.00  0.00    +0.017 A 
ATOM      5  C   UNL     1      33.140 -14.721 -23.068  0.00  0.00    +0.066 A 
ATOM      6  C   UNL     1      32.311 -13.239 -21.594  0.00  0.00    +0.041 A 
ATOM      7  C   UNL     1      32.972 -13.508 -25.167  0.00  0.00    +0.038 C 
ATOM      8  C   UNL     1      33.688 -15.829 -23.744  0.00  0.00    +0.021 C 
ATOM      9  C   UNL     1      31.879 -12.648 -20.305  0.00  0.00    +0.050 C 
ATOM     10  C   UNL     1      33.059 -15.402 -20.646  0.00  0.00    +0.264 C 
ATOM     11  C   UNL     1      33.520 -14.606 -25.832  0.00  0.00    +0.139 C 
ATOM     12  C   UNL     1      33.871 -15.750 -25.129  0.00  0.00    +0.038 C 
ENDROOT
BRANCH  10  14
ATOM     13 CL   UNL     1      35.492 -20.840 -21.179  0.00  0.00    -0.082 Cl
ATOM     14  C   UNL     1      33.660 -16.743 -20.778  0.00  0.00    +0.057 C 
ATOM     15  C   UNL     1      32.840 -17.868 -20.813  0.00  0.00    +0.006 C 
ATOM     16  C   UNL     1      35.044 -16.878 -20.867  0.00  0.00    +0.006 C 
ATOM     17  C   UNL     1      33.408 -19.137 -20.939  0.00  0.00    +0.012 C 
ATOM     18  C   UNL     1      35.611 -18.146 -20.991  0.00  0.00    +0.012 C 
ATOM     19  C   UNL     1      34.792 -19.275 -21.027  0.00  0.00    +0.058 C 
ENDBRANCH  10  14
BRANCH  11  20
ATOM     20  O   UNL     1      33.708 -14.553 -27.181  0.00  0.00    -0.471 OA
ATOM     21  C   UNL     1      33.847 -13.260 -27.766  0.00  0.00    +0.252 C 
ENDBRANCH  11  20
BRANCH   3  22
ATOM     22  C   UNL     1      31.750 -11.287 -23.123  0.00  0.00    +0.137 C 
BRANCH  22  24
ATOM     23  O   UNL     1      33.854 -10.301 -23.800  0.00  0.00    -0.250 OA
ATOM     24  C   UNL     1      32.859 -10.259 -23.086  0.00  0.00    +0.318 C 
BRANCH  24  25
ATOM     25  O   UNL     1      32.659  -9.303 -22.146  0.00  0.00    -0.480 OA
ATOM     26  H   UNL     1      33.390  -8.938 -21.687  0.00  0.00    +0.295 HD
ENDBRANCH  24  25
ENDBRANCH  22  24
ENDBRANCH   3  22
TORSDOF 5
ENDMDL
