MODEL 1
REMARK VINA RESULT:      -6.5      0.000      0.000
REMARK  Name = 8758
REMARK  9 active torsions:
REMARK  status: ('A' for Active; 'I' for Inactive)
REMARK    1  A    between atoms: N_1  and  C_3
REMARK    2  A    between atoms: N_1  and  C_8
REMARK    3  A    between atoms: N_1  and  C_13
REMARK    4  A    between atoms: C_3  and  C_5
REMARK    5  A    between atoms: C_5  and  O_6
REMARK    6  A    between atoms: C_8  and  C_10
REMARK    7  A    between atoms: C_10  and  O_11
REMARK    8  A    between atoms: C_13  and  C_15
REMARK    9  A    between atoms: C_15  and  O_16
REMARK                            x       y       z     vdW  Elec       q    Type
REMARK                         _______ _______ _______ _____ _____    ______ ____
ROOT
ATOM      1  N   UNL     1      38.052 -25.429 -13.602  0.00  0.00    +0.409 N 
ATOM      2  H   UNL     1      37.809 -24.678 -14.248  0.00  0.00    -0.077 HD
ENDROOT
BRANCH   1   3
ATOM      3  C   UNL     1      39.482 -25.707 -13.732  0.00  0.00    +0.036 C 
BRANCH   3   5
ATOM      4  O   UNL     1      40.711 -25.989 -15.786  0.00  0.00    -0.253 OA
ATOM      5  C   UNL     1      39.920 -25.333 -15.121  0.00  0.00    +0.293 C 
BRANCH   5   6
ATOM      6  O   UNL     1      39.378 -24.165 -15.550  0.00  0.00    -0.482 OA
ATOM      7  H   UNL     1      38.491 -23.952 -15.333  0.00  0.00    +0.295 HD
ENDBRANCH   5   6
ENDBRANCH   3   5
ENDBRANCH   1   3
BRANCH   1   8
ATOM      8  C   UNL     1      37.740 -24.989 -12.242  0.00  0.00    +0.036 C 
BRANCH   8  10
ATOM      9  O   UNL     1      37.587 -22.814 -11.215  0.00  0.00    -0.253 OA
ATOM     10  C   UNL     1      37.632 -23.489 -12.236  0.00  0.00    +0.293 C 
BRANCH  10  11
ATOM     11  O   UNL     1      37.547 -22.959 -13.482  0.00  0.00    -0.482 OA
ATOM     12  H   UNL     1      38.172 -23.200 -14.138  0.00  0.00    +0.295 HD
ENDBRANCH  10  11
ENDBRANCH   8  10
ENDBRANCH   1   8
BRANCH   1  13
ATOM     13  C   UNL     1      37.268 -26.613 -13.949  0.00  0.00    +0.036 C 
BRANCH  13  15
ATOM     14  O   UNL     1      35.769 -25.447 -15.434  0.00  0.00    -0.253 OA
ATOM     15  C   UNL     1      36.566 -26.359 -15.254  0.00  0.00    +0.293 C 
BRANCH  15  16
ATOM     16  O   UNL     1      36.876 -27.273 -16.208  0.00  0.00    -0.482 OA
ATOM     17  H   UNL     1      37.484 -27.961 -16.018  0.00  0.00    +0.295 HD
ENDBRANCH  15  16
ENDBRANCH  13  15
ENDBRANCH   1  13
TORSDOF 9
ENDMDL
MODEL 2
REMARK VINA RESULT:      -6.4      0.184      4.073
REMARK  Name = 8758
REMARK  9 active torsions:
REMARK  status: ('A' for Active; 'I' for Inactive)
REMARK    1  A    between atoms: N_1  and  C_3
REMARK    2  A    between atoms: N_1  and  C_8
REMARK    3  A    between atoms: N_1  and  C_13
REMARK    4  A    between atoms: C_3  and  C_5
REMARK    5  A    between atoms: C_5  and  O_6
REMARK    6  A    between atoms: C_8  and  C_10
REMARK    7  A    between atoms: C_10  and  O_11
REMARK    8  A    between atoms: C_13  and  C_15
REMARK    9  A    between atoms: C_15  and  O_16
REMARK                            x       y       z     vdW  Elec       q    Type
REMARK                         _______ _______ _______ _____ _____    ______ ____
ROOT
ATOM      1  N   UNL     1      37.928 -25.433 -13.585  0.00  0.00    +0.409 N 
ATOM      2  H   UNL     1      37.740 -24.709 -14.279  0.00  0.00    -0.077 HD
ENDROOT
BRANCH   1   3
ATOM      3  C   UNL     1      37.440 -24.968 -12.287  0.00  0.00    +0.036 C 
BRANCH   3   5
ATOM      4  O   UNL     1      37.585 -22.816 -11.212  0.00  0.00    -0.253 OA
ATOM      5  C   UNL     1      37.534 -23.469 -12.247  0.00  0.00    +0.293 C 
BRANCH   5   6
ATOM      6  O   UNL     1      37.516 -22.903 -13.481  0.00  0.00    -0.482 OA
ATOM      7  H   UNL     1      37.568 -21.972 -13.571  0.00  0.00    +0.295 HD
ENDBRANCH   5   6
ENDBRANCH   3   5
ENDBRANCH   1   3
BRANCH   1   8
ATOM      8  C   UNL     1      37.227 -26.652 -13.987  0.00  0.00    +0.036 C 
BRANCH   8  10
ATOM      9  O   UNL     1      35.736 -25.486 -15.480  0.00  0.00    -0.253 OA
ATOM     10  C   UNL     1      36.534 -26.397 -15.297  0.00  0.00    +0.293 C 
BRANCH  10  11
ATOM     11  O   UNL     1      36.852 -27.309 -16.251  0.00  0.00    -0.482 OA
ATOM     12  H   UNL     1      37.733 -27.617 -16.330  0.00  0.00    +0.295 HD
ENDBRANCH  10  11
ENDBRANCH   8  10
ENDBRANCH   1   8
BRANCH   1  13
ATOM     13  C   UNL     1      39.370 -25.666 -13.535  0.00  0.00    +0.036 C 
BRANCH  13  15
ATOM     14  O   UNL     1      40.858 -26.004 -15.402  0.00  0.00    -0.253 OA
ATOM     15  C   UNL     1      39.955 -25.357 -14.885  0.00  0.00    +0.293 C 
BRANCH  15  16
ATOM     16  O   UNL     1      39.407 -24.257 -15.460  0.00  0.00    -0.482 OA
ATOM     17  H   UNL     1      38.711 -23.800 -15.028  0.00  0.00    +0.295 HD
ENDBRANCH  15  16
ENDBRANCH  13  15
ENDBRANCH   1  13
TORSDOF 9
ENDMDL
MODEL 3
REMARK VINA RESULT:      -6.4      1.370      3.519
REMARK  Name = 8758
REMARK  9 active torsions:
REMARK  status: ('A' for Active; 'I' for Inactive)
REMARK    1  A    between atoms: N_1  and  C_3
REMARK    2  A    between atoms: N_1  and  C_8
REMARK    3  A    between atoms: N_1  and  C_13
REMARK    4  A    between atoms: C_3  and  C_5
REMARK    5  A    between atoms: C_5  and  O_6
REMARK    6  A    between atoms: C_8  and  C_10
REMARK    7  A    between atoms: C_10  and  O_11
REMARK    8  A    between atoms: C_13  and  C_15
REMARK    9  A    between atoms: C_15  and  O_16
REMARK                            x       y       z     vdW  Elec       q    Type
REMARK                         _______ _______ _______ _____ _____    ______ ____
ROOT
ATOM      1  N   UNL     1      37.763 -24.712 -14.239  0.00  0.00    +0.409 N 
ATOM      2  H   UNL     1      38.173 -25.445 -13.660  0.00  0.00    -0.077 HD
ENDROOT
BRANCH   1   3
ATOM      3  C   UNL     1      37.380 -23.597 -13.373  0.00  0.00    +0.036 C 
BRANCH   3   5
ATOM      4  O   UNL     1      37.307 -24.501 -11.140  0.00  0.00    -0.253 OA
ATOM      5  C   UNL     1      37.909 -23.858 -11.991  0.00  0.00    +0.293 C 
BRANCH   5   6
ATOM      6  O   UNL     1      39.113 -23.272 -11.765  0.00  0.00    -0.482 OA
ATOM      7  H   UNL     1      39.351 -23.011 -10.897  0.00  0.00    +0.295 HD
ENDBRANCH   5   6
ENDBRANCH   3   5
ENDBRANCH   1   3
BRANCH   1   8
ATOM      8  C   UNL     1      38.764 -24.280 -15.214  0.00  0.00    +0.036 C 
BRANCH   8  10
ATOM      9  O   UNL     1      40.743 -24.902 -13.987  0.00  0.00    -0.253 OA
ATOM     10  C   UNL     1      40.033 -25.049 -14.974  0.00  0.00    +0.293 C 
BRANCH  10  11
ATOM     11  O   UNL     1      40.336 -25.901 -15.987  0.00  0.00    -0.482 OA
ATOM     12  H   UNL     1      40.690 -25.567 -16.788  0.00  0.00    +0.295 HD
ENDBRANCH  10  11
ENDBRANCH   8  10
ENDBRANCH   1   8
BRANCH   1  13
ATOM     13  C   UNL     1      36.589 -25.258 -14.919  0.00  0.00    +0.036 C 
BRANCH  13  15
ATOM     14  O   UNL     1      36.699 -27.314 -16.174  0.00  0.00    -0.253 OA
ATOM     15  C   UNL     1      36.782 -26.739 -15.095  0.00  0.00    +0.293 C 
BRANCH  15  16
ATOM     16  O   UNL     1      37.017 -27.385 -13.925  0.00  0.00    -0.482 OA
ATOM     17  H   UNL     1      36.536 -27.151 -13.155  0.00  0.00    +0.295 HD
ENDBRANCH  15  16
ENDBRANCH  13  15
ENDBRANCH   1  13
TORSDOF 9
ENDMDL
MODEL 4
REMARK VINA RESULT:      -6.3      1.367      3.894
REMARK  Name = 8758
REMARK  9 active torsions:
REMARK  status: ('A' for Active; 'I' for Inactive)
REMARK    1  A    between atoms: N_1  and  C_3
REMARK    2  A    between atoms: N_1  and  C_8
REMARK    3  A    between atoms: N_1  and  C_13
REMARK    4  A    between atoms: C_3  and  C_5
REMARK    5  A    between atoms: C_5  and  O_6
REMARK    6  A    between atoms: C_8  and  C_10
REMARK    7  A    between atoms: C_10  and  O_11
REMARK    8  A    between atoms: C_13  and  C_15
REMARK    9  A    between atoms: C_15  and  O_16
REMARK                            x       y       z     vdW  Elec       q    Type
REMARK                         _______ _______ _______ _____ _____    ______ ____
ROOT
ATOM      1  N   UNL     1      37.763 -24.726 -14.252  0.00  0.00    +0.409 N 
ATOM      2  H   UNL     1      38.172 -25.467 -13.684  0.00  0.00    -0.077 HD
ENDROOT
BRANCH   1   3
ATOM      3  C   UNL     1      38.772 -24.263 -15.205  0.00  0.00    +0.036 C 
BRANCH   3   5
ATOM      4  O   UNL     1      40.760 -24.955 -14.031  0.00  0.00    -0.253 OA
ATOM      5  C   UNL     1      40.027 -25.067 -15.005  0.00  0.00    +0.293 C 
BRANCH   5   6
ATOM      6  O   UNL     1      40.288 -25.906 -16.040  0.00  0.00    -0.482 OA
ATOM      7  H   UNL     1      40.524 -25.558 -16.877  0.00  0.00    +0.295 HD
ENDBRANCH   5   6
ENDBRANCH   3   5
ENDBRANCH   1   3
BRANCH   1   8
ATOM      8  C   UNL     1      36.605 -25.272 -14.960  0.00  0.00    +0.036 C 
BRANCH   8  10
ATOM      9  O   UNL     1      36.710 -27.348 -16.181  0.00  0.00    -0.253 OA
ATOM     10  C   UNL     1      36.791 -26.756 -15.112  0.00  0.00    +0.293 C 
BRANCH  10  11
ATOM     11  O   UNL     1      37.019 -27.385 -13.931  0.00  0.00    -0.482 OA
ATOM     12  H   UNL     1      36.604 -27.077 -13.149  0.00  0.00    +0.295 HD
ENDBRANCH  10  11
ENDBRANCH   8  10
ENDBRANCH   1   8
BRANCH   1  13
ATOM     13  C   UNL     1      37.354 -23.634 -13.370  0.00  0.00    +0.036 C 
BRANCH  13  15
ATOM     14  O   UNL     1      39.005 -23.185 -11.671  0.00  0.00    -0.253 OA
ATOM     15  C   UNL     1      38.022 -23.819 -12.036  0.00  0.00    +0.293 C 
BRANCH  15  16
ATOM     16  O   UNL     1      37.449 -24.795 -11.287  0.00  0.00    -0.482 OA
ATOM     17  H   UNL     1      36.798 -25.354 -11.665  0.00  0.00    +0.295 HD
ENDBRANCH  15  16
ENDBRANCH  13  15
ENDBRANCH   1  13
TORSDOF 9
ENDMDL
MODEL 5
REMARK VINA RESULT:      -6.3      0.572      3.954
REMARK  Name = 8758
REMARK  9 active torsions:
REMARK  status: ('A' for Active; 'I' for Inactive)
REMARK    1  A    between atoms: N_1  and  C_3
REMARK    2  A    between atoms: N_1  and  C_8
REMARK    3  A    between atoms: N_1  and  C_13
REMARK    4  A    between atoms: C_3  and  C_5
REMARK    5  A    between atoms: C_5  and  O_6
REMARK    6  A    between atoms: C_8  and  C_10
REMARK    7  A    between atoms: C_10  and  O_11
REMARK    8  A    between atoms: C_13  and  C_15
REMARK    9  A    between atoms: C_15  and  O_16
REMARK                            x       y       z     vdW  Elec       q    Type
REMARK                         _______ _______ _______ _____ _____    ______ ____
ROOT
ATOM      1  N   UNL     1      37.872 -25.205 -13.540  0.00  0.00    +0.409 N 
ATOM      2  H   UNL     1      37.620 -24.490 -14.223  0.00  0.00    -0.077 HD
ENDROOT
BRANCH   1   3
ATOM      3  C   UNL     1      37.228 -26.460 -13.926  0.00  0.00    +0.036 C 
BRANCH   3   5
ATOM      4  O   UNL     1      35.696 -25.349 -15.420  0.00  0.00    -0.253 OA
ATOM      5  C   UNL     1      36.504 -26.249 -15.226  0.00  0.00    +0.293 C 
BRANCH   5   6
ATOM      6  O   UNL     1      36.807 -27.188 -16.160  0.00  0.00    -0.482 OA
ATOM      7  H   UNL     1      36.121 -27.656 -16.593  0.00  0.00    +0.295 HD
ENDBRANCH   5   6
ENDBRANCH   3   5
ENDBRANCH   1   3
BRANCH   1   8
ATOM      8  C   UNL     1      39.327 -25.355 -13.544  0.00  0.00    +0.036 C 
BRANCH   8  10
ATOM      9  O   UNL     1      40.609 -25.994 -15.483  0.00  0.00    -0.253 OA
ATOM     10  C   UNL     1      39.820 -25.218 -14.958  0.00  0.00    +0.293 C 
BRANCH  10  11
ATOM     11  O   UNL     1      39.331 -24.118 -15.585  0.00  0.00    -0.482 OA
ATOM     12  H   UNL     1      39.101 -24.160 -16.493  0.00  0.00    +0.295 HD
ENDBRANCH  10  11
ENDBRANCH   8  10
ENDBRANCH   1   8
BRANCH   1  13
ATOM     13  C   UNL     1      37.406 -24.775 -12.223  0.00  0.00    +0.036 C 
BRANCH  13  15
ATOM     14  O   UNL     1      37.418 -22.434 -11.647  0.00  0.00    -0.253 OA
ATOM     15  C   UNL     1      36.948 -23.346 -12.317  0.00  0.00    +0.293 C 
BRANCH  15  16
ATOM     16  O   UNL     1      35.928 -23.174 -13.195  0.00  0.00    -0.482 OA
ATOM     17  H   UNL     1      35.071 -23.491 -12.985  0.00  0.00    +0.295 HD
ENDBRANCH  15  16
ENDBRANCH  13  15
ENDBRANCH   1  13
TORSDOF 9
ENDMDL
MODEL 6
REMARK VINA RESULT:      -6.2      2.246      4.339
REMARK  Name = 8758
REMARK  9 active torsions:
REMARK  status: ('A' for Active; 'I' for Inactive)
REMARK    1  A    between atoms: N_1  and  C_3
REMARK    2  A    between atoms: N_1  and  C_8
REMARK    3  A    between atoms: N_1  and  C_13
REMARK    4  A    between atoms: C_3  and  C_5
REMARK    5  A    between atoms: C_5  and  O_6
REMARK    6  A    between atoms: C_8  and  C_10
REMARK    7  A    between atoms: C_10  and  O_11
REMARK    8  A    between atoms: C_13  and  C_15
REMARK    9  A    between atoms: C_15  and  O_16
REMARK                            x       y       z     vdW  Elec       q    Type
REMARK                         _______ _______ _______ _____ _____    ______ ____
ROOT
ATOM      1  N   UNL     1      36.599 -24.257 -13.305  0.00  0.00    +0.409 N 
ATOM      2  H   UNL     1      35.957 -25.038 -13.172  0.00  0.00    -0.077 HD
ENDROOT
BRANCH   1   3
ATOM      3  C   UNL     1      36.651 -23.483 -12.065  0.00  0.00    +0.036 C 
BRANCH   3   5
ATOM      4  O   UNL     1      36.107 -24.112  -9.803  0.00  0.00    -0.253 OA
ATOM      5  C   UNL     1      35.891 -24.226 -11.002  0.00  0.00    +0.293 C 
BRANCH   5   6
ATOM      6  O   UNL     1      34.960 -25.074 -11.512  0.00  0.00    -0.482 OA
ATOM      7  H   UNL     1      34.667 -25.806 -11.006  0.00  0.00    +0.295 HD
ENDBRANCH   5   6
ENDBRANCH   3   5
ENDBRANCH   1   3
BRANCH   1   8
ATOM      8  C   UNL     1      37.921 -24.796 -13.626  0.00  0.00    +0.036 C 
BRANCH   8  10
ATOM      9  O   UNL     1      38.524 -26.912 -14.609  0.00  0.00    -0.253 OA
ATOM     10  C   UNL     1      37.792 -26.275 -13.861  0.00  0.00    +0.293 C 
BRANCH  10  11
ATOM     11  O   UNL     1      36.752 -26.830 -13.189  0.00  0.00    -0.482 OA
ATOM     12  H   UNL     1      36.708 -27.760 -13.079  0.00  0.00    +0.295 HD
ENDBRANCH  10  11
ENDBRANCH   8  10
ENDBRANCH   1   8
BRANCH   1  13
ATOM     13  C   UNL     1      36.104 -23.429 -14.404  0.00  0.00    +0.036 C 
BRANCH  13  15
ATOM     14  O   UNL     1      34.746 -23.985 -16.316  0.00  0.00    -0.253 OA
ATOM     15  C   UNL     1      35.050 -24.200 -15.149  0.00  0.00    +0.293 C 
BRANCH  15  16
ATOM     16  O   UNL     1      34.436 -25.135 -14.381  0.00  0.00    -0.482 OA
ATOM     17  H   UNL     1      33.635 -24.926 -13.939  0.00  0.00    +0.295 HD
ENDBRANCH  15  16
ENDBRANCH  13  15
ENDBRANCH   1  13
TORSDOF 9
ENDMDL
MODEL 7
REMARK VINA RESULT:      -6.2      1.701      4.010
REMARK  Name = 8758
REMARK  9 active torsions:
REMARK  status: ('A' for Active; 'I' for Inactive)
REMARK    1  A    between atoms: N_1  and  C_3
REMARK    2  A    between atoms: N_1  and  C_8
REMARK    3  A    between atoms: N_1  and  C_13
REMARK    4  A    between atoms: C_3  and  C_5
REMARK    5  A    between atoms: C_5  and  O_6
REMARK    6  A    between atoms: C_8  and  C_10
REMARK    7  A    between atoms: C_10  and  O_11
REMARK    8  A    between atoms: C_13  and  C_15
REMARK    9  A    between atoms: C_15  and  O_16
REMARK                            x       y       z     vdW  Elec       q    Type
REMARK                         _______ _______ _______ _____ _____    ______ ____
ROOT
ATOM      1  N   UNL     1      37.826 -25.113 -14.001  0.00  0.00    +0.409 N 
ATOM      2  H   UNL     1      38.365 -24.248 -13.958  0.00  0.00    -0.077 HD
ENDROOT
BRANCH   1   3
ATOM      3  C   UNL     1      36.673 -24.897 -14.876  0.00  0.00    +0.036 C 
BRANCH   3   5
ATOM      4  O   UNL     1      36.110 -23.146 -16.433  0.00  0.00    -0.253 OA
ATOM      5  C   UNL     1      36.780 -23.525 -15.481  0.00  0.00    +0.293 C 
BRANCH   5   6
ATOM      6  O   UNL     1      37.730 -22.757 -14.888  0.00  0.00    -0.482 OA
ATOM      7  H   UNL     1      38.625 -23.036 -14.888  0.00  0.00    +0.295 HD
ENDBRANCH   5   6
ENDBRANCH   3   5
ENDBRANCH   1   3
BRANCH   1   8
ATOM      8  C   UNL     1      38.685 -26.167 -14.540  0.00  0.00    +0.036 C 
BRANCH   8  10
ATOM      9  O   UNL     1      40.623 -24.792 -14.133  0.00  0.00    -0.253 OA
ATOM     10  C   UNL     1      40.027 -25.573 -14.865  0.00  0.00    +0.293 C 
BRANCH  10  11
ATOM     11  O   UNL     1      40.498 -25.960 -16.078  0.00  0.00    -0.482 OA
ATOM     12  H   UNL     1      40.005 -25.774 -16.853  0.00  0.00    +0.295 HD
ENDBRANCH  10  11
ENDBRANCH   8  10
ENDBRANCH   1   8
BRANCH   1  13
ATOM     13  C   UNL     1      37.384 -25.454 -12.650  0.00  0.00    +0.036 C 
BRANCH  13  15
ATOM     14  O   UNL     1      37.006 -24.017 -10.752  0.00  0.00    -0.253 OA
ATOM     15  C   UNL     1      37.674 -24.292 -11.742  0.00  0.00    +0.293 C 
BRANCH  15  16
ATOM     16  O   UNL     1      38.730 -23.548 -12.155  0.00  0.00    -0.482 OA
ATOM     17  H   UNL     1      38.847 -23.365 -13.067  0.00  0.00    +0.295 HD
ENDBRANCH  15  16
ENDBRANCH  13  15
ENDBRANCH   1  13
TORSDOF 9
ENDMDL
MODEL 8
REMARK VINA RESULT:      -6.2      2.244      4.091
REMARK  Name = 8758
REMARK  9 active torsions:
REMARK  status: ('A' for Active; 'I' for Inactive)
REMARK    1  A    between atoms: N_1  and  C_3
REMARK    2  A    between atoms: N_1  and  C_8
REMARK    3  A    between atoms: N_1  and  C_13
REMARK    4  A    between atoms: C_3  and  C_5
REMARK    5  A    between atoms: C_5  and  O_6
REMARK    6  A    between atoms: C_8  and  C_10
REMARK    7  A    between atoms: C_10  and  O_11
REMARK    8  A    between atoms: C_13  and  C_15
REMARK    9  A    between atoms: C_15  and  O_16
REMARK                            x       y       z     vdW  Elec       q    Type
REMARK                         _______ _______ _______ _____ _____    ______ ____
ROOT
ATOM      1  N   UNL     1      36.597 -24.257 -13.312  0.00  0.00    +0.409 N 
ATOM      2  H   UNL     1      35.957 -25.041 -13.174  0.00  0.00    -0.077 HD
ENDROOT
BRANCH   1   3
ATOM      3  C   UNL     1      37.913 -24.791 -13.661  0.00  0.00    +0.036 C 
BRANCH   3   5
ATOM      4  O   UNL     1      38.527 -26.916 -14.617  0.00  0.00    -0.253 OA
ATOM      5  C   UNL     1      37.788 -26.272 -13.883  0.00  0.00    +0.293 C 
BRANCH   5   6
ATOM      6  O   UNL     1      36.742 -26.822 -13.214  0.00  0.00    -0.482 OA
ATOM      7  H   UNL     1      36.819 -27.010 -12.299  0.00  0.00    +0.295 HD
ENDBRANCH   5   6
ENDBRANCH   3   5
ENDBRANCH   1   3
BRANCH   1   8
ATOM      8  C   UNL     1      36.080 -23.424 -14.397  0.00  0.00    +0.036 C 
BRANCH   8  10
ATOM      9  O   UNL     1      34.738 -23.999 -16.316  0.00  0.00    -0.253 OA
ATOM     10  C   UNL     1      35.033 -24.203 -15.144  0.00  0.00    +0.293 C 
BRANCH  10  11
ATOM     11  O   UNL     1      34.414 -25.134 -14.374  0.00  0.00    -0.482 OA
ATOM     12  H   UNL     1      33.793 -24.867 -13.725  0.00  0.00    +0.295 HD
ENDBRANCH  10  11
ENDBRANCH   8  10
ENDBRANCH   1   8
BRANCH   1  13
ATOM     13  C   UNL     1      36.669 -23.492 -12.069  0.00  0.00    +0.036 C 
BRANCH  13  15
ATOM     14  O   UNL     1      36.121 -24.116  -9.806  0.00  0.00    -0.253 OA
ATOM     15  C   UNL     1      35.902 -24.228 -11.005  0.00  0.00    +0.293 C 
BRANCH  15  16
ATOM     16  O   UNL     1      34.963 -25.066 -11.514  0.00  0.00    -0.482 OA
ATOM     17  H   UNL     1      34.939 -25.963 -11.242  0.00  0.00    +0.295 HD
ENDBRANCH  15  16
ENDBRANCH  13  15
ENDBRANCH   1  13
TORSDOF 9
ENDMDL
MODEL 9
REMARK VINA RESULT:      -6.2      1.646      2.184
REMARK  Name = 8758
REMARK  9 active torsions:
REMARK  status: ('A' for Active; 'I' for Inactive)
REMARK    1  A    between atoms: N_1  and  C_3
REMARK    2  A    between atoms: N_1  and  C_8
REMARK    3  A    between atoms: N_1  and  C_13
REMARK    4  A    between atoms: C_3  and  C_5
REMARK    5  A    between atoms: C_5  and  O_6
REMARK    6  A    between atoms: C_8  and  C_10
REMARK    7  A    between atoms: C_10  and  O_11
REMARK    8  A    between atoms: C_13  and  C_15
REMARK    9  A    between atoms: C_15  and  O_16
REMARK                            x       y       z     vdW  Elec       q    Type
REMARK                         _______ _______ _______ _____ _____    ______ ____
ROOT
ATOM      1  N   UNL     1      37.995 -25.054 -13.830  0.00  0.00    +0.409 N 
ATOM      2  H   UNL     1      38.484 -24.159 -13.823  0.00  0.00    -0.077 HD
ENDROOT
BRANCH   1   3
ATOM      3  C   UNL     1      38.952 -26.101 -14.188  0.00  0.00    +0.036 C 
BRANCH   3   5
ATOM      4  O   UNL     1      40.840 -24.604 -14.246  0.00  0.00    -0.253 OA
ATOM      5  C   UNL     1      40.161 -25.456 -14.805  0.00  0.00    +0.293 C 
BRANCH   5   6
ATOM      6  O   UNL     1      40.404 -25.887 -16.070  0.00  0.00    -0.482 OA
ATOM      7  H   UNL     1      40.922 -25.366 -16.651  0.00  0.00    +0.295 HD
ENDBRANCH   5   6
ENDBRANCH   3   5
ENDBRANCH   1   3
BRANCH   1   8
ATOM      8  C   UNL     1      37.453 -25.294 -12.492  0.00  0.00    +0.036 C 
BRANCH   8  10
ATOM      9  O   UNL     1      38.643 -23.304 -11.834  0.00  0.00    -0.253 OA
ATOM     10  C   UNL     1      37.718 -24.083 -11.642  0.00  0.00    +0.293 C 
BRANCH  10  11
ATOM     11  O   UNL     1      36.846 -23.960 -10.609  0.00  0.00    -0.482 OA
ATOM     12  H   UNL     1      36.515 -24.726 -10.182  0.00  0.00    +0.295 HD
ENDBRANCH  10  11
ENDBRANCH   8  10
ENDBRANCH   1   8
BRANCH   1  13
ATOM     13  C   UNL     1      36.917 -24.988 -14.814  0.00  0.00    +0.036 C 
BRANCH  13  15
ATOM     14  O   UNL     1      36.153 -23.272 -16.325  0.00  0.00    -0.253 OA
ATOM     15  C   UNL     1      36.883 -23.604 -15.399  0.00  0.00    +0.293 C 
BRANCH  15  16
ATOM     16  O   UNL     1      37.778 -22.763 -14.821  0.00  0.00    -0.482 OA
ATOM     17  H   UNL     1      37.692 -21.837 -14.935  0.00  0.00    +0.295 HD
ENDBRANCH  15  16
ENDBRANCH  13  15
ENDBRANCH   1  13
TORSDOF 9
ENDMDL
