MODEL 1
REMARK VINA RESULT:      -4.5      0.000      0.000
REMARK  Name = 247
REMARK  2 active torsions:
REMARK  status: ('A' for Active; 'I' for Inactive)
REMARK    1  A    between atoms: N_1  and  C_5
REMARK    2  A    between atoms: C_5  and  C_8
REMARK                            x       y       z     vdW  Elec       q    Type
REMARK                         _______ _______ _______ _____ _____    ______ ____
ROOT
ATOM      1  N   UNL     1      30.100 -23.855 -15.245  0.00  0.00    +0.393 N 
ATOM      2  C   UNL     1      30.113 -25.372 -15.364  0.00  0.00    -0.095 C 
ATOM      3  C   UNL     1      30.962 -23.252 -16.345  0.00  0.00    -0.095 C 
ATOM      4  C   UNL     1      30.653 -23.448 -13.886  0.00  0.00    -0.095 C 
ENDROOT
BRANCH   1   5
ATOM      5  C   UNL     1      28.672 -23.346 -15.384  0.00  0.00    +0.043 C 
BRANCH   5   8
ATOM      6  O   UNL     1      27.825 -24.120 -17.457  0.00  0.00    -0.248 OA
ATOM      7  O   UNL     1      28.222 -21.889 -17.165  0.00  0.00    -0.248 OA
ATOM      8  C   UNL     1      28.191 -23.102 -16.807  0.00  0.00    +0.345 C 
ENDBRANCH   5   8
ENDBRANCH   1   5
TORSDOF 2
ENDMDL
MODEL 2
REMARK VINA RESULT:      -4.4      8.228      9.052
REMARK  Name = 247
REMARK  2 active torsions:
REMARK  status: ('A' for Active; 'I' for Inactive)
REMARK    1  A    between atoms: N_1  and  C_5
REMARK    2  A    between atoms: C_5  and  C_8
REMARK                            x       y       z     vdW  Elec       q    Type
REMARK                         _______ _______ _______ _____ _____    ______ ____
ROOT
ATOM      1  N   UNL     1      37.045 -24.860 -13.808  0.00  0.00    +0.393 N 
ATOM      2  C   UNL     1      37.227 -26.044 -12.868  0.00  0.00    -0.095 C 
ATOM      3  C   UNL     1      35.870 -25.127 -14.738  0.00  0.00    -0.095 C 
ATOM      4  C   UNL     1      38.310 -24.668 -14.632  0.00  0.00    -0.095 C 
ENDROOT
BRANCH   1   5
ATOM      5  C   UNL     1      36.773 -23.603 -12.995  0.00  0.00    +0.043 C 
BRANCH   5   8
ATOM      6  O   UNL     1      38.676 -23.104 -11.675  0.00  0.00    -0.248 OA
ATOM      7  O   UNL     1      36.776 -23.876 -10.666  0.00  0.00    -0.248 OA
ATOM      8  C   UNL     1      37.483 -23.516 -11.652  0.00  0.00    +0.345 C 
ENDBRANCH   5   8
ENDBRANCH   1   5
TORSDOF 2
ENDMDL
MODEL 3
REMARK VINA RESULT:      -4.4      9.555     10.279
REMARK  Name = 247
REMARK  2 active torsions:
REMARK  status: ('A' for Active; 'I' for Inactive)
REMARK    1  A    between atoms: N_1  and  C_5
REMARK    2  A    between atoms: C_5  and  C_8
REMARK                            x       y       z     vdW  Elec       q    Type
REMARK                         _______ _______ _______ _____ _____    ______ ____
ROOT
ATOM      1  N   UNL     1      37.748 -25.359 -13.921  0.00  0.00    +0.393 N 
ATOM      2  C   UNL     1      36.748 -24.983 -12.836  0.00  0.00    -0.095 C 
ATOM      3  C   UNL     1      37.746 -24.291 -15.005  0.00  0.00    -0.095 C 
ATOM      4  C   UNL     1      37.356 -26.699 -14.529  0.00  0.00    -0.095 C 
ENDROOT
BRANCH   1   5
ATOM      5  C   UNL     1      39.139 -25.464 -13.315  0.00  0.00    +0.043 C 
BRANCH   5   8
ATOM      6  O   UNL     1      40.380 -26.882 -14.751  0.00  0.00    -0.248 OA
ATOM      7  O   UNL     1      40.981 -24.687 -14.541  0.00  0.00    -0.248 OA
ATOM      8  C   UNL     1      40.274 -25.708 -14.299  0.00  0.00    +0.345 C 
ENDBRANCH   5   8
ENDBRANCH   1   5
TORSDOF 2
ENDMDL
MODEL 4
REMARK VINA RESULT:      -4.3      8.034      8.804
REMARK  Name = 247
REMARK  2 active torsions:
REMARK  status: ('A' for Active; 'I' for Inactive)
REMARK    1  A    between atoms: N_1  and  C_5
REMARK    2  A    between atoms: C_5  and  C_8
REMARK                            x       y       z     vdW  Elec       q    Type
REMARK                         _______ _______ _______ _____ _____    ______ ____
ROOT
ATOM      1  N   UNL     1      36.806 -24.649 -13.807  0.00  0.00    +0.393 N 
ATOM      2  C   UNL     1      35.569 -24.945 -14.643  0.00  0.00    -0.095 C 
ATOM      3  C   UNL     1      37.979 -24.343 -14.727  0.00  0.00    -0.095 C 
ATOM      4  C   UNL     1      37.139 -25.860 -12.947  0.00  0.00    -0.095 C 
ENDROOT
BRANCH   1   5
ATOM      5  C   UNL     1      36.538 -23.449 -12.911  0.00  0.00    +0.043 C 
BRANCH   5   8
ATOM      6  O   UNL     1      36.678 -23.868 -10.583  0.00  0.00    -0.248 OA
ATOM      7  O   UNL     1      38.467 -22.953 -11.672  0.00  0.00    -0.248 OA
ATOM      8  C   UNL     1      37.295 -23.425 -11.591  0.00  0.00    +0.345 C 
ENDBRANCH   5   8
ENDBRANCH   1   5
TORSDOF 2
ENDMDL
MODEL 5
REMARK VINA RESULT:      -4.2     14.647     15.387
REMARK  Name = 247
REMARK  2 active torsions:
REMARK  status: ('A' for Active; 'I' for Inactive)
REMARK    1  A    between atoms: N_1  and  C_5
REMARK    2  A    between atoms: C_5  and  C_8
REMARK                            x       y       z     vdW  Elec       q    Type
REMARK                         _______ _______ _______ _____ _____    ______ ____
ROOT
ATOM      1  N   UNL     1      42.005 -14.426 -16.696  0.00  0.00    +0.393 N 
ATOM      2  C   UNL     1      41.095 -14.694 -15.505  0.00  0.00    -0.095 C 
ATOM      3  C   UNL     1      42.868 -13.206 -16.411  0.00  0.00    -0.095 C 
ATOM      4  C   UNL     1      41.158 -14.170 -17.934  0.00  0.00    -0.095 C 
ENDROOT
BRANCH   1   5
ATOM      5  C   UNL     1      42.899 -15.635 -16.934  0.00  0.00    +0.043 C 
BRANCH   5   8
ATOM      6  O   UNL     1      41.542 -17.568 -17.109  0.00  0.00    -0.248 OA
ATOM      7  O   UNL     1      42.597 -16.761 -18.969  0.00  0.00    -0.248 OA
ATOM      8  C   UNL     1      42.282 -16.766 -17.743  0.00  0.00    +0.345 C 
ENDBRANCH   5   8
ENDBRANCH   1   5
TORSDOF 2
ENDMDL
MODEL 6
REMARK VINA RESULT:      -4.2      7.905      8.654
REMARK  Name = 247
REMARK  2 active torsions:
REMARK  status: ('A' for Active; 'I' for Inactive)
REMARK    1  A    between atoms: N_1  and  C_5
REMARK    2  A    between atoms: C_5  and  C_8
REMARK                            x       y       z     vdW  Elec       q    Type
REMARK                         _______ _______ _______ _____ _____    ______ ____
ROOT
ATOM      1  N   UNL     1      37.433 -24.203 -14.691  0.00  0.00    +0.393 N 
ATOM      2  C   UNL     1      37.262 -23.050 -15.669  0.00  0.00    -0.095 C 
ATOM      3  C   UNL     1      37.284 -23.687 -13.267  0.00  0.00    -0.095 C 
ATOM      4  C   UNL     1      38.815 -24.816 -14.866  0.00  0.00    -0.095 C 
ENDROOT
BRANCH   1   5
ATOM      5  C   UNL     1      36.372 -25.260 -14.961  0.00  0.00    +0.043 C 
BRANCH   5   8
ATOM      6  O   UNL     1      37.260 -27.170 -13.877  0.00  0.00    -0.248 OA
ATOM      7  O   UNL     1      36.806 -27.254 -16.115  0.00  0.00    -0.248 OA
ATOM      8  C   UNL     1      36.861 -26.701 -14.979  0.00  0.00    +0.345 C 
ENDBRANCH   5   8
ENDBRANCH   1   5
TORSDOF 2
ENDMDL
MODEL 7
REMARK VINA RESULT:      -4.2      7.597      8.409
REMARK  Name = 247
REMARK  2 active torsions:
REMARK  status: ('A' for Active; 'I' for Inactive)
REMARK    1  A    between atoms: N_1  and  C_5
REMARK    2  A    between atoms: C_5  and  C_8
REMARK                            x       y       z     vdW  Elec       q    Type
REMARK                         _______ _______ _______ _____ _____    ______ ____
ROOT
ATOM      1  N   UNL     1      36.653 -24.591 -13.462  0.00  0.00    +0.393 N 
ATOM      2  C   UNL     1      35.157 -24.422 -13.689  0.00  0.00    -0.095 C 
ATOM      3  C   UNL     1      36.889 -25.673 -12.419  0.00  0.00    -0.095 C 
ATOM      4  C   UNL     1      37.243 -23.276 -12.972  0.00  0.00    -0.095 C 
ENDROOT
BRANCH   1   5
ATOM      5  C   UNL     1      37.323 -24.991 -14.768  0.00  0.00    +0.043 C 
BRANCH   5   8
ATOM      6  O   UNL     1      36.217 -26.850 -15.735  0.00  0.00    -0.248 OA
ATOM      7  O   UNL     1      38.259 -27.141 -14.751  0.00  0.00    -0.248 OA
ATOM      8  C   UNL     1      37.253 -26.469 -15.123  0.00  0.00    +0.345 C 
ENDBRANCH   5   8
ENDBRANCH   1   5
TORSDOF 2
ENDMDL
MODEL 8
REMARK VINA RESULT:      -4.1      7.736      8.540
REMARK  Name = 247
REMARK  2 active torsions:
REMARK  status: ('A' for Active; 'I' for Inactive)
REMARK    1  A    between atoms: N_1  and  C_5
REMARK    2  A    between atoms: C_5  and  C_8
REMARK                            x       y       z     vdW  Elec       q    Type
REMARK                         _______ _______ _______ _____ _____    ______ ____
ROOT
ATOM      1  N   UNL     1      36.890 -24.412 -13.562  0.00  0.00    +0.393 N 
ATOM      2  C   UNL     1      37.559 -23.798 -12.339  0.00  0.00    -0.095 C 
ATOM      3  C   UNL     1      37.622 -23.962 -14.819  0.00  0.00    -0.095 C 
ATOM      4  C   UNL     1      35.440 -23.956 -13.629  0.00  0.00    -0.095 C 
ENDROOT
BRANCH   1   5
ATOM      5  C   UNL     1      36.941 -25.929 -13.461  0.00  0.00    +0.043 C 
BRANCH   5   8
ATOM      6  O   UNL     1      38.418 -27.141 -14.862  0.00  0.00    -0.248 OA
ATOM      7  O   UNL     1      36.287 -26.717 -15.571  0.00  0.00    -0.248 OA
ATOM      8  C   UNL     1      37.252 -26.669 -14.754  0.00  0.00    +0.345 C 
ENDBRANCH   5   8
ENDBRANCH   1   5
TORSDOF 2
ENDMDL
MODEL 9
REMARK VINA RESULT:      -4.0      8.978     10.121
REMARK  Name = 247
REMARK  2 active torsions:
REMARK  status: ('A' for Active; 'I' for Inactive)
REMARK    1  A    between atoms: N_1  and  C_5
REMARK    2  A    between atoms: C_5  and  C_8
REMARK                            x       y       z     vdW  Elec       q    Type
REMARK                         _______ _______ _______ _____ _____    ______ ____
ROOT
ATOM      1  N   UNL     1      34.664 -18.759 -21.635  0.00  0.00    +0.393 N 
ATOM      2  C   UNL     1      36.092 -18.635 -21.121  0.00  0.00    -0.095 C 
ATOM      3  C   UNL     1      33.949 -19.874 -20.885  0.00  0.00    -0.095 C 
ATOM      4  C   UNL     1      34.686 -19.081 -23.122  0.00  0.00    -0.095 C 
ENDROOT
BRANCH   1   5
ATOM      5  C   UNL     1      33.928 -17.446 -21.411  0.00  0.00    +0.043 C 
BRANCH   5   8
ATOM      6  O   UNL     1      35.200 -15.851 -22.616  0.00  0.00    -0.248 OA
ATOM      7  O   UNL     1      34.973 -15.633 -20.352  0.00  0.00    -0.248 OA
ATOM      8  C   UNL     1      34.783 -16.188 -21.473  0.00  0.00    +0.345 C 
ENDBRANCH   5   8
ENDBRANCH   1   5
TORSDOF 2
ENDMDL
