MODEL 1
REMARK VINA RESULT:      -5.5      0.000      0.000
REMARK  Name = 5483
REMARK  5 active torsions:
REMARK  status: ('A' for Active; 'I' for Inactive)
REMARK    1  A    between atoms: N_2  and  C_9
REMARK    2  A    between atoms: C_3  and  C_5
REMARK    3  A    between atoms: C_5  and  S_7
REMARK    4  A    between atoms: C_9  and  C_11
REMARK    5  A    between atoms: C_11  and  O_12
REMARK                            x       y       z     vdW  Elec       q    Type
REMARK                         _______ _______ _______ _____ _____    ______ ____
ROOT
ATOM      1  O   UNL     1      37.855 -23.298 -13.352  0.00  0.00    -0.274 OA
ATOM      2  N   UNL     1      37.733 -24.744 -15.163  0.00  0.00    -0.294 N 
ATOM      3  C   UNL     1      37.419 -23.586 -14.466  0.00  0.00    +0.232 C 
ATOM      4  H   UNL     1      37.331 -24.883 -16.052  0.00  0.00    +0.150 HD
ENDROOT
BRANCH   3   5
ATOM      5  C   UNL     1      36.443 -22.695 -15.222  0.00  0.00    +0.120 C 
ATOM      6  C   UNL     1      37.045 -22.175 -16.520  0.00  0.00    +0.021 C 
BRANCH   5   7
ATOM      7  S   UNL     1      34.956 -23.683 -15.587  0.00  0.00    -0.160 S 
ATOM      8  H   UNL     1      33.851 -22.896 -15.486  0.00  0.00    +0.103 HD
ENDBRANCH   5   7
ENDBRANCH   3   5
BRANCH   2   9
ATOM      9  C   UNL     1      38.623 -25.752 -14.640  0.00  0.00    +0.200 C 
BRANCH   9  11
ATOM     10  O   UNL     1      40.800 -24.835 -14.176  0.00  0.00    -0.248 OA
ATOM     11  C   UNL     1      40.073 -25.464 -14.936  0.00  0.00    +0.334 C 
BRANCH  11  12
ATOM     12  O   UNL     1      40.494 -25.964 -16.120  0.00  0.00    -0.479 OA
ATOM     13  H   UNL     1      40.667 -26.881 -16.206  0.00  0.00    +0.295 HD
ENDBRANCH  11  12
ENDBRANCH   9  11
ENDBRANCH   2   9
TORSDOF 5
ENDMDL
MODEL 2
REMARK VINA RESULT:      -5.4      9.252     10.981
REMARK  Name = 5483
REMARK  5 active torsions:
REMARK  status: ('A' for Active; 'I' for Inactive)
REMARK    1  A    between atoms: N_2  and  C_9
REMARK    2  A    between atoms: C_3  and  C_5
REMARK    3  A    between atoms: C_5  and  S_7
REMARK    4  A    between atoms: C_9  and  C_11
REMARK    5  A    between atoms: C_11  and  O_12
REMARK                            x       y       z     vdW  Elec       q    Type
REMARK                         _______ _______ _______ _____ _____    ______ ____
ROOT
ATOM      1  O   UNL     1      30.086 -22.364 -17.059  0.00  0.00    -0.274 OA
ATOM      2  N   UNL     1      27.990 -23.155 -16.454  0.00  0.00    -0.294 N 
ATOM      3  C   UNL     1      29.350 -22.954 -16.270  0.00  0.00    +0.232 C 
ATOM      4  H   UNL     1      27.486 -23.642 -15.762  0.00  0.00    +0.150 HD
ENDROOT
BRANCH   3   5
ATOM      5  C   UNL     1      29.860 -23.569 -14.974  0.00  0.00    +0.120 C 
ATOM      6  C   UNL     1      29.658 -25.078 -14.948  0.00  0.00    +0.021 C 
BRANCH   5   7
ATOM      7  S   UNL     1      31.636 -23.183 -14.834  0.00  0.00    -0.160 S 
ATOM      8  H   UNL     1      32.315 -23.800 -15.838  0.00  0.00    +0.103 HD
ENDBRANCH   5   7
ENDBRANCH   3   5
BRANCH   2   9
ATOM      9  C   UNL     1      27.283 -22.681 -17.620  0.00  0.00    +0.200 C 
BRANCH   9  11
ATOM     10  O   UNL     1      26.255 -20.535 -17.985  0.00  0.00    -0.248 OA
ATOM     11  C   UNL     1      26.330 -21.554 -17.310  0.00  0.00    +0.334 C 
BRANCH  11  12
ATOM     12  O   UNL     1      25.569 -21.775 -16.214  0.00  0.00    -0.479 OA
ATOM     13  H   UNL     1      25.926 -22.237 -15.481  0.00  0.00    +0.295 HD
ENDBRANCH  11  12
ENDBRANCH   9  11
ENDBRANCH   2   9
TORSDOF 5
ENDMDL
MODEL 3
REMARK VINA RESULT:      -5.4      2.523      2.558
REMARK  Name = 5483
REMARK  5 active torsions:
REMARK  status: ('A' for Active; 'I' for Inactive)
REMARK    1  A    between atoms: N_2  and  C_9
REMARK    2  A    between atoms: C_3  and  C_5
REMARK    3  A    between atoms: C_5  and  S_7
REMARK    4  A    between atoms: C_9  and  C_11
REMARK    5  A    between atoms: C_11  and  O_12
REMARK                            x       y       z     vdW  Elec       q    Type
REMARK                         _______ _______ _______ _____ _____    ______ ____
ROOT
ATOM      1  O   UNL     1      37.134 -26.541 -11.951  0.00  0.00    -0.274 OA
ATOM      2  N   UNL     1      38.119 -25.106 -13.486  0.00  0.00    -0.294 N 
ATOM      3  C   UNL     1      37.255 -25.422 -12.448  0.00  0.00    +0.232 C 
ATOM      4  H   UNL     1      38.143 -24.178 -13.815  0.00  0.00    +0.150 HD
ENDROOT
BRANCH   3   5
ATOM      5  C   UNL     1      36.436 -24.225 -11.986  0.00  0.00    +0.120 C 
ATOM      6  C   UNL     1      37.299 -22.982 -11.821  0.00  0.00    +0.021 C 
BRANCH   5   7
ATOM      7  S   UNL     1      35.146 -23.917 -13.236  0.00  0.00    -0.160 S 
ATOM      8  H   UNL     1      35.018 -25.009 -14.036  0.00  0.00    +0.103 HD
ENDBRANCH   5   7
ENDBRANCH   3   5
BRANCH   2   9
ATOM      9  C   UNL     1      38.985 -26.083 -14.104  0.00  0.00    +0.200 C 
BRANCH   9  11
ATOM     10  O   UNL     1      40.884 -24.613 -14.264  0.00  0.00    -0.248 OA
ATOM     11  C   UNL     1      40.174 -25.460 -14.791  0.00  0.00    +0.334 C 
BRANCH  11  12
ATOM     12  O   UNL     1      40.381 -25.925 -16.044  0.00  0.00    -0.479 OA
ATOM     13  H   UNL     1      40.175 -26.815 -16.254  0.00  0.00    +0.295 HD
ENDBRANCH  11  12
ENDBRANCH   9  11
ENDBRANCH   2   9
TORSDOF 5
ENDMDL
MODEL 4
REMARK VINA RESULT:      -5.3      1.862      2.134
REMARK  Name = 5483
REMARK  5 active torsions:
REMARK  status: ('A' for Active; 'I' for Inactive)
REMARK    1  A    between atoms: N_2  and  C_9
REMARK    2  A    between atoms: C_3  and  C_5
REMARK    3  A    between atoms: C_5  and  S_7
REMARK    4  A    between atoms: C_9  and  C_11
REMARK    5  A    between atoms: C_11  and  O_12
REMARK                            x       y       z     vdW  Elec       q    Type
REMARK                         _______ _______ _______ _____ _____    ______ ____
ROOT
ATOM      1  O   UNL     1      36.731 -26.541 -15.696  0.00  0.00    -0.274 OA
ATOM      2  N   UNL     1      37.919 -25.155 -14.263  0.00  0.00    -0.294 N 
ATOM      3  C   UNL     1      36.823 -25.506 -15.039  0.00  0.00    +0.232 C 
ATOM      4  H   UNL     1      37.896 -24.302 -13.772  0.00  0.00    +0.150 HD
ENDROOT
BRANCH   3   5
ATOM      5  C   UNL     1      35.728 -24.449 -15.012  0.00  0.00    +0.120 C 
ATOM      6  C   UNL     1      35.246 -24.171 -13.595  0.00  0.00    +0.021 C 
BRANCH   5   7
ATOM      7  S   UNL     1      36.410 -22.923 -15.740  0.00  0.00    -0.160 S 
ATOM      8  H   UNL     1      35.393 -22.081 -16.065  0.00  0.00    +0.103 HD
ENDBRANCH   5   7
ENDBRANCH   3   5
BRANCH   2   9
ATOM      9  C   UNL     1      39.091 -25.991 -14.147  0.00  0.00    +0.200 C 
BRANCH   9  11
ATOM     10  O   UNL     1      41.088 -24.673 -14.414  0.00  0.00    -0.248 OA
ATOM     11  C   UNL     1      40.275 -25.447 -14.905  0.00  0.00    +0.334 C 
BRANCH  11  12
ATOM     12  O   UNL     1      40.354 -25.893 -16.179  0.00  0.00    -0.479 OA
ATOM     13  H   UNL     1      40.911 -25.459 -16.795  0.00  0.00    +0.295 HD
ENDBRANCH  11  12
ENDBRANCH   9  11
ENDBRANCH   2   9
TORSDOF 5
ENDMDL
MODEL 5
REMARK VINA RESULT:      -5.2      2.755      4.286
REMARK  Name = 5483
REMARK  5 active torsions:
REMARK  status: ('A' for Active; 'I' for Inactive)
REMARK    1  A    between atoms: N_2  and  C_9
REMARK    2  A    between atoms: C_3  and  C_5
REMARK    3  A    between atoms: C_5  and  S_7
REMARK    4  A    between atoms: C_9  and  C_11
REMARK    5  A    between atoms: C_11  and  O_12
REMARK                            x       y       z     vdW  Elec       q    Type
REMARK                         _______ _______ _______ _____ _____    ______ ____
ROOT
ATOM      1  O   UNL     1      38.174 -23.921 -14.159  0.00  0.00    -0.274 OA
ATOM      2  N   UNL     1      36.203 -23.137 -13.217  0.00  0.00    -0.294 N 
ATOM      3  C   UNL     1      37.024 -23.501 -14.275  0.00  0.00    +0.232 C 
ATOM      4  H   UNL     1      35.294 -22.812 -13.415  0.00  0.00    +0.150 HD
ENDROOT
BRANCH   3   5
ATOM      5  C   UNL     1      36.353 -23.304 -15.628  0.00  0.00    +0.120 C 
ATOM      6  C   UNL     1      34.864 -23.023 -15.483  0.00  0.00    +0.021 C 
BRANCH   5   7
ATOM      7  S   UNL     1      37.167 -21.898 -16.454  0.00  0.00    -0.160 S 
ATOM      8  H   UNL     1      38.505 -21.944 -16.217  0.00  0.00    +0.103 HD
ENDBRANCH   5   7
ENDBRANCH   3   5
BRANCH   2   9
ATOM      9  C   UNL     1      36.626 -23.217 -11.839  0.00  0.00    +0.200 C 
BRANCH   9  11
ATOM     10  O   UNL     1      34.960 -24.926 -11.525  0.00  0.00    -0.248 OA
ATOM     11  C   UNL     1      35.814 -24.198 -11.033  0.00  0.00    +0.334 C 
BRANCH  11  12
ATOM     12  O   UNL     1      36.117 -24.197  -9.714  0.00  0.00    -0.479 OA
ATOM     13  H   UNL     1      35.551 -24.627  -9.103  0.00  0.00    +0.295 HD
ENDBRANCH  11  12
ENDBRANCH   9  11
ENDBRANCH   2   9
TORSDOF 5
ENDMDL
MODEL 6
REMARK VINA RESULT:      -5.2      3.175      4.838
REMARK  Name = 5483
REMARK  5 active torsions:
REMARK  status: ('A' for Active; 'I' for Inactive)
REMARK    1  A    between atoms: N_2  and  C_9
REMARK    2  A    between atoms: C_3  and  C_5
REMARK    3  A    between atoms: C_5  and  S_7
REMARK    4  A    between atoms: C_9  and  C_11
REMARK    5  A    between atoms: C_11  and  O_12
REMARK                            x       y       z     vdW  Elec       q    Type
REMARK                         _______ _______ _______ _____ _____    ______ ____
ROOT
ATOM      1  O   UNL     1      38.097 -23.908 -13.208  0.00  0.00    -0.274 OA
ATOM      2  N   UNL     1      36.210 -25.198 -12.808  0.00  0.00    -0.294 N 
ATOM      3  C   UNL     1      37.482 -24.968 -13.313  0.00  0.00    +0.232 C 
ATOM      4  H   UNL     1      35.800 -26.083 -12.944  0.00  0.00    +0.150 HD
ENDROOT
BRANCH   3   5
ATOM      5  C   UNL     1      38.046 -26.178 -14.044  0.00  0.00    +0.120 C 
ATOM      6  C   UNL     1      37.127 -26.637 -15.167  0.00  0.00    +0.021 C 
BRANCH   5   7
ATOM      7  S   UNL     1      39.668 -25.708 -14.730  0.00  0.00    -0.160 S 
ATOM      8  H   UNL     1      40.472 -25.260 -13.729  0.00  0.00    +0.103 HD
ENDBRANCH   5   7
ENDBRANCH   3   5
BRANCH   2   9
ATOM      9  C   UNL     1      35.461 -24.191 -12.093  0.00  0.00    +0.200 C 
BRANCH   9  11
ATOM     10  O   UNL     1      35.357 -24.595  -9.722  0.00  0.00    -0.248 OA
ATOM     11  C   UNL     1      35.909 -24.036 -10.662  0.00  0.00    +0.334 C 
BRANCH  11  12
ATOM     12  O   UNL     1      36.976 -23.218 -10.514  0.00  0.00    -0.479 OA
ATOM     13  H   UNL     1      37.437 -22.908 -11.269  0.00  0.00    +0.295 HD
ENDBRANCH  11  12
ENDBRANCH   9  11
ENDBRANCH   2   9
TORSDOF 5
ENDMDL
MODEL 7
REMARK VINA RESULT:      -5.1      2.823      4.642
REMARK  Name = 5483
REMARK  5 active torsions:
REMARK  status: ('A' for Active; 'I' for Inactive)
REMARK    1  A    between atoms: N_2  and  C_9
REMARK    2  A    between atoms: C_3  and  C_5
REMARK    3  A    between atoms: C_5  and  S_7
REMARK    4  A    between atoms: C_9  and  C_11
REMARK    5  A    between atoms: C_11  and  O_12
REMARK                            x       y       z     vdW  Elec       q    Type
REMARK                         _______ _______ _______ _____ _____    ______ ____
ROOT
ATOM      1  O   UNL     1      37.574 -23.071 -14.267  0.00  0.00    -0.274 OA
ATOM      2  N   UNL     1      37.626 -24.609 -12.529  0.00  0.00    -0.294 N 
ATOM      3  C   UNL     1      37.872 -24.180 -13.826  0.00  0.00    +0.232 C 
ATOM      4  H   UNL     1      37.903 -25.518 -12.272  0.00  0.00    +0.150 HD
ENDROOT
BRANCH   3   5
ATOM      5  C   UNL     1      38.543 -25.250 -14.676  0.00  0.00    +0.120 C 
ATOM      6  C   UNL     1      39.898 -25.651 -14.110  0.00  0.00    +0.021 C 
BRANCH   5   7
ATOM      7  S   UNL     1      37.441 -26.701 -14.719  0.00  0.00    -0.160 S 
ATOM      8  H   UNL     1      36.828 -26.842 -13.514  0.00  0.00    +0.103 HD
ENDBRANCH   5   7
ENDBRANCH   3   5
BRANCH   2   9
ATOM      9  C   UNL     1      36.979 -23.776 -11.542  0.00  0.00    +0.200 C 
BRANCH   9  11
ATOM     10  O   UNL     1      35.298 -25.044 -10.376  0.00  0.00    -0.248 OA
ATOM     11  C   UNL     1      35.570 -24.217 -11.237  0.00  0.00    +0.334 C 
BRANCH  11  12
ATOM     12  O   UNL     1      34.635 -23.613 -12.006  0.00  0.00    -0.479 OA
ATOM     13  H   UNL     1      34.049 -24.129 -12.524  0.00  0.00    +0.295 HD
ENDBRANCH  11  12
ENDBRANCH   9  11
ENDBRANCH   2   9
TORSDOF 5
ENDMDL
MODEL 8
REMARK VINA RESULT:      -5.1      8.162      9.298
REMARK  Name = 5483
REMARK  5 active torsions:
REMARK  status: ('A' for Active; 'I' for Inactive)
REMARK    1  A    between atoms: N_2  and  C_9
REMARK    2  A    between atoms: C_3  and  C_5
REMARK    3  A    between atoms: C_5  and  S_7
REMARK    4  A    between atoms: C_9  and  C_11
REMARK    5  A    between atoms: C_11  and  O_12
REMARK                            x       y       z     vdW  Elec       q    Type
REMARK                         _______ _______ _______ _____ _____    ______ ____
ROOT
ATOM      1  O   UNL     1      35.597 -17.882 -20.570  0.00  0.00    -0.274 OA
ATOM      2  N   UNL     1      35.064 -19.965 -21.444  0.00  0.00    -0.294 N 
ATOM      3  C   UNL     1      35.441 -18.632 -21.532  0.00  0.00    +0.232 C 
ATOM      4  H   UNL     1      34.966 -20.483 -22.275  0.00  0.00    +0.150 HD
ENDROOT
BRANCH   3   5
ATOM      5  C   UNL     1      35.627 -18.173 -22.971  0.00  0.00    +0.120 C 
ATOM      6  C   UNL     1      34.894 -19.078 -23.951  0.00  0.00    +0.021 C 
BRANCH   5   7
ATOM      7  S   UNL     1      34.982 -16.473 -23.102  0.00  0.00    -0.160 S 
ATOM      8  H   UNL     1      33.679 -16.510 -23.489  0.00  0.00    +0.103 HD
ENDBRANCH   5   7
ENDBRANCH   3   5
BRANCH   2   9
ATOM      9  C   UNL     1      34.810 -20.621 -20.183  0.00  0.00    +0.200 C 
BRANCH   9  11
ATOM     10  O   UNL     1      32.464 -20.082 -20.154  0.00  0.00    -0.248 OA
ATOM     11  C   UNL     1      33.347 -20.908 -19.957  0.00  0.00    +0.334 C 
BRANCH  11  12
ATOM     12  O   UNL     1      33.103 -22.162 -19.514  0.00  0.00    -0.479 OA
ATOM     13  H   UNL     1      32.252 -22.540 -19.621  0.00  0.00    +0.295 HD
ENDBRANCH  11  12
ENDBRANCH   9  11
ENDBRANCH   2   9
TORSDOF 5
ENDMDL
MODEL 9
REMARK VINA RESULT:      -5.0      1.930      2.169
REMARK  Name = 5483
REMARK  5 active torsions:
REMARK  status: ('A' for Active; 'I' for Inactive)
REMARK    1  A    between atoms: N_2  and  C_9
REMARK    2  A    between atoms: C_3  and  C_5
REMARK    3  A    between atoms: C_5  and  S_7
REMARK    4  A    between atoms: C_9  and  C_11
REMARK    5  A    between atoms: C_11  and  O_12
REMARK                            x       y       z     vdW  Elec       q    Type
REMARK                         _______ _______ _______ _____ _____    ______ ____
ROOT
ATOM      1  O   UNL     1      38.232 -23.515 -15.203  0.00  0.00    -0.274 OA
ATOM      2  N   UNL     1      36.227 -24.600 -14.770  0.00  0.00    -0.294 N 
ATOM      3  C   UNL     1      37.006 -23.572 -15.282  0.00  0.00    +0.232 C 
ATOM      4  H   UNL     1      35.250 -24.555 -14.885  0.00  0.00    +0.150 HD
ENDROOT
BRANCH   3   5
ATOM      5  C   UNL     1      36.173 -22.487 -15.949  0.00  0.00    +0.120 C 
ATOM      6  C   UNL     1      36.826 -21.981 -17.228  0.00  0.00    +0.021 C 
BRANCH   5   7
ATOM      7  S   UNL     1      34.538 -23.196 -16.333  0.00  0.00    -0.160 S 
ATOM      8  H   UNL     1      33.564 -22.396 -15.822  0.00  0.00    +0.103 HD
ENDBRANCH   5   7
ENDBRANCH   3   5
BRANCH   2   9
ATOM      9  C   UNL     1      36.790 -25.733 -14.074  0.00  0.00    +0.200 C 
BRANCH   9  11
ATOM     10  O   UNL     1      38.592 -27.159 -14.792  0.00  0.00    -0.248 OA
ATOM     11  C   UNL     1      37.472 -26.709 -15.000  0.00  0.00    +0.334 C 
BRANCH  11  12
ATOM     12  O   UNL     1      36.731 -27.037 -16.082  0.00  0.00    -0.479 OA
ATOM     13  H   UNL     1      37.139 -27.123 -16.921  0.00  0.00    +0.295 HD
ENDBRANCH  11  12
ENDBRANCH   9  11
ENDBRANCH   2   9
TORSDOF 5
ENDMDL
