MODEL 1
REMARK VINA RESULT:      -9.1      0.000      0.000
REMARK  Name = 1775
REMARK  2 active torsions:
REMARK  status: ('A' for Active; 'I' for Inactive)
REMARK    1  A    between atoms: C_5  and  C_10
REMARK    2  A    between atoms: C_5  and  C_16
REMARK                            x       y       z     vdW  Elec       q    Type
REMARK                         _______ _______ _______ _____ _____    ______ ____
ROOT
ATOM      1  O   UNL     1      35.376 -25.942 -15.602  0.00  0.00    -0.272 OA
ATOM      2  O   UNL     1      37.555 -23.002 -12.860  0.00  0.00    -0.252 OA
ATOM      3  N   UNL     1      35.721 -22.748 -14.283  0.00  0.00    -0.278 N 
ATOM      4  N   UNL     1      36.704 -24.733 -14.152  0.00  0.00    -0.238 N 
ATOM      5  C   UNL     1      34.927 -23.547 -15.218  0.00  0.00    +0.166 C 
ATOM      6  C   UNL     1      35.670 -24.893 -15.042  0.00  0.00    +0.253 C 
ATOM      7  C   UNL     1      36.757 -23.450 -13.672  0.00  0.00    +0.307 C 
ATOM      8  H   UNL     1      35.538 -21.798 -14.102  0.00  0.00    +0.152 HD
ATOM      9  H   UNL     1      37.327 -25.449 -13.892  0.00  0.00    +0.159 HD
ENDROOT
BRANCH   5  10
ATOM     10  C   UNL     1      33.470 -23.731 -14.776  0.00  0.00    +0.006 C 
ATOM     11  C   UNL     1      32.512 -22.775 -15.116  0.00  0.00    -0.002 C 
ATOM     12  C   UNL     1      33.101 -24.853 -14.033  0.00  0.00    -0.002 C 
ATOM     13  C   UNL     1      31.187 -22.942 -14.715  0.00  0.00    -0.000 C 
ATOM     14  C   UNL     1      31.776 -25.019 -13.631  0.00  0.00    -0.000 C 
ATOM     15  C   UNL     1      30.819 -24.064 -13.973  0.00  0.00    -0.000 C 
ENDBRANCH   5  10
BRANCH   5  16
ATOM     16  C   UNL     1      35.062 -22.923 -16.610  0.00  0.00    +0.006 C 
ATOM     17  C   UNL     1      36.230 -22.245 -16.966  0.00  0.00    -0.002 C 
ATOM     18  C   UNL     1      34.016 -23.028 -17.531  0.00  0.00    -0.002 C 
ATOM     19  C   UNL     1      36.352 -21.677 -18.235  0.00  0.00    -0.000 C 
ATOM     20  C   UNL     1      34.138 -22.460 -18.799  0.00  0.00    -0.000 C 
ATOM     21  C   UNL     1      35.307 -21.784 -19.151  0.00  0.00    -0.000 C 
ENDBRANCH   5  16
TORSDOF 2
ENDMDL
MODEL 2
REMARK VINA RESULT:      -8.8      6.452      9.036
REMARK  Name = 1775
REMARK  2 active torsions:
REMARK  status: ('A' for Active; 'I' for Inactive)
REMARK    1  A    between atoms: C_5  and  C_10
REMARK    2  A    between atoms: C_5  and  C_16
REMARK                            x       y       z     vdW  Elec       q    Type
REMARK                         _______ _______ _______ _____ _____    ______ ____
ROOT
ATOM      1  O   UNL     1      36.905 -17.985 -21.868  0.00  0.00    -0.272 OA
ATOM      2  O   UNL     1      34.300 -19.337 -25.375  0.00  0.00    -0.252 OA
ATOM      3  N   UNL     1      33.826 -18.997 -23.113  0.00  0.00    -0.278 N 
ATOM      4  N   UNL     1      35.897 -18.656 -23.833  0.00  0.00    -0.238 N 
ATOM      5  C   UNL     1      34.516 -18.598 -21.887  0.00  0.00    +0.166 C 
ATOM      6  C   UNL     1      35.922 -18.371 -22.490  0.00  0.00    +0.253 C 
ATOM      7  C   UNL     1      34.643 -19.032 -24.241  0.00  0.00    +0.307 C 
ATOM      8  H   UNL     1      32.867 -19.221 -23.140  0.00  0.00    +0.152 HD
ATOM      9  H   UNL     1      36.679 -18.598 -24.427  0.00  0.00    +0.159 HD
ENDROOT
BRANCH   5  10
ATOM     10  C   UNL     1      34.010 -17.270 -21.309  0.00  0.00    +0.006 C 
ATOM     11  C   UNL     1      32.643 -17.065 -21.124  0.00  0.00    -0.002 C 
ATOM     12  C   UNL     1      34.917 -16.266 -20.970  0.00  0.00    -0.002 C 
ATOM     13  C   UNL     1      32.183 -15.858 -20.598  0.00  0.00    -0.000 C 
ATOM     14  C   UNL     1      34.458 -15.058 -20.445  0.00  0.00    -0.000 C 
ATOM     15  C   UNL     1      33.090 -14.855 -20.259  0.00  0.00    -0.000 C 
ENDBRANCH   5  10
BRANCH   5  16
ATOM     16  C   UNL     1      34.429 -19.760 -20.893  0.00  0.00    +0.006 C 
ATOM     17  C   UNL     1      33.185 -20.208 -20.442  0.00  0.00    -0.002 C 
ATOM     18  C   UNL     1      35.595 -20.379 -20.432  0.00  0.00    -0.002 C 
ATOM     19  C   UNL     1      33.106 -21.267 -19.537  0.00  0.00    -0.000 C 
ATOM     20  C   UNL     1      35.515 -21.438 -19.527  0.00  0.00    -0.000 C 
ATOM     21  C   UNL     1      34.271 -21.882 -19.080  0.00  0.00    -0.000 C 
ENDBRANCH   5  16
TORSDOF 2
ENDMDL
MODEL 3
REMARK VINA RESULT:      -8.5      1.832      4.961
REMARK  Name = 1775
REMARK  2 active torsions:
REMARK  status: ('A' for Active; 'I' for Inactive)
REMARK    1  A    between atoms: C_5  and  C_10
REMARK    2  A    between atoms: C_5  and  C_16
REMARK                            x       y       z     vdW  Elec       q    Type
REMARK                         _______ _______ _______ _____ _____    ______ ____
ROOT
ATOM      1  O   UNL     1      35.271 -25.993 -15.665  0.00  0.00    -0.272 OA
ATOM      2  O   UNL     1      32.100 -23.812 -13.195  0.00  0.00    -0.252 OA
ATOM      3  N   UNL     1      34.248 -23.198 -13.878  0.00  0.00    -0.278 N 
ATOM      4  N   UNL     1      33.477 -25.199 -14.448  0.00  0.00    -0.238 N 
ATOM      5  C   UNL     1      35.371 -23.757 -14.630  0.00  0.00    +0.166 C 
ATOM      6  C   UNL     1      34.737 -25.121 -14.991  0.00  0.00    +0.253 C 
ATOM      7  C   UNL     1      33.151 -24.050 -13.775  0.00  0.00    +0.307 C 
ATOM      8  H   UNL     1      34.265 -22.297 -13.479  0.00  0.00    +0.152 HD
ATOM      9  H   UNL     1      32.885 -25.980 -14.533  0.00  0.00    +0.159 HD
ENDROOT
BRANCH   5  10
ATOM     10  C   UNL     1      35.672 -22.998 -15.928  0.00  0.00    +0.006 C 
ATOM     11  C   UNL     1      34.735 -22.985 -16.962  0.00  0.00    -0.002 C 
ATOM     12  C   UNL     1      36.883 -22.322 -16.077  0.00  0.00    -0.002 C 
ATOM     13  C   UNL     1      35.008 -22.295 -18.142  0.00  0.00    -0.000 C 
ATOM     14  C   UNL     1      37.157 -21.632 -17.258  0.00  0.00    -0.000 C 
ATOM     15  C   UNL     1      36.219 -21.618 -18.290  0.00  0.00    -0.000 C 
ENDBRANCH   5  10
BRANCH   5  16
ATOM     16  C   UNL     1      36.576 -23.844 -13.689  0.00  0.00    +0.006 C 
ATOM     17  C   UNL     1      36.641 -23.035 -12.552  0.00  0.00    -0.002 C 
ATOM     18  C   UNL     1      37.619 -24.734 -13.962  0.00  0.00    -0.002 C 
ATOM     19  C   UNL     1      37.738 -23.115 -11.694  0.00  0.00    -0.000 C 
ATOM     20  C   UNL     1      38.716 -24.814 -13.105  0.00  0.00    -0.000 C 
ATOM     21  C   UNL     1      38.776 -24.005 -11.971  0.00  0.00    -0.000 C 
ENDBRANCH   5  16
TORSDOF 2
ENDMDL
MODEL 4
REMARK VINA RESULT:      -8.4     15.381     17.678
REMARK  Name = 1775
REMARK  2 active torsions:
REMARK  status: ('A' for Active; 'I' for Inactive)
REMARK    1  A    between atoms: C_5  and  C_10
REMARK    2  A    between atoms: C_5  and  C_16
REMARK                            x       y       z     vdW  Elec       q    Type
REMARK                         _______ _______ _______ _____ _____    ______ ____
ROOT
ATOM      1  O   UNL     1      35.323  -7.705 -22.996  0.00  0.00    -0.272 OA
ATOM      2  O   UNL     1      34.140 -11.346 -25.497  0.00  0.00    -0.252 OA
ATOM      3  N   UNL     1      32.876  -9.816 -24.266  0.00  0.00    -0.278 N 
ATOM      4  N   UNL     1      35.083  -9.593 -24.302  0.00  0.00    -0.238 N 
ATOM      5  C   UNL     1      33.080  -8.641 -23.418  0.00  0.00    +0.166 C 
ATOM      6  C   UNL     1      34.622  -8.562 -23.521  0.00  0.00    +0.253 C 
ATOM      7  C   UNL     1      34.051 -10.365 -24.772  0.00  0.00    +0.307 C 
ATOM      8  H   UNL     1      31.984 -10.186 -24.462  0.00  0.00    +0.152 HD
ATOM      9  H   UNL     1      36.033  -9.757 -24.500  0.00  0.00    +0.159 HD
ENDROOT
BRANCH   5  10
ATOM     10  C   UNL     1      32.483  -7.356 -24.005  0.00  0.00    +0.006 C 
ATOM     11  C   UNL     1      33.297  -6.467 -24.708  0.00  0.00    -0.002 C 
ATOM     12  C   UNL     1      31.128  -7.074 -23.834  0.00  0.00    -0.002 C 
ATOM     13  C   UNL     1      32.755  -5.298 -25.242  0.00  0.00    -0.000 C 
ATOM     14  C   UNL     1      30.585  -5.905 -24.367  0.00  0.00    -0.000 C 
ATOM     15  C   UNL     1      31.399  -5.017 -25.071  0.00  0.00    -0.000 C 
ENDBRANCH   5  10
BRANCH   5  16
ATOM     16  C   UNL     1      32.551  -8.968 -22.018  0.00  0.00    +0.006 C 
ATOM     17  C   UNL     1      31.893 -10.177 -21.780  0.00  0.00    -0.002 C 
ATOM     18  C   UNL     1      32.725  -8.058 -20.971  0.00  0.00    -0.002 C 
ATOM     19  C   UNL     1      31.412 -10.474 -20.504  0.00  0.00    -0.000 C 
ATOM     20  C   UNL     1      32.244  -8.356 -19.697  0.00  0.00    -0.000 C 
ATOM     21  C   UNL     1      31.588  -9.564 -19.463  0.00  0.00    -0.000 C 
ENDBRANCH   5  16
TORSDOF 2
ENDMDL
MODEL 5
REMARK VINA RESULT:      -8.3     15.270     17.128
REMARK  Name = 1775
REMARK  2 active torsions:
REMARK  status: ('A' for Active; 'I' for Inactive)
REMARK    1  A    between atoms: C_5  and  C_10
REMARK    2  A    between atoms: C_5  and  C_16
REMARK                            x       y       z     vdW  Elec       q    Type
REMARK                         _______ _______ _______ _____ _____    ______ ____
ROOT
ATOM      1  O   UNL     1      33.474  -6.959 -19.935  0.00  0.00    -0.272 OA
ATOM      2  O   UNL     1      29.863  -5.001 -21.944  0.00  0.00    -0.252 OA
ATOM      3  N   UNL     1      31.024  -6.976 -22.396  0.00  0.00    -0.278 N 
ATOM      4  N   UNL     1      31.704  -5.699 -20.713  0.00  0.00    -0.238 N 
ATOM      5  C   UNL     1      32.174  -7.723 -21.887  0.00  0.00    +0.166 C 
ATOM      6  C   UNL     1      32.557  -6.775 -20.727  0.00  0.00    +0.253 C 
ATOM      7  C   UNL     1      30.763  -5.795 -21.706  0.00  0.00    +0.307 C 
ATOM      8  H   UNL     1      30.482  -7.281 -23.159  0.00  0.00    +0.152 HD
ATOM      9  H   UNL     1      31.760  -4.955 -20.072  0.00  0.00    +0.159 HD
ENDROOT
BRANCH   5  10
ATOM     10  C   UNL     1      31.800  -9.090 -21.299  0.00  0.00    +0.006 C 
ATOM     11  C   UNL     1      32.001  -9.345 -19.942  0.00  0.00    -0.002 C 
ATOM     12  C   UNL     1      31.260 -10.079 -22.121  0.00  0.00    -0.002 C 
ATOM     13  C   UNL     1      31.661 -10.587 -19.407  0.00  0.00    -0.000 C 
ATOM     14  C   UNL     1      30.920 -11.322 -21.587  0.00  0.00    -0.000 C 
ATOM     15  C   UNL     1      31.120 -11.575 -20.229  0.00  0.00    -0.000 C 
ENDBRANCH   5  10
BRANCH   5  16
ATOM     16  C   UNL     1      33.216  -7.813 -23.006  0.00  0.00    +0.006 C 
ATOM     17  C   UNL     1      33.497  -6.696 -23.796  0.00  0.00    -0.002 C 
ATOM     18  C   UNL     1      33.891  -9.014 -23.243  0.00  0.00    -0.002 C 
ATOM     19  C   UNL     1      34.446  -6.778 -24.816  0.00  0.00    -0.000 C 
ATOM     20  C   UNL     1      34.840  -9.095 -24.262  0.00  0.00    -0.000 C 
ATOM     21  C   UNL     1      35.118  -7.977 -25.048  0.00  0.00    -0.000 C 
ENDBRANCH   5  16
TORSDOF 2
ENDMDL
MODEL 6
REMARK VINA RESULT:      -8.3     14.756     17.092
REMARK  Name = 1775
REMARK  2 active torsions:
REMARK  status: ('A' for Active; 'I' for Inactive)
REMARK    1  A    between atoms: C_5  and  C_10
REMARK    2  A    between atoms: C_5  and  C_16
REMARK                            x       y       z     vdW  Elec       q    Type
REMARK                         _______ _______ _______ _____ _____    ______ ____
ROOT
ATOM      1  O   UNL     1      30.380  -8.593 -23.988  0.00  0.00    -0.272 OA
ATOM      2  O   UNL     1      32.237  -4.947 -21.946  0.00  0.00    -0.252 OA
ATOM      3  N   UNL     1      32.807  -7.212 -21.925  0.00  0.00    -0.278 N 
ATOM      4  N   UNL     1      31.040  -6.566 -23.101  0.00  0.00    -0.238 N 
ATOM      5  C   UNL     1      32.331  -8.477 -22.484  0.00  0.00    +0.166 C 
ATOM      6  C   UNL     1      31.130  -7.924 -23.286  0.00  0.00    +0.253 C 
ATOM      7  C   UNL     1      32.043  -6.105 -22.288  0.00  0.00    +0.307 C 
ATOM      8  H   UNL     1      33.599  -7.148 -21.342  0.00  0.00    +0.152 HD
ATOM      9  H   UNL     1      30.345  -5.997 -23.502  0.00  0.00    +0.159 HD
ENDROOT
BRANCH   5  10
ATOM     10  C   UNL     1      33.321  -9.120 -23.464  0.00  0.00    +0.006 C 
ATOM     11  C   UNL     1      33.181 -10.462 -23.816  0.00  0.00    -0.002 C 
ATOM     12  C   UNL     1      34.362  -8.363 -24.002  0.00  0.00    -0.002 C 
ATOM     13  C   UNL     1      34.080 -11.048 -24.707  0.00  0.00    -0.000 C 
ATOM     14  C   UNL     1      35.262  -8.948 -24.892  0.00  0.00    -0.000 C 
ATOM     15  C   UNL     1      35.121 -10.290 -25.245  0.00  0.00    -0.000 C 
ENDBRANCH   5  10
BRANCH   5  16
ATOM     16  C   UNL     1      31.951  -9.397 -21.320  0.00  0.00    +0.006 C 
ATOM     17  C   UNL     1      31.255 -10.585 -21.562  0.00  0.00    -0.002 C 
ATOM     18  C   UNL     1      32.297  -9.055 -20.010  0.00  0.00    -0.002 C 
ATOM     19  C   UNL     1      30.909 -11.424 -20.502  0.00  0.00    -0.000 C 
ATOM     20  C   UNL     1      31.951  -9.893 -18.951  0.00  0.00    -0.000 C 
ATOM     21  C   UNL     1      31.257 -11.078 -19.197  0.00  0.00    -0.000 C 
ENDBRANCH   5  16
TORSDOF 2
ENDMDL
MODEL 7
REMARK VINA RESULT:      -8.2     14.746     16.567
REMARK  Name = 1775
REMARK  2 active torsions:
REMARK  status: ('A' for Active; 'I' for Inactive)
REMARK    1  A    between atoms: C_5  and  C_10
REMARK    2  A    between atoms: C_5  and  C_16
REMARK                            x       y       z     vdW  Elec       q    Type
REMARK                         _______ _______ _______ _____ _____    ______ ____
ROOT
ATOM      1  O   UNL     1      34.102  -7.358 -21.459  0.00  0.00    -0.272 OA
ATOM      2  O   UNL     1      30.678  -5.908 -24.121  0.00  0.00    -0.252 OA
ATOM      3  N   UNL     1      31.457  -8.047 -23.601  0.00  0.00    -0.278 N 
ATOM      4  N   UNL     1      32.491  -6.291 -22.723  0.00  0.00    -0.238 N 
ATOM      5  C   UNL     1      32.515  -8.677 -22.810  0.00  0.00    +0.166 C 
ATOM      6  C   UNL     1      33.155  -7.391 -22.236  0.00  0.00    +0.253 C 
ATOM      7  C   UNL     1      31.456  -6.656 -23.546  0.00  0.00    +0.307 C 
ATOM      8  H   UNL     1      30.802  -8.563 -24.126  0.00  0.00    +0.152 HD
ATOM      9  H   UNL     1      32.728  -5.361 -22.508  0.00  0.00    +0.159 HD
ENDROOT
BRANCH   5  10
ATOM     10  C   UNL     1      31.983  -9.522 -21.645  0.00  0.00    +0.006 C 
ATOM     11  C   UNL     1      31.227 -10.666 -21.901  0.00  0.00    -0.002 C 
ATOM     12  C   UNL     1      32.254  -9.146 -20.329  0.00  0.00    -0.002 C 
ATOM     13  C   UNL     1      30.744 -11.434 -20.843  0.00  0.00    -0.000 C 
ATOM     14  C   UNL     1      31.771  -9.913 -19.270  0.00  0.00    -0.000 C 
ATOM     15  C   UNL     1      31.016 -11.058 -19.527  0.00  0.00    -0.000 C 
ENDBRANCH   5  10
BRANCH   5  16
ATOM     16  C   UNL     1      33.416  -9.465 -23.765  0.00  0.00    +0.006 C 
ATOM     17  C   UNL     1      33.071 -10.765 -24.145  0.00  0.00    -0.002 C 
ATOM     18  C   UNL     1      34.589  -8.889 -24.261  0.00  0.00    -0.002 C 
ATOM     19  C   UNL     1      33.892 -11.483 -25.016  0.00  0.00    -0.000 C 
ATOM     20  C   UNL     1      35.410  -9.607 -25.131  0.00  0.00    -0.000 C 
ATOM     21  C   UNL     1      35.061 -10.904 -25.508  0.00  0.00    -0.000 C 
ENDBRANCH   5  16
TORSDOF 2
ENDMDL
MODEL 8
REMARK VINA RESULT:      -8.1     15.555     17.966
REMARK  Name = 1775
REMARK  2 active torsions:
REMARK  status: ('A' for Active; 'I' for Inactive)
REMARK    1  A    between atoms: C_5  and  C_10
REMARK    2  A    between atoms: C_5  and  C_16
REMARK                            x       y       z     vdW  Elec       q    Type
REMARK                         _______ _______ _______ _____ _____    ______ ____
ROOT
ATOM      1  O   UNL     1      30.436  -7.653 -23.231  0.00  0.00    -0.272 OA
ATOM      2  O   UNL     1      33.082  -6.910 -19.576  0.00  0.00    -0.252 OA
ATOM      3  N   UNL     1      33.577  -7.604 -21.750  0.00  0.00    -0.278 N 
ATOM      4  N   UNL     1      31.460  -7.213 -21.210  0.00  0.00    -0.238 N 
ATOM      5  C   UNL     1      32.879  -7.903 -23.001  0.00  0.00    +0.166 C 
ATOM      6  C   UNL     1      31.439  -7.589 -22.531  0.00  0.00    +0.253 C 
ATOM      7  C   UNL     1      32.738  -7.207 -20.712  0.00  0.00    +0.307 C 
ATOM      8  H   UNL     1      34.554  -7.677 -21.652  0.00  0.00    +0.152 HD
ATOM      9  H   UNL     1      30.660  -6.978 -20.688  0.00  0.00    +0.159 HD
ENDROOT
BRANCH   5  10
ATOM     10  C   UNL     1      33.241  -6.946 -24.144  0.00  0.00    +0.006 C 
ATOM     11  C   UNL     1      34.538  -6.934 -24.659  0.00  0.00    -0.002 C 
ATOM     12  C   UNL     1      32.276  -6.086 -24.667  0.00  0.00    -0.002 C 
ATOM     13  C   UNL     1      34.868  -6.065 -25.698  0.00  0.00    -0.000 C 
ATOM     14  C   UNL     1      32.605  -5.216 -25.706  0.00  0.00    -0.000 C 
ATOM     15  C   UNL     1      33.901  -5.206 -26.221  0.00  0.00    -0.000 C 
ENDBRANCH   5  10
BRANCH   5  16
ATOM     16  C   UNL     1      33.129  -9.375 -23.345  0.00  0.00    +0.006 C 
ATOM     17  C   UNL     1      34.124  -9.723 -24.262  0.00  0.00    -0.002 C 
ATOM     18  C   UNL     1      32.364 -10.378 -22.742  0.00  0.00    -0.002 C 
ATOM     19  C   UNL     1      34.352 -11.064 -24.574  0.00  0.00    -0.000 C 
ATOM     20  C   UNL     1      32.593 -11.717 -23.054  0.00  0.00    -0.000 C 
ATOM     21  C   UNL     1      33.587 -12.061 -23.970  0.00  0.00    -0.000 C 
ENDBRANCH   5  16
TORSDOF 2
ENDMDL
MODEL 9
REMARK VINA RESULT:      -8.1     14.969     17.026
REMARK  Name = 1775
REMARK  2 active torsions:
REMARK  status: ('A' for Active; 'I' for Inactive)
REMARK    1  A    between atoms: C_5  and  C_10
REMARK    2  A    between atoms: C_5  and  C_16
REMARK                            x       y       z     vdW  Elec       q    Type
REMARK                         _______ _______ _______ _____ _____    ______ ____
ROOT
ATOM      1  O   UNL     1      30.227  -9.994 -22.771  0.00  0.00    -0.272 OA
ATOM      2  O   UNL     1      32.598  -9.678 -18.874  0.00  0.00    -0.252 OA
ATOM      3  N   UNL     1      32.949  -8.770 -20.997  0.00  0.00    -0.278 N 
ATOM      4  N   UNL     1      31.179 -10.068 -20.670  0.00  0.00    -0.238 N 
ATOM      5  C   UNL     1      32.326  -8.780 -22.320  0.00  0.00    +0.166 C 
ATOM      6  C   UNL     1      31.114  -9.682 -21.986  0.00  0.00    +0.253 C 
ATOM      7  C   UNL     1      32.273  -9.529 -20.044  0.00  0.00    +0.307 C 
ATOM      8  H   UNL     1      33.774  -8.271 -20.797  0.00  0.00    +0.152 HD
ATOM      9  H   UNL     1      30.523 -10.656 -20.232  0.00  0.00    +0.159 HD
ENDROOT
BRANCH   5  10
ATOM     10  C   UNL     1      31.807  -7.405 -22.759  0.00  0.00    +0.006 C 
ATOM     11  C   UNL     1      31.527  -7.162 -24.104  0.00  0.00    -0.002 C 
ATOM     12  C   UNL     1      31.618  -6.396 -21.815  0.00  0.00    -0.002 C 
ATOM     13  C   UNL     1      31.056  -5.912 -24.504  0.00  0.00    -0.000 C 
ATOM     14  C   UNL     1      31.147  -5.146 -22.214  0.00  0.00    -0.000 C 
ATOM     15  C   UNL     1      30.866  -4.904 -23.559  0.00  0.00    -0.000 C 
ENDBRANCH   5  10
BRANCH   5  16
ATOM     16  C   UNL     1      33.322  -9.393 -23.310  0.00  0.00    +0.006 C 
ATOM     17  C   UNL     1      33.160 -10.711 -23.744  0.00  0.00    -0.002 C 
ATOM     18  C   UNL     1      34.398  -8.637 -23.783  0.00  0.00    -0.002 C 
ATOM     19  C   UNL     1      34.066 -11.269 -24.646  0.00  0.00    -0.000 C 
ATOM     20  C   UNL     1      35.304  -9.196 -24.684  0.00  0.00    -0.000 C 
ATOM     21  C   UNL     1      35.139 -10.511 -25.116  0.00  0.00    -0.000 C 
ENDBRANCH   5  16
TORSDOF 2
ENDMDL
