MODEL 1
REMARK VINA RESULT:      -8.6      0.000      0.000
REMARK  Name = 2801
REMARK  4 active torsions:
REMARK  status: ('A' for Active; 'I' for Inactive)
REMARK    1  A    between atoms: N_2  and  C_17
REMARK    2  A    between atoms: C_17  and  C_18
REMARK    3  A    between atoms: C_18  and  C_19
REMARK    4  A    between atoms: C_19  and  N_20
REMARK                            x       y       z     vdW  Elec       q    Type
REMARK                         _______ _______ _______ _____ _____    ______ ____
ROOT
ATOM      1 CL   UNL     1      30.677 -10.764 -19.086  0.00  0.00    -0.082 Cl
ATOM      2  N   UNL     1      33.019 -12.766 -23.212  0.00  0.00    -0.287 N 
ATOM      3  C   UNL     1      32.625 -11.576 -22.540  0.00  0.00    +0.048 C 
ATOM      4  C   UNL     1      33.150 -12.982 -24.609  0.00  0.00    +0.048 C 
ATOM      5  C   UNL     1      33.528  -9.916 -24.342  0.00  0.00    +0.032 C 
ATOM      6  C   UNL     1      34.570 -10.911 -24.828  0.00  0.00    +0.032 C 
ATOM      7  C   UNL     1      32.816 -10.270 -23.054  0.00  0.00    -0.008 C 
ATOM      8  C   UNL     1      33.891 -12.110 -25.424  0.00  0.00    -0.008 C 
ATOM      9  C   UNL     1      31.948 -11.673 -21.294  0.00  0.00    +0.026 C 
ATOM     10  C   UNL     1      32.541 -14.097 -25.224  0.00  0.00    +0.015 C 
ATOM     11  C   UNL     1      32.312  -9.154 -22.340  0.00  0.00    -0.002 C 
ATOM     12  C   UNL     1      34.013 -12.359 -26.803  0.00  0.00    -0.003 C 
ATOM     13  C   UNL     1      31.478 -10.558 -20.595  0.00  0.00    +0.059 C 
ATOM     14  C   UNL     1      32.664 -14.337 -26.594  0.00  0.00    +0.001 C 
ATOM     15  C   UNL     1      31.655  -9.294 -21.122  0.00  0.00    +0.011 C 
ATOM     16  C   UNL     1      33.402 -13.467 -27.384  0.00  0.00    -0.000 C 
ENDROOT
BRANCH   2  17
ATOM     17  C   UNL     1      33.173 -13.987 -22.404  0.00  0.00    +0.093 C 
BRANCH  17  18
ATOM     18  C   UNL     1      34.570 -14.581 -22.585  0.00  0.00    -0.001 C 
BRANCH  18  19
ATOM     19  C   UNL     1      34.682 -16.067 -22.229  0.00  0.00    -0.076 C 
BRANCH  19  20
ATOM     20  N   UNL     1      35.508 -16.795 -23.183  0.00  0.00    +0.384 N 
ATOM     21  C   UNL     1      34.854 -16.854 -24.492  0.00  0.00    -0.101 C 
ATOM     22  C   UNL     1      35.790 -18.147 -22.696  0.00  0.00    -0.101 C 
ATOM     23  H   UNL     1      36.391 -16.296 -23.285  0.00  0.00    -0.080 HD
ENDBRANCH  19  20
ENDBRANCH  18  19
ENDBRANCH  17  18
ENDBRANCH   2  17
TORSDOF 4
ENDMDL
MODEL 2
REMARK VINA RESULT:      -8.3      8.624     12.960
REMARK  Name = 2801
REMARK  4 active torsions:
REMARK  status: ('A' for Active; 'I' for Inactive)
REMARK    1  A    between atoms: N_2  and  C_17
REMARK    2  A    between atoms: C_17  and  C_18
REMARK    3  A    between atoms: C_18  and  C_19
REMARK    4  A    between atoms: C_19  and  N_20
REMARK                            x       y       z     vdW  Elec       q    Type
REMARK                         _______ _______ _______ _____ _____    ______ ____
ROOT
ATOM      1 CL   UNL     1      28.753 -22.403 -16.514  0.00  0.00    -0.082 Cl
ATOM      2  N   UNL     1      33.813 -23.302 -16.842  0.00  0.00    -0.287 N 
ATOM      3  C   UNL     1      32.658 -23.339 -16.011  0.00  0.00    +0.048 C 
ATOM      4  C   UNL     1      35.161 -23.082 -16.460  0.00  0.00    +0.048 C 
ATOM      5  C   UNL     1      33.877 -24.192 -13.866  0.00  0.00    +0.032 C 
ATOM      6  C   UNL     1      34.979 -24.854 -14.677  0.00  0.00    +0.032 C 
ATOM      7  C   UNL     1      32.672 -23.707 -14.644  0.00  0.00    -0.008 C 
ATOM      8  C   UNL     1      35.762 -23.811 -15.420  0.00  0.00    -0.008 C 
ATOM      9  C   UNL     1      31.404 -22.938 -16.546  0.00  0.00    +0.026 C 
ATOM     10  C   UNL     1      35.950 -22.120 -17.128  0.00  0.00    +0.015 C 
ATOM     11  C   UNL     1      31.478 -23.632 -13.884  0.00  0.00    -0.002 C 
ATOM     12  C   UNL     1      37.105 -23.578 -15.073  0.00  0.00    -0.003 C 
ATOM     13  C   UNL     1      30.233 -22.891 -15.785  0.00  0.00    +0.059 C 
ATOM     14  C   UNL     1      37.283 -21.893 -16.777  0.00  0.00    +0.001 C 
ATOM     15  C   UNL     1      30.270 -23.234 -14.447  0.00  0.00    +0.011 C 
ATOM     16  C   UNL     1      37.861 -22.624 -15.749  0.00  0.00    -0.000 C 
ENDROOT
BRANCH   2  17
ATOM     17  C   UNL     1      33.607 -23.344 -18.299  0.00  0.00    +0.093 C 
BRANCH  17  18
ATOM     18  C   UNL     1      33.362 -21.939 -18.850  0.00  0.00    -0.001 C 
BRANCH  18  19
ATOM     19  C   UNL     1      34.357 -21.495 -19.928  0.00  0.00    -0.076 C 
BRANCH  19  20
ATOM     20  N   UNL     1      34.152 -20.106 -20.318  0.00  0.00    +0.384 N 
ATOM     21  C   UNL     1      32.759 -19.878 -20.705  0.00  0.00    -0.101 C 
ATOM     22  C   UNL     1      35.049 -19.741 -21.417  0.00  0.00    -0.101 C 
ATOM     23  H   UNL     1      34.367 -19.515 -19.515  0.00  0.00    -0.080 HD
ENDBRANCH  19  20
ENDBRANCH  18  19
ENDBRANCH  17  18
ENDBRANCH   2  17
TORSDOF 4
ENDMDL
MODEL 3
REMARK VINA RESULT:      -8.2      2.491      6.038
REMARK  Name = 2801
REMARK  4 active torsions:
REMARK  status: ('A' for Active; 'I' for Inactive)
REMARK    1  A    between atoms: N_2  and  C_17
REMARK    2  A    between atoms: C_17  and  C_18
REMARK    3  A    between atoms: C_18  and  C_19
REMARK    4  A    between atoms: C_19  and  N_20
REMARK                            x       y       z     vdW  Elec       q    Type
REMARK                         _______ _______ _______ _____ _____    ______ ____
ROOT
ATOM      1 CL   UNL     1      35.752 -18.872 -20.958  0.00  0.00    -0.082 Cl
ATOM      2  N   UNL     1      33.733 -14.670 -23.144  0.00  0.00    -0.287 N 
ATOM      3  C   UNL     1      34.207 -15.995 -23.349  0.00  0.00    +0.048 C 
ATOM      4  C   UNL     1      33.768 -13.576 -24.048  0.00  0.00    +0.048 C 
ATOM      5  C   UNL     1      33.831 -16.037 -25.932  0.00  0.00    +0.032 C 
ATOM      6  C   UNL     1      32.728 -14.994 -25.853  0.00  0.00    +0.032 C 
ATOM      7  C   UNL     1      34.293 -16.623 -24.615  0.00  0.00    -0.008 C 
ATOM      8  C   UNL     1      33.291 -13.692 -25.364  0.00  0.00    -0.008 C 
ATOM      9  C   UNL     1      34.679 -16.744 -22.237  0.00  0.00    +0.026 C 
ATOM     10  C   UNL     1      34.278 -12.324 -23.642  0.00  0.00    +0.015 C 
ATOM     11  C   UNL     1      34.857 -17.920 -24.718  0.00  0.00    -0.002 C 
ATOM     12  C   UNL     1      33.327 -12.585 -26.232  0.00  0.00    -0.003 C 
ATOM     13  C   UNL     1      35.212 -18.030 -22.358  0.00  0.00    +0.059 C 
ATOM     14  C   UNL     1      34.313 -11.230 -24.510  0.00  0.00    +0.001 C 
ATOM     15  C   UNL     1      35.307 -18.618 -23.604  0.00  0.00    +0.011 C 
ATOM     16  C   UNL     1      33.836 -11.361 -25.807  0.00  0.00    -0.000 C 
ENDROOT
BRANCH   2  17
ATOM     17  C   UNL     1      33.280 -14.308 -21.790  0.00  0.00    +0.093 C 
BRANCH  17  18
ATOM     18  C   UNL     1      32.112 -13.325 -21.855  0.00  0.00    -0.001 C 
BRANCH  18  19
ATOM     19  C   UNL     1      31.886 -12.517 -20.573  0.00  0.00    -0.076 C 
BRANCH  19  20
ATOM     20  N   UNL     1      30.943 -11.425 -20.777  0.00  0.00    +0.384 N 
ATOM     21  C   UNL     1      31.172 -10.780 -22.072  0.00  0.00    -0.101 C 
ATOM     22  C   UNL     1      31.050 -10.442 -19.697  0.00  0.00    -0.101 C 
ATOM     23  H   UNL     1      30.000 -11.812 -20.770  0.00  0.00    -0.080 HD
ENDBRANCH  19  20
ENDBRANCH  18  19
ENDBRANCH  17  18
ENDBRANCH   2  17
TORSDOF 4
ENDMDL
MODEL 4
REMARK VINA RESULT:      -8.2      2.545      5.630
REMARK  Name = 2801
REMARK  4 active torsions:
REMARK  status: ('A' for Active; 'I' for Inactive)
REMARK    1  A    between atoms: N_2  and  C_17
REMARK    2  A    between atoms: C_17  and  C_18
REMARK    3  A    between atoms: C_18  and  C_19
REMARK    4  A    between atoms: C_19  and  N_20
REMARK                            x       y       z     vdW  Elec       q    Type
REMARK                         _______ _______ _______ _____ _____    ______ ____
ROOT
ATOM      1 CL   UNL     1      31.596 -13.590 -21.042  0.00  0.00    -0.082 Cl
ATOM      2  N   UNL     1      32.223  -8.812 -22.856  0.00  0.00    -0.287 N 
ATOM      3  C   UNL     1      32.076  -9.625 -21.699  0.00  0.00    +0.048 C 
ATOM      4  C   UNL     1      31.809  -7.467 -23.042  0.00  0.00    +0.048 C 
ATOM      5  C   UNL     1      32.144  -7.673 -19.967  0.00  0.00    +0.032 C 
ATOM      6  C   UNL     1      32.952  -6.786 -20.901  0.00  0.00    +0.032 C 
ATOM      7  C   UNL     1      32.003  -9.123 -20.376  0.00  0.00    -0.008 C 
ATOM      8  C   UNL     1      32.141  -6.459 -22.121  0.00  0.00    -0.008 C 
ATOM      9  C   UNL     1      31.942 -11.031 -21.850  0.00  0.00    +0.026 C 
ATOM     10  C   UNL     1      31.051  -7.098 -24.175  0.00  0.00    +0.015 C 
ATOM     11  C   UNL     1      31.774 -10.015 -19.299  0.00  0.00    -0.002 C 
ATOM     12  C   UNL     1      31.726  -5.133 -22.340  0.00  0.00    -0.003 C 
ATOM     13  C   UNL     1      31.738 -11.897 -20.772  0.00  0.00    +0.059 C 
ATOM     14  C   UNL     1      30.642  -5.779 -24.385  0.00  0.00    +0.001 C 
ATOM     15  C   UNL     1      31.648 -11.386 -19.491  0.00  0.00    +0.011 C 
ATOM     16  C   UNL     1      30.980  -4.796 -23.466  0.00  0.00    -0.000 C 
ENDROOT
BRANCH   2  17
ATOM     17  C   UNL     1      32.726  -9.453 -24.083  0.00  0.00    +0.093 C 
BRANCH  17  18
ATOM     18  C   UNL     1      34.248  -9.582 -24.040  0.00  0.00    -0.001 C 
BRANCH  18  19
ATOM     19  C   UNL     1      34.800 -10.845 -24.708  0.00  0.00    -0.076 C 
BRANCH  19  20
ATOM     20  N   UNL     1      33.749 -11.813 -24.997  0.00  0.00    +0.384 N 
ATOM     21  C   UNL     1      33.871 -12.983 -24.125  0.00  0.00    -0.101 C 
ATOM     22  C   UNL     1      33.795 -12.222 -26.402  0.00  0.00    -0.101 C 
ATOM     23  H   UNL     1      32.849 -11.368 -24.818  0.00  0.00    -0.080 HD
ENDBRANCH  19  20
ENDBRANCH  18  19
ENDBRANCH  17  18
ENDBRANCH   2  17
TORSDOF 4
ENDMDL
MODEL 5
REMARK VINA RESULT:      -8.1     10.289     13.931
REMARK  Name = 2801
REMARK  4 active torsions:
REMARK  status: ('A' for Active; 'I' for Inactive)
REMARK    1  A    between atoms: N_2  and  C_17
REMARK    2  A    between atoms: C_17  and  C_18
REMARK    3  A    between atoms: C_18  and  C_19
REMARK    4  A    between atoms: C_19  and  N_20
REMARK                            x       y       z     vdW  Elec       q    Type
REMARK                         _______ _______ _______ _____ _____    ______ ____
ROOT
ATOM      1 CL   UNL     1      32.971 -21.418 -20.338  0.00  0.00    -0.082 Cl
ATOM      2  N   UNL     1      35.004 -23.616 -16.148  0.00  0.00    -0.287 N 
ATOM      3  C   UNL     1      35.215 -22.717 -17.230  0.00  0.00    +0.048 C 
ATOM      4  C   UNL     1      35.958 -24.434 -15.488  0.00  0.00    +0.048 C 
ATOM      5  C   UNL     1      37.690 -22.134 -16.638  0.00  0.00    +0.032 C 
ATOM      6  C   UNL     1      37.481 -22.451 -15.166  0.00  0.00    +0.032 C 
ATOM      7  C   UNL     1      36.442 -22.059 -17.491  0.00  0.00    -0.008 C 
ATOM      8  C   UNL     1      37.166 -23.910 -14.999  0.00  0.00    -0.008 C 
ATOM      9  C   UNL     1      34.162 -22.482 -18.154  0.00  0.00    +0.026 C 
ATOM     10  C   UNL     1      35.713 -25.811 -15.294  0.00  0.00    +0.015 C 
ATOM     11  C   UNL     1      36.570 -21.245 -18.644  0.00  0.00    -0.002 C 
ATOM     12  C   UNL     1      38.086 -24.743 -14.337  0.00  0.00    -0.003 C 
ATOM     13  C   UNL     1      34.302 -21.657 -19.274  0.00  0.00    +0.059 C 
ATOM     14  C   UNL     1      36.632 -26.633 -14.638  0.00  0.00    +0.001 C 
ATOM     15  C   UNL     1      35.512 -21.041 -19.523  0.00  0.00    +0.011 C 
ATOM     16  C   UNL     1      37.820 -26.098 -14.158  0.00  0.00    -0.000 C 
ENDROOT
BRANCH   2  17
ATOM     17  C   UNL     1      33.614 -23.871 -15.733  0.00  0.00    +0.093 C 
BRANCH  17  18
ATOM     18  C   UNL     1      33.312 -23.178 -14.405  0.00  0.00    -0.001 C 
BRANCH  18  19
ATOM     19  C   UNL     1      31.962 -23.551 -13.784  0.00  0.00    -0.076 C 
BRANCH  19  20
ATOM     20  N   UNL     1      30.984 -23.933 -14.795  0.00  0.00    +0.384 N 
ATOM     21  C   UNL     1      29.954 -22.902 -14.932  0.00  0.00    -0.101 C 
ATOM     22  C   UNL     1      30.371 -25.220 -14.460  0.00  0.00    -0.101 C 
ATOM     23  H   UNL     1      31.468 -24.027 -15.687  0.00  0.00    -0.080 HD
ENDBRANCH  19  20
ENDBRANCH  18  19
ENDBRANCH  17  18
ENDBRANCH   2  17
TORSDOF 4
ENDMDL
MODEL 6
REMARK VINA RESULT:      -7.7      1.734      4.806
REMARK  Name = 2801
REMARK  4 active torsions:
REMARK  status: ('A' for Active; 'I' for Inactive)
REMARK    1  A    between atoms: N_2  and  C_17
REMARK    2  A    between atoms: C_17  and  C_18
REMARK    3  A    between atoms: C_18  and  C_19
REMARK    4  A    between atoms: C_19  and  N_20
REMARK                            x       y       z     vdW  Elec       q    Type
REMARK                         _______ _______ _______ _____ _____    ______ ____
ROOT
ATOM      1 CL   UNL     1      31.589  -8.864 -22.321  0.00  0.00    -0.082 Cl
ATOM      2  N   UNL     1      32.791 -13.834 -22.936  0.00  0.00    -0.287 N 
ATOM      3  C   UNL     1      32.373 -12.824 -22.025  0.00  0.00    +0.048 C 
ATOM      4  C   UNL     1      33.577 -14.985 -22.668  0.00  0.00    +0.048 C 
ATOM      5  C   UNL     1      32.308 -14.355 -19.911  0.00  0.00    +0.032 C 
ATOM      6  C   UNL     1      32.072 -15.604 -20.744  0.00  0.00    +0.032 C 
ATOM      7  C   UNL     1      32.181 -13.033 -20.637  0.00  0.00    -0.008 C 
ATOM      8  C   UNL     1      33.263 -15.866 -21.620  0.00  0.00    -0.008 C 
ATOM      9  C   UNL     1      32.175 -11.499 -22.499  0.00  0.00    +0.026 C 
ATOM     10  C   UNL     1      34.704 -15.287 -23.464  0.00  0.00    +0.015 C 
ATOM     11  C   UNL     1      31.841 -11.938 -19.804  0.00  0.00    -0.002 C 
ATOM     12  C   UNL     1      34.054 -17.006 -21.389  0.00  0.00    -0.003 C 
ATOM     13  C   UNL     1      31.819 -10.437 -21.663  0.00  0.00    +0.059 C 
ATOM     14  C   UNL     1      35.486 -16.420 -23.228  0.00  0.00    +0.001 C 
ATOM     15  C   UNL     1      31.657 -10.656 -20.309  0.00  0.00    +0.011 C 
ATOM     16  C   UNL     1      35.159 -17.280 -22.189  0.00  0.00    -0.000 C 
ENDROOT
BRANCH   2  17
ATOM     17  C   UNL     1      32.524 -13.616 -24.367  0.00  0.00    +0.093 C 
BRANCH  17  18
ATOM     18  C   UNL     1      33.773 -13.094 -25.076  0.00  0.00    -0.001 C 
BRANCH  18  19
ATOM     19  C   UNL     1      33.722 -11.608 -25.446  0.00  0.00    -0.076 C 
BRANCH  19  20
ATOM     20  N   UNL     1      34.961 -10.919 -25.105  0.00  0.00    +0.384 N 
ATOM     21  C   UNL     1      34.696  -9.796 -24.203  0.00  0.00    -0.101 C 
ATOM     22  C   UNL     1      35.639 -10.448 -26.314  0.00  0.00    -0.101 C 
ATOM     23  H   UNL     1      35.572 -11.581 -24.628  0.00  0.00    -0.080 HD
ENDBRANCH  19  20
ENDBRANCH  18  19
ENDBRANCH  17  18
ENDBRANCH   2  17
TORSDOF 4
ENDMDL
MODEL 7
REMARK VINA RESULT:      -7.5     11.105     14.765
REMARK  Name = 2801
REMARK  4 active torsions:
REMARK  status: ('A' for Active; 'I' for Inactive)
REMARK    1  A    between atoms: N_2  and  C_17
REMARK    2  A    between atoms: C_17  and  C_18
REMARK    3  A    between atoms: C_18  and  C_19
REMARK    4  A    between atoms: C_19  and  N_20
REMARK                            x       y       z     vdW  Elec       q    Type
REMARK                         _______ _______ _______ _____ _____    ______ ____
ROOT
ATOM      1 CL   UNL     1      36.494 -20.771 -19.923  0.00  0.00    -0.082 Cl
ATOM      2  N   UNL     1      36.766 -23.192 -15.387  0.00  0.00    -0.287 N 
ATOM      3  C   UNL     1      35.937 -22.833 -16.485  0.00  0.00    +0.048 C 
ATOM      4  C   UNL     1      36.393 -23.377 -14.030  0.00  0.00    +0.048 C 
ATOM      5  C   UNL     1      33.748 -23.912 -15.557  0.00  0.00    +0.032 C 
ATOM      6  C   UNL     1      34.523 -24.919 -14.722  0.00  0.00    +0.032 C 
ATOM      7  C   UNL     1      34.552 -23.120 -16.566  0.00  0.00    -0.008 C 
ATOM      8  C   UNL     1      35.316 -24.204 -13.667  0.00  0.00    -0.008 C 
ATOM      9  C   UNL     1      36.493 -22.093 -17.563  0.00  0.00    +0.026 C 
ATOM     10  C   UNL     1      37.107 -22.737 -12.994  0.00  0.00    +0.015 C 
ATOM     11  C   UNL     1      33.800 -22.646 -17.670  0.00  0.00    -0.002 C 
ATOM     12  C   UNL     1      34.979 -24.377 -12.312  0.00  0.00    -0.003 C 
ATOM     13  C   UNL     1      35.738 -21.653 -18.654  0.00  0.00    +0.059 C 
ATOM     14  C   UNL     1      36.766 -22.912 -11.651  0.00  0.00    +0.001 C 
ATOM     15  C   UNL     1      34.385 -21.925 -18.705  0.00  0.00    +0.011 C 
ATOM     16  C   UNL     1      35.701 -23.734 -11.310  0.00  0.00    -0.000 C 
ENDROOT
BRANCH   2  17
ATOM     17  C   UNL     1      38.220 -23.239 -15.615  0.00  0.00    +0.093 C 
BRANCH  17  18
ATOM     18  C   UNL     1      38.704 -24.685 -15.715  0.00  0.00    -0.001 C 
BRANCH  18  19
ATOM     19  C   UNL     1      39.512 -25.172 -14.509  0.00  0.00    -0.076 C 
BRANCH  19  20
ATOM     20  N   UNL     1      38.873 -26.300 -13.843  0.00  0.00    +0.384 N 
ATOM     21  C   UNL     1      37.745 -26.794 -14.635  0.00  0.00    -0.101 C 
ATOM     22  C   UNL     1      38.422 -25.921 -12.503  0.00  0.00    -0.101 C 
ATOM     23  H   UNL     1      39.559 -27.048 -13.755  0.00  0.00    -0.080 HD
ENDBRANCH  19  20
ENDBRANCH  18  19
ENDBRANCH  17  18
ENDBRANCH   2  17
TORSDOF 4
ENDMDL
MODEL 8
REMARK VINA RESULT:      -7.2      2.226      4.143
REMARK  Name = 2801
REMARK  4 active torsions:
REMARK  status: ('A' for Active; 'I' for Inactive)
REMARK    1  A    between atoms: N_2  and  C_17
REMARK    2  A    between atoms: C_17  and  C_18
REMARK    3  A    between atoms: C_18  and  C_19
REMARK    4  A    between atoms: C_19  and  N_20
REMARK                            x       y       z     vdW  Elec       q    Type
REMARK                         _______ _______ _______ _____ _____    ______ ____
ROOT
ATOM      1 CL   UNL     1      34.600  -6.897 -24.675  0.00  0.00    -0.082 Cl
ATOM      2  N   UNL     1      33.389 -11.772 -23.539  0.00  0.00    -0.287 N 
ATOM      3  C   UNL     1      33.179 -10.400 -23.228  0.00  0.00    +0.048 C 
ATOM      4  C   UNL     1      33.334 -12.888 -22.665  0.00  0.00    +0.048 C 
ATOM      5  C   UNL     1      31.525 -10.806 -21.249  0.00  0.00    +0.032 C 
ATOM      6  C   UNL     1      31.081 -12.147 -21.810  0.00  0.00    +0.032 C 
ATOM      7  C   UNL     1      32.362  -9.940 -22.166  0.00  0.00    -0.008 C 
ATOM      8  C   UNL     1      32.237 -13.106 -21.814  0.00  0.00    -0.008 C 
ATOM      9  C   UNL     1      33.858  -9.404 -23.981  0.00  0.00    +0.026 C 
ATOM     10  C   UNL     1      34.387 -13.828 -22.631  0.00  0.00    +0.015 C 
ATOM     11  C   UNL     1      32.284  -8.552 -21.891  0.00  0.00    -0.002 C 
ATOM     12  C   UNL     1      32.206 -14.229 -20.968  0.00  0.00    -0.003 C 
ATOM     13  C   UNL     1      33.751  -8.038 -23.706  0.00  0.00    +0.059 C 
ATOM     14  C   UNL     1      34.350 -14.940 -21.787  0.00  0.00    +0.001 C 
ATOM     15  C   UNL     1      32.966  -7.610 -22.654  0.00  0.00    +0.011 C 
ATOM     16  C   UNL     1      33.258 -15.141 -20.955  0.00  0.00    -0.000 C 
ENDROOT
BRANCH   2  17
ATOM     17  C   UNL     1      33.873 -12.099 -24.891  0.00  0.00    +0.093 C 
BRANCH  17  18
ATOM     18  C   UNL     1      32.946 -13.108 -25.567  0.00  0.00    -0.001 C 
BRANCH  18  19
ATOM     19  C   UNL     1      33.665 -14.271 -26.259  0.00  0.00    -0.076 C 
BRANCH  19  20
ATOM     20  N   UNL     1      33.311 -15.557 -25.672  0.00  0.00    +0.384 N 
ATOM     21  C   UNL     1      34.515 -16.319 -25.333  0.00  0.00    -0.101 C 
ATOM     22  C   UNL     1      32.466 -16.327 -26.586  0.00  0.00    -0.101 C 
ATOM     23  H   UNL     1      32.787 -15.382 -24.815  0.00  0.00    -0.080 HD
ENDBRANCH  19  20
ENDBRANCH  18  19
ENDBRANCH  17  18
ENDBRANCH   2  17
TORSDOF 4
ENDMDL
MODEL 9
REMARK VINA RESULT:      -7.0      4.428      7.204
REMARK  Name = 2801
REMARK  4 active torsions:
REMARK  status: ('A' for Active; 'I' for Inactive)
REMARK    1  A    between atoms: N_2  and  C_17
REMARK    2  A    between atoms: C_17  and  C_18
REMARK    3  A    between atoms: C_18  and  C_19
REMARK    4  A    between atoms: C_19  and  N_20
REMARK                            x       y       z     vdW  Elec       q    Type
REMARK                         _______ _______ _______ _____ _____    ______ ____
ROOT
ATOM      1 CL   UNL     1      36.447  -5.082 -27.996  0.00  0.00    -0.082 Cl
ATOM      2  N   UNL     1      33.723  -7.117 -24.128  0.00  0.00    -0.287 N 
ATOM      3  C   UNL     1      33.757  -6.142 -25.163  0.00  0.00    +0.048 C 
ATOM      4  C   UNL     1      33.061  -7.043 -22.876  0.00  0.00    +0.048 C 
ATOM      5  C   UNL     1      31.426  -5.089 -24.642  0.00  0.00    +0.032 C 
ATOM      6  C   UNL     1      30.914  -6.376 -24.015  0.00  0.00    +0.032 C 
ATOM      7  C   UNL     1      32.737  -5.186 -25.392  0.00  0.00    -0.008 C 
ATOM      8  C   UNL     1      31.704  -6.690 -22.778  0.00  0.00    -0.008 C 
ATOM      9  C   UNL     1      34.898  -6.063 -26.007  0.00  0.00    +0.026 C 
ATOM     10  C   UNL     1      33.751  -7.336 -21.679  0.00  0.00    +0.015 C 
ATOM     11  C   UNL     1      32.907  -4.205 -26.400  0.00  0.00    -0.002 C 
ATOM     12  C   UNL     1      31.072  -6.639 -21.522  0.00  0.00    -0.003 C 
ATOM     13  C   UNL     1      35.037  -5.100 -27.011  0.00  0.00    +0.059 C 
ATOM     14  C   UNL     1      33.118  -7.282 -20.436  0.00  0.00    +0.001 C 
ATOM     15  C   UNL     1      34.040  -4.164 -27.205  0.00  0.00    +0.011 C 
ATOM     16  C   UNL     1      31.776  -6.933 -20.358  0.00  0.00    -0.000 C 
ENDROOT
BRANCH   2  17
ATOM     17  C   UNL     1      34.592  -8.297 -24.273  0.00  0.00    +0.093 C 
BRANCH  17  18
ATOM     18  C   UNL     1      33.772  -9.527 -24.658  0.00  0.00    -0.001 C 
BRANCH  18  19
ATOM     19  C   UNL     1      33.887 -10.701 -23.680  0.00  0.00    -0.076 C 
BRANCH  19  20
ATOM     20  N   UNL     1      34.265 -11.937 -24.354  0.00  0.00    +0.384 N 
ATOM     21  C   UNL     1      33.895 -11.886 -25.770  0.00  0.00    -0.101 C 
ATOM     22  C   UNL     1      33.636 -13.091 -23.708  0.00  0.00    -0.101 C 
ATOM     23  H   UNL     1      35.277 -12.039 -24.287  0.00  0.00    -0.080 HD
ENDBRANCH  19  20
ENDBRANCH  18  19
ENDBRANCH  17  18
ENDBRANCH   2  17
TORSDOF 4
ENDMDL
