MODEL 1
REMARK VINA RESULT:      -7.6      0.000      0.000
REMARK  Name = 448632
REMARK  1 active torsions:
REMARK  status: ('A' for Active; 'I' for Inactive)
REMARK    1  A    between atoms: C_2  and  C_10
REMARK                            x       y       z     vdW  Elec       q    Type
REMARK                         _______ _______ _______ _____ _____    ______ ____
ROOT
ATOM      1 CL   UNL     1      33.755 -22.906 -18.404  0.00  0.00    -0.082 Cl
ATOM      2  C   UNL     1      34.646 -19.449 -21.162  0.00  0.00    +0.014 C 
ATOM      3  C   UNL     1      33.324 -19.776 -20.856  0.00  0.00    +0.002 C 
ATOM      4  C   UNL     1      35.691 -20.192 -20.613  0.00  0.00    +0.002 C 
ATOM      5  C   UNL     1      33.049 -20.845 -20.004  0.00  0.00    +0.011 C 
ATOM      6  C   UNL     1      35.416 -21.260 -19.761  0.00  0.00    +0.011 C 
ATOM      7  C   UNL     1      34.095 -21.587 -19.455  0.00  0.00    +0.058 C 
ENDROOT
BRANCH   2  10
ATOM      8  N   UNL     1      34.644 -17.046 -21.732  0.00  0.00    -0.315 N 
ATOM      9  N   UNL     1      35.573 -17.001 -23.748  0.00  0.00    -0.314 N 
ATOM     10  C   UNL     1      34.930 -18.343 -22.043  0.00  0.00    +0.060 C 
ATOM     11  C   UNL     1      35.502 -18.293 -23.290  0.00  0.00    +0.074 C 
ATOM     12  C   UNL     1      35.047 -16.275 -22.787  0.00  0.00    +0.182 C 
ATOM     13  H   UNL     1      34.223 -16.724 -20.901  0.00  0.00    +0.148 HD
ATOM     14  H   UNL     1      35.936 -16.688 -24.608  0.00  0.00    +0.148 HD
ENDBRANCH   2  10
TORSDOF 1
ENDMDL
MODEL 2
REMARK VINA RESULT:      -7.6      0.044      1.395
REMARK  Name = 448632
REMARK  1 active torsions:
REMARK  status: ('A' for Active; 'I' for Inactive)
REMARK    1  A    between atoms: C_2  and  C_10
REMARK                            x       y       z     vdW  Elec       q    Type
REMARK                         _______ _______ _______ _____ _____    ______ ____
ROOT
ATOM      1 CL   UNL     1      33.794 -22.952 -18.405  0.00  0.00    -0.082 Cl
ATOM      2  C   UNL     1      34.655 -19.463 -21.132  0.00  0.00    +0.014 C 
ATOM      3  C   UNL     1      35.707 -20.205 -20.595  0.00  0.00    +0.002 C 
ATOM      4  C   UNL     1      33.337 -19.801 -20.826  0.00  0.00    +0.002 C 
ATOM      5  C   UNL     1      35.441 -21.284 -19.752  0.00  0.00    +0.011 C 
ATOM      6  C   UNL     1      33.071 -20.879 -19.984  0.00  0.00    +0.011 C 
ATOM      7  C   UNL     1      34.123 -21.621 -19.447  0.00  0.00    +0.058 C 
ENDROOT
BRANCH   2  10
ATOM      8  N   UNL     1      34.633 -17.055 -21.685  0.00  0.00    -0.315 N 
ATOM      9  N   UNL     1      35.562 -16.988 -23.700  0.00  0.00    -0.314 N 
ATOM     10  C   UNL     1      34.931 -18.348 -22.005  0.00  0.00    +0.060 C 
ATOM     11  C   UNL     1      35.502 -18.283 -23.252  0.00  0.00    +0.074 C 
ATOM     12  C   UNL     1      35.030 -16.274 -22.734  0.00  0.00    +0.182 C 
ATOM     13  H   UNL     1      34.210 -16.743 -20.851  0.00  0.00    +0.148 HD
ATOM     14  H   UNL     1      35.923 -16.665 -24.558  0.00  0.00    +0.148 HD
ENDBRANCH   2  10
TORSDOF 1
ENDMDL
MODEL 3
REMARK VINA RESULT:      -6.9      1.506      2.054
REMARK  Name = 448632
REMARK  1 active torsions:
REMARK  status: ('A' for Active; 'I' for Inactive)
REMARK    1  A    between atoms: C_2  and  C_10
REMARK                            x       y       z     vdW  Elec       q    Type
REMARK                         _______ _______ _______ _____ _____    ______ ____
ROOT
ATOM      1 CL   UNL     1      36.129 -21.657 -18.941  0.00  0.00    -0.082 Cl
ATOM      2  C   UNL     1      35.158 -18.570 -22.084  0.00  0.00    +0.014 C 
ATOM      3  C   UNL     1      34.156 -19.411 -21.598  0.00  0.00    +0.002 C 
ATOM      4  C   UNL     1      36.461 -18.685 -21.597  0.00  0.00    +0.002 C 
ATOM      5  C   UNL     1      34.456 -20.365 -20.626  0.00  0.00    +0.011 C 
ATOM      6  C   UNL     1      36.760 -19.639 -20.625  0.00  0.00    +0.011 C 
ATOM      7  C   UNL     1      35.758 -20.479 -20.139  0.00  0.00    +0.058 C 
ENDROOT
BRANCH   2  10
ATOM      8  N   UNL     1      34.693 -17.883 -24.411  0.00  0.00    -0.315 N 
ATOM      9  N   UNL     1      34.369 -15.693 -24.238  0.00  0.00    -0.314 N 
ATOM     10  C   UNL     1      34.848 -17.583 -23.089  0.00  0.00    +0.060 C 
ATOM     11  C   UNL     1      34.644 -16.228 -23.005  0.00  0.00    +0.074 C 
ATOM     12  C   UNL     1      34.406 -16.716 -25.062  0.00  0.00    +0.182 C 
ATOM     13  H   UNL     1      34.773 -18.776 -24.819  0.00  0.00    +0.148 HD
ATOM     14  H   UNL     1      34.184 -14.751 -24.457  0.00  0.00    +0.148 HD
ENDBRANCH   2  10
TORSDOF 1
ENDMDL
MODEL 4
REMARK VINA RESULT:      -6.8      3.469      5.134
REMARK  Name = 448632
REMARK  1 active torsions:
REMARK  status: ('A' for Active; 'I' for Inactive)
REMARK    1  A    between atoms: C_2  and  C_10
REMARK                            x       y       z     vdW  Elec       q    Type
REMARK                         _______ _______ _______ _____ _____    ______ ____
ROOT
ATOM      1 CL   UNL     1      34.303 -15.925 -24.786  0.00  0.00    -0.082 Cl
ATOM      2  C   UNL     1      35.096 -19.036 -21.616  0.00  0.00    +0.014 C 
ATOM      3  C   UNL     1      34.962 -17.694 -21.259  0.00  0.00    +0.002 C 
ATOM      4  C   UNL     1      34.985 -19.415 -22.954  0.00  0.00    +0.002 C 
ATOM      5  C   UNL     1      34.716 -16.732 -22.239  0.00  0.00    +0.011 C 
ATOM      6  C   UNL     1      34.740 -18.453 -23.934  0.00  0.00    +0.011 C 
ATOM      7  C   UNL     1      34.605 -17.111 -23.576  0.00  0.00    +0.058 C 
ENDROOT
BRANCH   2  10
ATOM      8  N   UNL     1      36.568 -20.208 -20.016  0.00  0.00    -0.315 N 
ATOM      9  N   UNL     1      35.217 -21.705 -19.086  0.00  0.00    -0.314 N 
ATOM     10  C   UNL     1      35.349 -20.030 -20.603  0.00  0.00    +0.060 C 
ATOM     11  C   UNL     1      34.531 -20.964 -20.016  0.00  0.00    +0.074 C 
ATOM     12  C   UNL     1      36.440 -21.224 -19.111  0.00  0.00    +0.182 C 
ATOM     13  H   UNL     1      37.388 -19.697 -20.209  0.00  0.00    +0.148 HD
ATOM     14  H   UNL     1      34.869 -22.435 -18.525  0.00  0.00    +0.148 HD
ENDBRANCH   2  10
TORSDOF 1
ENDMDL
MODEL 5
REMARK VINA RESULT:      -6.7      3.609      5.463
REMARK  Name = 448632
REMARK  1 active torsions:
REMARK  status: ('A' for Active; 'I' for Inactive)
REMARK    1  A    between atoms: C_2  and  C_10
REMARK                            x       y       z     vdW  Elec       q    Type
REMARK                         _______ _______ _______ _____ _____    ______ ____
ROOT
ATOM      1 CL   UNL     1      34.058 -13.492 -23.651  0.00  0.00    -0.082 Cl
ATOM      2  C   UNL     1      34.991 -17.461 -21.721  0.00  0.00    +0.014 C 
ATOM      3  C   UNL     1      34.975 -17.348 -23.111  0.00  0.00    +0.002 C 
ATOM      4  C   UNL     1      34.719 -16.346 -20.928  0.00  0.00    +0.002 C 
ATOM      5  C   UNL     1      34.687 -16.120 -23.708  0.00  0.00    +0.011 C 
ATOM      6  C   UNL     1      34.431 -15.120 -21.524  0.00  0.00    +0.011 C 
ATOM      7  C   UNL     1      34.415 -15.006 -22.915  0.00  0.00    +0.058 C 
ENDROOT
BRANCH   2  10
ATOM      8  N   UNL     1      36.540 -19.084 -20.687  0.00  0.00    -0.315 N 
ATOM      9  N   UNL     1      35.225 -20.808 -20.208  0.00  0.00    -0.314 N 
ATOM     10  C   UNL     1      35.290 -18.730 -21.104  0.00  0.00    +0.060 C 
ATOM     11  C   UNL     1      34.495 -19.807 -20.800  0.00  0.00    +0.074 C 
ATOM     12  C   UNL     1      36.452 -20.340 -20.156  0.00  0.00    +0.182 C 
ATOM     13  H   UNL     1      37.355 -18.535 -20.757  0.00  0.00    +0.148 HD
ATOM     14  H   UNL     1      34.901 -21.682 -19.893  0.00  0.00    +0.148 HD
ENDBRANCH   2  10
TORSDOF 1
ENDMDL
MODEL 6
REMARK VINA RESULT:      -6.7      2.966      4.189
REMARK  Name = 448632
REMARK  1 active torsions:
REMARK  status: ('A' for Active; 'I' for Inactive)
REMARK    1  A    between atoms: C_2  and  C_10
REMARK                            x       y       z     vdW  Elec       q    Type
REMARK                         _______ _______ _______ _____ _____    ______ ____
ROOT
ATOM      1 CL   UNL     1      36.264 -19.689 -20.628  0.00  0.00    -0.082 Cl
ATOM      2  C   UNL     1      34.521 -16.620 -23.438  0.00  0.00    +0.014 C 
ATOM      3  C   UNL     1      34.996 -17.833 -23.937  0.00  0.00    +0.002 C 
ATOM      4  C   UNL     1      34.585 -16.357 -22.070  0.00  0.00    +0.002 C 
ATOM      5  C   UNL     1      35.535 -18.782 -23.068  0.00  0.00    +0.011 C 
ATOM      6  C   UNL     1      35.124 -17.305 -21.201  0.00  0.00    +0.011 C 
ATOM      7  C   UNL     1      35.598 -18.519 -21.700  0.00  0.00    +0.058 C 
ENDROOT
BRANCH   2  10
ATOM      8  N   UNL     1      33.649 -15.909 -25.637  0.00  0.00    -0.315 N 
ATOM      9  N   UNL     1      33.123 -13.777 -25.309  0.00  0.00    -0.314 N 
ATOM     10  C   UNL     1      33.963 -15.640 -24.337  0.00  0.00    +0.060 C 
ATOM     11  C   UNL     1      33.632 -14.320 -24.156  0.00  0.00    +0.074 C 
ATOM     12  C   UNL     1      33.147 -14.760 -26.181  0.00  0.00    +0.182 C 
ATOM     13  H   UNL     1      33.762 -16.773 -26.098  0.00  0.00    +0.148 HD
ATOM     14  H   UNL     1      32.810 -12.854 -25.452  0.00  0.00    +0.148 HD
ENDBRANCH   2  10
TORSDOF 1
ENDMDL
MODEL 7
REMARK VINA RESULT:      -6.6      4.163      5.978
REMARK  Name = 448632
REMARK  1 active torsions:
REMARK  status: ('A' for Active; 'I' for Inactive)
REMARK    1  A    between atoms: C_2  and  C_10
REMARK                            x       y       z     vdW  Elec       q    Type
REMARK                         _______ _______ _______ _____ _____    ______ ____
ROOT
ATOM      1 CL   UNL     1      31.251 -11.876 -21.338  0.00  0.00    -0.082 Cl
ATOM      2  C   UNL     1      33.955 -15.459 -21.792  0.00  0.00    +0.014 C 
ATOM      3  C   UNL     1      33.659 -14.663 -22.899  0.00  0.00    +0.002 C 
ATOM      4  C   UNL     1      33.416 -15.145 -20.544  0.00  0.00    +0.002 C 
ATOM      5  C   UNL     1      32.823 -13.555 -22.758  0.00  0.00    +0.011 C 
ATOM      6  C   UNL     1      32.580 -14.038 -20.404  0.00  0.00    +0.011 C 
ATOM      7  C   UNL     1      32.284 -13.242 -21.511  0.00  0.00    +0.058 C 
ENDROOT
BRANCH   2  10
ATOM      8  N   UNL     1      35.153 -17.426 -20.901  0.00  0.00    -0.315 N 
ATOM      9  N   UNL     1      36.192 -18.240 -22.687  0.00  0.00    -0.314 N 
ATOM     10  C   UNL     1      34.821 -16.603 -21.937  0.00  0.00    +0.060 C 
ATOM     11  C   UNL     1      35.472 -17.123 -23.028  0.00  0.00    +0.074 C 
ATOM     12  C   UNL     1      35.979 -18.395 -21.399  0.00  0.00    +0.182 C 
ATOM     13  H   UNL     1      34.854 -17.338 -19.966  0.00  0.00    +0.148 HD
ATOM     14  H   UNL     1      36.746 -18.801 -23.276  0.00  0.00    +0.148 HD
ENDBRANCH   2  10
TORSDOF 1
ENDMDL
MODEL 8
REMARK VINA RESULT:      -6.6      4.224      6.091
REMARK  Name = 448632
REMARK  1 active torsions:
REMARK  status: ('A' for Active; 'I' for Inactive)
REMARK    1  A    between atoms: C_2  and  C_10
REMARK                            x       y       z     vdW  Elec       q    Type
REMARK                         _______ _______ _______ _____ _____    ______ ____
ROOT
ATOM      1 CL   UNL     1      31.218 -11.758 -21.529  0.00  0.00    -0.082 Cl
ATOM      2  C   UNL     1      33.866 -15.367 -22.084  0.00  0.00    +0.014 C 
ATOM      3  C   UNL     1      33.451 -14.997 -20.805  0.00  0.00    +0.002 C 
ATOM      4  C   UNL     1      33.461 -14.621 -23.192  0.00  0.00    +0.002 C 
ATOM      5  C   UNL     1      32.632 -13.881 -20.633  0.00  0.00    +0.011 C 
ATOM      6  C   UNL     1      32.643 -13.506 -23.020  0.00  0.00    +0.011 C 
ATOM      7  C   UNL     1      32.227 -13.136 -21.741  0.00  0.00    +0.058 C 
ENDROOT
BRANCH   2  10
ATOM      8  N   UNL     1      35.127 -17.311 -21.230  0.00  0.00    -0.315 N 
ATOM      9  N   UNL     1      36.010 -18.192 -23.067  0.00  0.00    -0.314 N 
ATOM     10  C   UNL     1      34.712 -16.522 -22.262  0.00  0.00    +0.060 C 
ATOM     11  C   UNL     1      35.269 -17.082 -23.385  0.00  0.00    +0.074 C 
ATOM     12  C   UNL     1      35.905 -18.302 -21.761  0.00  0.00    +0.182 C 
ATOM     13  H   UNL     1      34.907 -17.190 -20.277  0.00  0.00    +0.148 HD
ATOM     14  H   UNL     1      36.511 -18.776 -23.681  0.00  0.00    +0.148 HD
ENDBRANCH   2  10
TORSDOF 1
ENDMDL
MODEL 9
REMARK VINA RESULT:      -6.6      4.606      6.765
REMARK  Name = 448632
REMARK  1 active torsions:
REMARK  status: ('A' for Active; 'I' for Inactive)
REMARK    1  A    between atoms: C_2  and  C_10
REMARK                            x       y       z     vdW  Elec       q    Type
REMARK                         _______ _______ _______ _____ _____    ______ ____
ROOT
ATOM      1 CL   UNL     1      32.561 -13.110 -27.110  0.00  0.00    -0.082 Cl
ATOM      2  C   UNL     1      34.258 -15.692 -23.823  0.00  0.00    +0.014 C 
ATOM      3  C   UNL     1      34.018 -14.337 -23.593  0.00  0.00    +0.002 C 
ATOM      4  C   UNL     1      33.971 -16.248 -25.070  0.00  0.00    +0.002 C 
ATOM      5  C   UNL     1      33.494 -13.538 -24.610  0.00  0.00    +0.011 C 
ATOM      6  C   UNL     1      33.446 -15.450 -26.086  0.00  0.00    +0.011 C 
ATOM      7  C   UNL     1      33.207 -14.095 -25.856  0.00  0.00    +0.058 C 
ENDROOT
BRANCH   2  10
ATOM      8  N   UNL     1      35.662 -17.549 -23.000  0.00  0.00    -0.315 N 
ATOM      9  N   UNL     1      35.350 -17.486 -20.802  0.00  0.00    -0.314 N 
ATOM     10  C   UNL     1      34.799 -16.517 -22.772  0.00  0.00    +0.060 C 
ATOM     11  C   UNL     1      34.620 -16.497 -21.411  0.00  0.00    +0.074 C 
ATOM     12  C   UNL     1      35.966 -18.102 -21.787  0.00  0.00    +0.182 C 
ATOM     13  H   UNL     1      36.003 -17.841 -23.877  0.00  0.00    +0.148 HD
ATOM     14  H   UNL     1      35.401 -17.691 -19.840  0.00  0.00    +0.148 HD
ENDBRANCH   2  10
TORSDOF 1
ENDMDL
