MODEL 1
REMARK VINA RESULT:      -9.2      0.000      0.000
REMARK  Name = 46936680
REMARK  10 active torsions:
REMARK  status: ('A' for Active; 'I' for Inactive)
REMARK    1  A    between atoms: C_3  and  CA_12
REMARK    2  A    between atoms: C_4  and  C_25
REMARK    3  A    between atoms: CA_6  and  C_9
REMARK    4  A    between atoms: C_9  and  O_10
REMARK    5  A    between atoms: CA_12  and  N_14
REMARK    6  A    between atoms: CA_12  and  C_24
REMARK    7  A    between atoms: C_15  and  C_17
REMARK    8  A    between atoms: C_17  and  C_19
REMARK    9  A    between atoms: C_25  and  C_27
REMARK   10  A    between atoms: C_27  and  O_28
REMARK                            x       y       z     vdW  Elec       q    Type
REMARK                         _______ _______ _______ _____ _____    ______ ____
ROOT
ATOM      1  S   UNL     1      33.859 -15.105 -21.278  0.00  0.00    -0.115 S 
ATOM      2  N   UNL     1      34.188 -15.542 -23.920  0.00  0.00    -0.319 N 
ATOM      3  C   UNL     1      34.261 -14.477 -22.939  0.00  0.00    +0.144 C 
ATOM      4  C   UNL     1      34.988 -17.353 -22.526  0.00  0.00    -0.003 C 
ATOM      5  C   UNL     1      35.002 -16.516 -21.258  0.00  0.00    +0.083 C 
ATOM      6  CA  UNL     1      34.585 -16.846 -23.712  0.00  0.00    +0.115 C 
ATOM      7  H   UNL     1      33.825 -15.315 -24.806  0.00  0.00    +0.148 HD
ENDROOT
BRANCH   6   9
ATOM      8  OXT UNL     1      34.084 -18.829 -24.925  0.00  0.00    -0.244 OA
ATOM      9  C   UNL     1      34.522 -17.698 -24.913  0.00  0.00    +0.351 C 
BRANCH   9  10
ATOM     10  O   UNL     1      35.023 -17.021 -25.964  0.00  0.00    -0.476 OA
ATOM     11  H   UNL     1      34.451 -16.531 -26.521  0.00  0.00    +0.295 HD
ENDBRANCH   9  10
ENDBRANCH   6   9
BRANCH   3  12
ATOM     12  CA  UNL     1      33.285 -13.368 -23.308  0.00  0.00    +0.165 C 
BRANCH  12  14
ATOM     13  O   UNL     1      33.637 -11.930 -25.776  0.00  0.00    -0.275 OA
ATOM     14  N   UNL     1      33.965 -12.116 -23.485  0.00  0.00    -0.297 N 
ATOM     15  C   UNL     1      34.088 -11.489 -24.722  0.00  0.00    +0.228 C 
ATOM     16  H   UNL     1      34.363 -11.680 -22.697  0.00  0.00    +0.150 HD
BRANCH  15  17
ATOM     17  C   UNL     1      34.847 -10.179 -24.618  0.00  0.00    +0.118 C 
BRANCH  17  19
ATOM     18  S   UNL     1      32.380  -9.250 -23.733  0.00  0.00    -0.090 S 
ATOM     19  C   UNL     1      34.077  -9.101 -23.902  0.00  0.00    +0.016 C 
ATOM     20  C   UNL     1      34.554  -7.944 -23.328  0.00  0.00    +0.003 C 
ATOM     21  C   UNL     1      33.513  -7.168 -22.742  0.00  0.00    +0.007 C 
ATOM     22  C   UNL     1      32.279  -7.763 -22.890  0.00  0.00    +0.035 C 
ENDBRANCH  17  19
ENDBRANCH  15  17
ENDBRANCH  12  14
BRANCH  12  24
ATOM     23  O   UNL     1      31.966 -12.070 -21.757  0.00  0.00    -0.286 OA
ATOM     24  C   UNL     1      32.239 -13.166 -22.240  0.00  0.00    +0.229 C 
ENDBRANCH  12  24
ENDBRANCH   3  12
BRANCH   4  25
ATOM     25  C   UNL     1      35.494 -18.755 -22.294  0.00  0.00    +0.134 C 
BRANCH  25  27
ATOM     26  O   UNL     1      33.452 -19.635 -21.291  0.00  0.00    -0.250 OA
ATOM     27  C   UNL     1      34.660 -19.447 -21.249  0.00  0.00    +0.321 C 
BRANCH  27  28
ATOM     28  O   UNL     1      35.490 -19.814 -20.226  0.00  0.00    -0.444 OA
ATOM     29  C   UNL     1      35.405 -21.185 -19.826  0.00  0.00    +0.256 C 
ENDBRANCH  27  28
ENDBRANCH  25  27
ENDBRANCH   4  25
TORSDOF 10
ENDMDL
MODEL 2
REMARK VINA RESULT:      -9.0      8.251     11.489
REMARK  Name = 46936680
REMARK  10 active torsions:
REMARK  status: ('A' for Active; 'I' for Inactive)
REMARK    1  A    between atoms: C_3  and  CA_12
REMARK    2  A    between atoms: C_4  and  C_25
REMARK    3  A    between atoms: CA_6  and  C_9
REMARK    4  A    between atoms: C_9  and  O_10
REMARK    5  A    between atoms: CA_12  and  N_14
REMARK    6  A    between atoms: CA_12  and  C_24
REMARK    7  A    between atoms: C_15  and  C_17
REMARK    8  A    between atoms: C_17  and  C_19
REMARK    9  A    between atoms: C_25  and  C_27
REMARK   10  A    between atoms: C_27  and  O_28
REMARK                            x       y       z     vdW  Elec       q    Type
REMARK                         _______ _______ _______ _____ _____    ______ ____
ROOT
ATOM      1  S   UNL     1      33.524 -24.464 -14.366  0.00  0.00    -0.115 S 
ATOM      2  N   UNL     1      34.904 -22.864 -16.043  0.00  0.00    -0.319 N 
ATOM      3  C   UNL     1      33.553 -23.103 -15.574  0.00  0.00    +0.144 C 
ATOM      4  C   UNL     1      36.078 -23.362 -13.985  0.00  0.00    -0.003 C 
ATOM      5  C   UNL     1      34.833 -23.854 -13.266  0.00  0.00    +0.083 C 
ATOM      6  CA  UNL     1      36.042 -22.938 -15.268  0.00  0.00    +0.115 C 
ATOM      7  H   UNL     1      35.018 -22.630 -16.993  0.00  0.00    +0.148 HD
ENDROOT
BRANCH   6   9
ATOM      8  OXT UNL     1      37.461 -21.419 -16.422  0.00  0.00    -0.244 OA
ATOM      9  C   UNL     1      37.276 -22.525 -15.960  0.00  0.00    +0.351 C 
BRANCH   9  10
ATOM     10  O   UNL     1      38.137 -23.561 -15.989  0.00  0.00    -0.476 OA
ATOM     11  H   UNL     1      37.843 -24.420 -15.759  0.00  0.00    +0.295 HD
ENDBRANCH   9  10
ENDBRANCH   6   9
BRANCH   3  12
ATOM     12  CA  UNL     1      32.653 -23.454 -16.751  0.00  0.00    +0.165 C 
BRANCH  12  14
ATOM     13  O   UNL     1      34.053 -23.549 -19.264  0.00  0.00    -0.275 OA
ATOM     14  N   UNL     1      32.688 -22.429 -17.755  0.00  0.00    -0.297 N 
ATOM     15  C   UNL     1      33.395 -22.560 -18.948  0.00  0.00    +0.228 C 
ATOM     16  H   UNL     1      32.191 -21.595 -17.595  0.00  0.00    +0.150 HD
BRANCH  15  17
ATOM     17  C   UNL     1      33.254 -21.332 -19.826  0.00  0.00    +0.118 C 
BRANCH  17  19
ATOM     18  S   UNL     1      34.596 -19.279 -21.138  0.00  0.00    -0.090 S 
ATOM     19  C   UNL     1      34.568 -20.657 -20.121  0.00  0.00    +0.016 C 
ATOM     20  C   UNL     1      35.825 -20.995 -19.674  0.00  0.00    +0.003 C 
ATOM     21  C   UNL     1      36.826 -20.111 -20.173  0.00  0.00    +0.007 C 
ATOM     22  C   UNL     1      36.294 -19.132 -20.982  0.00  0.00    +0.035 C 
ENDBRANCH  17  19
ENDBRANCH  15  17
ENDBRANCH  12  14
BRANCH  12  24
ATOM     23  O   UNL     1      30.604 -22.782 -15.663  0.00  0.00    -0.286 OA
ATOM     24  C   UNL     1      31.215 -23.618 -16.325  0.00  0.00    +0.229 C 
ENDBRANCH  12  24
ENDBRANCH   3  12
BRANCH   4  25
ATOM     25  C   UNL     1      37.299 -23.383 -13.098  0.00  0.00    +0.134 C 
BRANCH  25  27
ATOM     26  O   UNL     1      37.628 -25.256 -11.572  0.00  0.00    -0.250 OA
ATOM     27  C   UNL     1      37.637 -24.796 -12.705  0.00  0.00    +0.321 C 
BRANCH  27  28
ATOM     28  O   UNL     1      37.977 -25.477 -13.840  0.00  0.00    -0.444 OA
ATOM     29  C   UNL     1      37.347 -26.751 -14.007  0.00  0.00    +0.256 C 
ENDBRANCH  27  28
ENDBRANCH  25  27
ENDBRANCH   4  25
TORSDOF 10
ENDMDL
MODEL 3
REMARK VINA RESULT:      -8.9      8.053     11.979
REMARK  Name = 46936680
REMARK  10 active torsions:
REMARK  status: ('A' for Active; 'I' for Inactive)
REMARK    1  A    between atoms: C_3  and  CA_12
REMARK    2  A    between atoms: C_4  and  C_25
REMARK    3  A    between atoms: CA_6  and  C_9
REMARK    4  A    between atoms: C_9  and  O_10
REMARK    5  A    between atoms: CA_12  and  N_14
REMARK    6  A    between atoms: CA_12  and  C_24
REMARK    7  A    between atoms: C_15  and  C_17
REMARK    8  A    between atoms: C_17  and  C_19
REMARK    9  A    between atoms: C_25  and  C_27
REMARK   10  A    between atoms: C_27  and  O_28
REMARK                            x       y       z     vdW  Elec       q    Type
REMARK                         _______ _______ _______ _____ _____    ______ ____
ROOT
ATOM      1  S   UNL     1      35.229 -22.510 -14.861  0.00  0.00    -0.115 S 
ATOM      2  N   UNL     1      35.448 -24.961 -15.967  0.00  0.00    -0.319 N 
ATOM      3  C   UNL     1      35.060 -23.605 -16.305  0.00  0.00    +0.144 C 
ATOM      4  C   UNL     1      37.223 -24.433 -14.406  0.00  0.00    -0.003 C 
ATOM      5  C   UNL     1      36.934 -22.942 -14.414  0.00  0.00    +0.083 C 
ATOM      6  CA  UNL     1      36.488 -25.307 -15.129  0.00  0.00    +0.115 C 
ATOM      7  H   UNL     1      34.926 -25.693 -16.367  0.00  0.00    +0.148 HD
ENDROOT
BRANCH   6   9
ATOM      8  OXT UNL     1      36.973 -27.459 -16.018  0.00  0.00    -0.244 OA
ATOM      9  C   UNL     1      36.750 -26.756 -15.054  0.00  0.00    +0.351 C 
BRANCH   9  10
ATOM     10  O   UNL     1      36.700 -27.150 -13.768  0.00  0.00    -0.476 OA
ATOM     11  H   UNL     1      36.373 -26.567 -13.111  0.00  0.00    +0.295 HD
ENDBRANCH   9  10
ENDBRANCH   6   9
BRANCH   3  12
ATOM     12  CA  UNL     1      33.615 -23.587 -16.786  0.00  0.00    +0.165 C 
BRANCH  12  14
ATOM     13  O   UNL     1      34.080 -23.644 -19.625  0.00  0.00    -0.275 OA
ATOM     14  N   UNL     1      33.391 -22.517 -17.715  0.00  0.00    -0.297 N 
ATOM     15  C   UNL     1      33.645 -22.633 -19.079  0.00  0.00    +0.228 C 
ATOM     16  H   UNL     1      33.042 -21.662 -17.374  0.00  0.00    +0.150 HD
BRANCH  15  17
ATOM     17  C   UNL     1      33.312 -21.355 -19.826  0.00  0.00    +0.118 C 
BRANCH  17  19
ATOM     18  S   UNL     1      34.345 -19.161 -21.189  0.00  0.00    -0.090 S 
ATOM     19  C   UNL     1      34.530 -20.562 -20.221  0.00  0.00    +0.016 C 
ATOM     20  C   UNL     1      35.850 -20.803 -19.909  0.00  0.00    +0.003 C 
ATOM     21  C   UNL     1      36.720 -19.825 -20.471  0.00  0.00    +0.007 C 
ATOM     22  C   UNL     1      36.033 -18.874 -21.191  0.00  0.00    +0.035 C 
ENDBRANCH  17  19
ENDBRANCH  15  17
ENDBRANCH  12  14
BRANCH  12  24
ATOM     23  O   UNL     1      31.534 -22.903 -15.771  0.00  0.00    -0.286 OA
ATOM     24  C   UNL     1      32.649 -23.402 -15.642  0.00  0.00    +0.229 C 
ENDBRANCH  12  24
ENDBRANCH   3  12
BRANCH   4  25
ATOM     25  C   UNL     1      38.409 -24.785 -13.541  0.00  0.00    +0.134 C 
BRANCH  25  27
ATOM     26  O   UNL     1      38.805 -23.372 -11.592  0.00  0.00    -0.250 OA
ATOM     27  C   UNL     1      38.199 -24.285 -12.137  0.00  0.00    +0.321 C 
BRANCH  27  28
ATOM     28  O   UNL     1      37.220 -25.047 -11.563  0.00  0.00    -0.444 OA
ATOM     29  C   UNL     1      36.053 -24.335 -11.141  0.00  0.00    +0.256 C 
ENDBRANCH  27  28
ENDBRANCH  25  27
ENDBRANCH   4  25
TORSDOF 10
ENDMDL
MODEL 4
REMARK VINA RESULT:      -8.9     11.955     14.465
REMARK  Name = 46936680
REMARK  10 active torsions:
REMARK  status: ('A' for Active; 'I' for Inactive)
REMARK    1  A    between atoms: C_3  and  CA_12
REMARK    2  A    between atoms: C_4  and  C_25
REMARK    3  A    between atoms: CA_6  and  C_9
REMARK    4  A    between atoms: C_9  and  O_10
REMARK    5  A    between atoms: CA_12  and  N_14
REMARK    6  A    between atoms: CA_12  and  C_24
REMARK    7  A    between atoms: C_15  and  C_17
REMARK    8  A    between atoms: C_17  and  C_19
REMARK    9  A    between atoms: C_25  and  C_27
REMARK   10  A    between atoms: C_27  and  O_28
REMARK                            x       y       z     vdW  Elec       q    Type
REMARK                         _______ _______ _______ _____ _____    ______ ____
ROOT
ATOM      1  S   UNL     1      35.463 -24.714 -15.654  0.00  0.00    -0.115 S 
ATOM      2  N   UNL     1      34.498 -24.315 -13.167  0.00  0.00    -0.319 N 
ATOM      3  C   UNL     1      34.050 -24.630 -14.509  0.00  0.00    +0.144 C 
ATOM      4  C   UNL     1      36.604 -25.509 -13.215  0.00  0.00    -0.003 C 
ATOM      5  C   UNL     1      36.501 -25.851 -14.692  0.00  0.00    +0.083 C 
ATOM      6  CA  UNL     1      35.656 -24.784 -12.581  0.00  0.00    +0.115 C 
ATOM      7  H   UNL     1      33.929 -23.718 -12.629  0.00  0.00    +0.148 HD
ENDROOT
BRANCH   6   9
ATOM      8  OXT UNL     1      35.245 -24.972 -10.247  0.00  0.00    -0.244 OA
ATOM      9  C   UNL     1      35.811 -24.414 -11.163  0.00  0.00    +0.351 C 
BRANCH   9  10
ATOM     10  O   UNL     1      36.667 -23.379 -11.066  0.00  0.00    -0.476 OA
ATOM     11  H   UNL     1      37.260 -23.193 -11.767  0.00  0.00    +0.295 HD
ENDBRANCH   9  10
ENDBRANCH   6   9
BRANCH   3  12
ATOM     12  CA  UNL     1      33.074 -23.565 -14.990  0.00  0.00    +0.165 C 
BRANCH  12  14
ATOM     13  O   UNL     1      31.203 -23.917 -12.831  0.00  0.00    -0.275 OA
ATOM     14  N   UNL     1      31.740 -24.088 -15.084  0.00  0.00    -0.297 N 
ATOM     15  C   UNL     1      30.900 -24.224 -13.982  0.00  0.00    +0.228 C 
ATOM     16  H   UNL     1      31.403 -24.364 -15.967  0.00  0.00    +0.150 HD
BRANCH  15  17
ATOM     17  C   UNL     1      29.549 -24.795 -14.368  0.00  0.00    +0.118 C 
BRANCH  17  19
ATOM     18  S   UNL     1      28.391 -22.394 -15.160  0.00  0.00    -0.090 S 
ATOM     19  C   UNL     1      28.862 -24.014 -15.456  0.00  0.00    +0.016 C 
ATOM     20  C   UNL     1      28.531 -24.424 -16.729  0.00  0.00    +0.003 C 
ATOM     21  C   UNL     1      27.883 -23.395 -17.471  0.00  0.00    +0.007 C 
ATOM     22  C   UNL     1      27.743 -22.237 -16.738  0.00  0.00    +0.035 C 
ENDBRANCH  17  19
ENDBRANCH  15  17
ENDBRANCH  12  14
BRANCH  12  24
ATOM     23  O   UNL     1      32.659 -22.963 -17.292  0.00  0.00    -0.286 OA
ATOM     24  C   UNL     1      33.449 -23.039 -16.353  0.00  0.00    +0.229 C 
ENDBRANCH  12  24
ENDBRANCH   3  12
BRANCH   4  25
ATOM     25  C   UNL     1      37.840 -26.092 -12.576  0.00  0.00    +0.134 C 
BRANCH  25  27
ATOM     26  O   UNL     1      39.253 -24.105 -12.658  0.00  0.00    -0.250 OA
ATOM     27  C   UNL     1      39.053 -25.278 -12.942  0.00  0.00    +0.321 C 
BRANCH  27  28
ATOM     28  O   UNL     1      39.889 -26.077 -13.670  0.00  0.00    -0.444 OA
ATOM     29  C   UNL     1      40.334 -25.531 -14.916  0.00  0.00    +0.256 C 
ENDBRANCH  27  28
ENDBRANCH  25  27
ENDBRANCH   4  25
TORSDOF 10
ENDMDL
MODEL 5
REMARK VINA RESULT:      -8.7      7.955     12.390
REMARK  Name = 46936680
REMARK  10 active torsions:
REMARK  status: ('A' for Active; 'I' for Inactive)
REMARK    1  A    between atoms: C_3  and  CA_12
REMARK    2  A    between atoms: C_4  and  C_25
REMARK    3  A    between atoms: CA_6  and  C_9
REMARK    4  A    between atoms: C_9  and  O_10
REMARK    5  A    between atoms: CA_12  and  N_14
REMARK    6  A    between atoms: CA_12  and  C_24
REMARK    7  A    between atoms: C_15  and  C_17
REMARK    8  A    between atoms: C_17  and  C_19
REMARK    9  A    between atoms: C_25  and  C_27
REMARK   10  A    between atoms: C_27  and  O_28
REMARK                            x       y       z     vdW  Elec       q    Type
REMARK                         _______ _______ _______ _____ _____    ______ ____
ROOT
ATOM      1  S   UNL     1      36.950 -22.507 -16.075  0.00  0.00    -0.115 S 
ATOM      2  N   UNL     1      34.446 -22.943 -16.979  0.00  0.00    -0.319 N 
ATOM      3  C   UNL     1      35.153 -22.518 -15.787  0.00  0.00    +0.144 C 
ATOM      4  C   UNL     1      35.918 -21.950 -18.625  0.00  0.00    -0.003 C 
ATOM      5  C   UNL     1      36.956 -21.524 -17.600  0.00  0.00    +0.083 C 
ATOM      6  CA  UNL     1      34.796 -22.616 -18.273  0.00  0.00    +0.115 C 
ATOM      7  H   UNL     1      33.652 -23.512 -16.855  0.00  0.00    +0.148 HD
ENDROOT
BRANCH   6   9
ATOM      8  OXT UNL     1      33.916 -24.132 -19.879  0.00  0.00    -0.244 OA
ATOM      9  C   UNL     1      33.837 -23.071 -19.295  0.00  0.00    +0.351 C 
BRANCH   9  10
ATOM     10  O   UNL     1      32.886 -22.132 -19.462  0.00  0.00    -0.476 OA
ATOM     11  H   UNL     1      32.390 -22.104 -20.256  0.00  0.00    +0.295 HD
ENDBRANCH   9  10
ENDBRANCH   6   9
BRANCH   3  12
ATOM     12  CA  UNL     1      34.832 -23.461 -14.634  0.00  0.00    +0.165 C 
BRANCH  12  14
ATOM     13  O   UNL     1      32.758 -25.425 -14.287  0.00  0.00    -0.275 OA
ATOM     14  N   UNL     1      33.507 -23.233 -14.130  0.00  0.00    -0.297 N 
ATOM     15  C   UNL     1      32.563 -24.248 -13.996  0.00  0.00    +0.228 C 
ATOM     16  H   UNL     1      33.254 -22.319 -13.868  0.00  0.00    +0.150 HD
BRANCH  15  17
ATOM     17  C   UNL     1      31.253 -23.729 -13.434  0.00  0.00    +0.118 C 
BRANCH  17  19
ATOM     18  S   UNL     1      29.304 -24.942 -15.003  0.00  0.00    -0.090 S 
ATOM     19  C   UNL     1      30.180 -23.568 -14.478  0.00  0.00    +0.016 C 
ATOM     20  C   UNL     1      29.770 -22.418 -15.116  0.00  0.00    +0.003 C 
ATOM     21  C   UNL     1      28.722 -22.669 -16.048  0.00  0.00    +0.007 C 
ATOM     22  C   UNL     1      28.371 -24.000 -16.087  0.00  0.00    +0.035 C 
ENDBRANCH  17  19
ENDBRANCH  15  17
ENDBRANCH  12  14
BRANCH  12  24
ATOM     23  O   UNL     1      35.542 -23.636 -12.333  0.00  0.00    -0.286 OA
ATOM     24  C   UNL     1      35.790 -23.281 -13.483  0.00  0.00    +0.229 C 
ENDBRANCH  12  24
ENDBRANCH   3  12
BRANCH   4  25
ATOM     25  C   UNL     1      36.283 -21.520 -20.025  0.00  0.00    +0.134 C 
BRANCH  25  27
ATOM     26  O   UNL     1      36.657 -19.117 -20.220  0.00  0.00    -0.250 OA
ATOM     27  C   UNL     1      35.903 -20.080 -20.247  0.00  0.00    +0.321 C 
BRANCH  27  28
ATOM     28  O   UNL     1      34.554 -20.032 -20.467  0.00  0.00    -0.444 OA
ATOM     29  C   UNL     1      34.122 -19.073 -21.436  0.00  0.00    +0.256 C 
ENDBRANCH  27  28
ENDBRANCH  25  27
ENDBRANCH   4  25
TORSDOF 10
ENDMDL
MODEL 6
REMARK VINA RESULT:      -8.7      1.782      2.205
REMARK  Name = 46936680
REMARK  10 active torsions:
REMARK  status: ('A' for Active; 'I' for Inactive)
REMARK    1  A    between atoms: C_3  and  CA_12
REMARK    2  A    between atoms: C_4  and  C_25
REMARK    3  A    between atoms: CA_6  and  C_9
REMARK    4  A    between atoms: C_9  and  O_10
REMARK    5  A    between atoms: CA_12  and  N_14
REMARK    6  A    between atoms: CA_12  and  C_24
REMARK    7  A    between atoms: C_15  and  C_17
REMARK    8  A    between atoms: C_17  and  C_19
REMARK    9  A    between atoms: C_25  and  C_27
REMARK   10  A    between atoms: C_27  and  O_28
REMARK                            x       y       z     vdW  Elec       q    Type
REMARK                         _______ _______ _______ _____ _____    ______ ____
ROOT
ATOM      1  S   UNL     1      33.683 -14.855 -21.618  0.00  0.00    -0.115 S 
ATOM      2  N   UNL     1      34.437 -15.922 -23.979  0.00  0.00    -0.319 N 
ATOM      3  C   UNL     1      34.485 -14.674 -23.242  0.00  0.00    +0.144 C 
ATOM      4  C   UNL     1      34.669 -17.438 -22.105  0.00  0.00    -0.003 C 
ATOM      5  C   UNL     1      34.570 -16.338 -21.062  0.00  0.00    +0.083 C 
ATOM      6  CA  UNL     1      34.581 -17.179 -23.429  0.00  0.00    +0.115 C 
ATOM      7  H   UNL     1      34.289 -15.868 -24.950  0.00  0.00    +0.148 HD
ENDROOT
BRANCH   6   9
ATOM      8  OXT UNL     1      35.013 -19.395 -24.175  0.00  0.00    -0.244 OA
ATOM      9  C   UNL     1      34.619 -18.273 -24.415  0.00  0.00    +0.351 C 
BRANCH   9  10
ATOM     10  O   UNL     1      34.154 -17.822 -25.596  0.00  0.00    -0.476 OA
ATOM     11  H   UNL     1      33.933 -16.917 -25.698  0.00  0.00    +0.295 HD
ENDBRANCH   9  10
ENDBRANCH   6   9
BRANCH   3  12
ATOM     12  CA  UNL     1      33.780 -13.581 -24.034  0.00  0.00    +0.165 C 
BRANCH  12  14
ATOM     13  O   UNL     1      33.584 -10.712 -23.930  0.00  0.00    -0.275 OA
ATOM     14  N   UNL     1      32.911 -12.809 -23.193  0.00  0.00    -0.297 N 
ATOM     15  C   UNL     1      32.882 -11.417 -23.209  0.00  0.00    +0.228 C 
ATOM     16  H   UNL     1      32.308 -13.283 -22.577  0.00  0.00    +0.150 HD
BRANCH  15  17
ATOM     17  C   UNL     1      31.868 -10.862 -22.226  0.00  0.00    +0.118 C 
BRANCH  17  19
ATOM     18  S   UNL     1      32.375  -8.452 -20.933  0.00  0.00    -0.090 S 
ATOM     19  C   UNL     1      31.772  -9.359 -22.255  0.00  0.00    +0.016 C 
ATOM     20  C   UNL     1      31.242  -8.552 -23.237  0.00  0.00    +0.003 C 
ATOM     21  C   UNL     1      31.331  -7.171 -22.900  0.00  0.00    +0.007 C 
ATOM     22  C   UNL     1      31.927  -6.975 -21.674  0.00  0.00    +0.035 C 
ENDBRANCH  17  19
ENDBRANCH  15  17
ENDBRANCH  12  14
BRANCH  12  24
ATOM     23  O   UNL     1      33.383 -14.429 -26.260  0.00  0.00    -0.286 OA
ATOM     24  C   UNL     1      32.939 -14.153 -25.148  0.00  0.00    +0.229 C 
ENDBRANCH  12  24
ENDBRANCH   3  12
BRANCH   4  25
ATOM     25  C   UNL     1      34.899 -18.796 -21.488  0.00  0.00    +0.134 C 
BRANCH  25  27
ATOM     26  O   UNL     1      37.312 -18.644 -21.807  0.00  0.00    -0.250 OA
ATOM     27  C   UNL     1      36.350 -18.968 -21.125  0.00  0.00    +0.321 C 
BRANCH  27  28
ATOM     28  O   UNL     1      36.407 -19.571 -19.899  0.00  0.00    -0.444 OA
ATOM     29  C   UNL     1      36.402 -21.001 -19.915  0.00  0.00    +0.256 C 
ENDBRANCH  27  28
ENDBRANCH  25  27
ENDBRANCH   4  25
TORSDOF 10
ENDMDL
MODEL 7
REMARK VINA RESULT:      -8.6      7.919     12.050
REMARK  Name = 46936680
REMARK  10 active torsions:
REMARK  status: ('A' for Active; 'I' for Inactive)
REMARK    1  A    between atoms: C_3  and  CA_12
REMARK    2  A    between atoms: C_4  and  C_25
REMARK    3  A    between atoms: CA_6  and  C_9
REMARK    4  A    between atoms: C_9  and  O_10
REMARK    5  A    between atoms: CA_12  and  N_14
REMARK    6  A    between atoms: CA_12  and  C_24
REMARK    7  A    between atoms: C_15  and  C_17
REMARK    8  A    between atoms: C_17  and  C_19
REMARK    9  A    between atoms: C_25  and  C_27
REMARK   10  A    between atoms: C_27  and  O_28
REMARK                            x       y       z     vdW  Elec       q    Type
REMARK                         _______ _______ _______ _____ _____    ______ ____
ROOT
ATOM      1  S   UNL     1      34.141 -23.362 -16.491  0.00  0.00    -0.115 S 
ATOM      2  N   UNL     1      35.576 -23.279 -14.208  0.00  0.00    -0.319 N 
ATOM      3  C   UNL     1      35.289 -22.483 -15.385  0.00  0.00    +0.144 C 
ATOM      4  C   UNL     1      33.403 -24.318 -13.956  0.00  0.00    -0.003 C 
ATOM      5  C   UNL     1      32.865 -23.762 -15.263  0.00  0.00    +0.083 C 
ATOM      6  CA  UNL     1      34.666 -24.072 -13.540  0.00  0.00    +0.115 C 
ATOM      7  H   UNL     1      36.495 -23.251 -13.856  0.00  0.00    +0.148 HD
ENDROOT
BRANCH   6   9
ATOM      8  OXT UNL     1      34.896 -24.293 -11.184  0.00  0.00    -0.244 OA
ATOM      9  C   UNL     1      35.182 -24.676 -12.299  0.00  0.00    +0.351 C 
BRANCH   9  10
ATOM     10  O   UNL     1      36.002 -25.698 -12.610  0.00  0.00    -0.476 OA
ATOM     11  H   UNL     1      35.660 -26.567 -12.685  0.00  0.00    +0.295 HD
ENDBRANCH   9  10
ENDBRANCH   6   9
BRANCH   3  12
ATOM     12  CA  UNL     1      36.582 -22.187 -16.133  0.00  0.00    +0.165 C 
BRANCH  12  14
ATOM     13  O   UNL     1      37.440 -20.134 -17.959  0.00  0.00    -0.275 OA
ATOM     14  N   UNL     1      36.365 -22.152 -17.552  0.00  0.00    -0.297 N 
ATOM     15  C   UNL     1      36.818 -21.114 -18.362  0.00  0.00    +0.228 C 
ATOM     16  H   UNL     1      35.874 -22.895 -17.971  0.00  0.00    +0.150 HD
BRANCH  15  17
ATOM     17  C   UNL     1      36.456 -21.336 -19.818  0.00  0.00    +0.118 C 
BRANCH  17  19
ATOM     18  S   UNL     1      35.227 -19.257 -21.196  0.00  0.00    -0.090 S 
ATOM     19  C   UNL     1      35.171 -20.664 -20.222  0.00  0.00    +0.016 C 
ATOM     20  C   UNL     1      33.879 -21.026 -19.910  0.00  0.00    +0.003 C 
ATOM     21  C   UNL     1      32.922 -20.136 -20.479  0.00  0.00    +0.007 C 
ATOM     22  C   UNL     1      33.519 -19.128 -21.203  0.00  0.00    +0.035 C 
ENDBRANCH  17  19
ENDBRANCH  15  17
ENDBRANCH  12  14
BRANCH  12  24
ATOM     23  O   UNL     1      38.244 -23.323 -14.801  0.00  0.00    -0.286 OA
ATOM     24  C   UNL     1      37.636 -23.233 -15.864  0.00  0.00    +0.229 C 
ENDBRANCH  12  24
ENDBRANCH   3  12
BRANCH   4  25
ATOM     25  C   UNL     1      32.371 -25.123 -13.206  0.00  0.00    +0.134 C 
BRANCH  25  27
ATOM     26  O   UNL     1      30.523 -23.552 -12.946  0.00  0.00    -0.250 OA
ATOM     27  C   UNL     1      30.994 -24.564 -13.446  0.00  0.00    +0.321 C 
BRANCH  27  28
ATOM     28  O   UNL     1      30.348 -25.401 -14.313  0.00  0.00    -0.444 OA
ATOM     29  C   UNL     1      29.171 -24.865 -14.926  0.00  0.00    +0.256 C 
ENDBRANCH  27  28
ENDBRANCH  25  27
ENDBRANCH   4  25
TORSDOF 10
ENDMDL
MODEL 8
REMARK VINA RESULT:      -8.5      2.350      8.879
REMARK  Name = 46936680
REMARK  10 active torsions:
REMARK  status: ('A' for Active; 'I' for Inactive)
REMARK    1  A    between atoms: C_3  and  CA_12
REMARK    2  A    between atoms: C_4  and  C_25
REMARK    3  A    between atoms: CA_6  and  C_9
REMARK    4  A    between atoms: C_9  and  O_10
REMARK    5  A    between atoms: CA_12  and  N_14
REMARK    6  A    between atoms: CA_12  and  C_24
REMARK    7  A    between atoms: C_15  and  C_17
REMARK    8  A    between atoms: C_17  and  C_19
REMARK    9  A    between atoms: C_25  and  C_27
REMARK   10  A    between atoms: C_27  and  O_28
REMARK                            x       y       z     vdW  Elec       q    Type
REMARK                         _______ _______ _______ _____ _____    ______ ____
ROOT
ATOM      1  S   UNL     1      33.673 -12.062 -25.155  0.00  0.00    -0.115 S 
ATOM      2  N   UNL     1      32.617 -12.921 -22.825  0.00  0.00    -0.319 N 
ATOM      3  C   UNL     1      33.600 -13.299 -23.821  0.00  0.00    +0.144 C 
ATOM      4  C   UNL     1      32.925 -10.521 -22.930  0.00  0.00    -0.003 C 
ATOM      5  C   UNL     1      33.869 -10.585 -24.118  0.00  0.00    +0.083 C 
ATOM      6  CA  UNL     1      32.370 -11.633 -22.397  0.00  0.00    +0.115 C 
ATOM      7  H   UNL     1      32.081 -13.642 -22.422  0.00  0.00    +0.148 HD
ENDROOT
BRANCH   6   9
ATOM      8  OXT UNL     1      31.716 -11.586 -20.112  0.00  0.00    -0.244 OA
ATOM      9  C   UNL     1      31.409 -11.536 -21.285  0.00  0.00    +0.351 C 
BRANCH   9  10
ATOM     10  O   UNL     1      30.166 -11.389 -21.783  0.00  0.00    -0.476 OA
ATOM     11  H   UNL     1      30.047 -11.146 -22.680  0.00  0.00    +0.295 HD
ENDBRANCH   9  10
ENDBRANCH   6   9
BRANCH   3  12
ATOM     12  CA  UNL     1      33.239 -14.656 -24.411  0.00  0.00    +0.165 C 
BRANCH  12  14
ATOM     13  O   UNL     1      33.665 -15.848 -21.827  0.00  0.00    -0.275 OA
ATOM     14  N   UNL     1      34.221 -15.647 -24.073  0.00  0.00    -0.297 N 
ATOM     15  C   UNL     1      34.357 -16.171 -22.789  0.00  0.00    +0.228 C 
ATOM     16  H   UNL     1      34.826 -15.971 -24.778  0.00  0.00    +0.150 HD
BRANCH  15  17
ATOM     17  C   UNL     1      35.467 -17.202 -22.716  0.00  0.00    +0.118 C 
BRANCH  17  19
ATOM     18  S   UNL     1      36.352 -19.179 -20.971  0.00  0.00    -0.090 S 
ATOM     19  C   UNL     1      35.118 -18.391 -21.860  0.00  0.00    +0.016 C 
ATOM     20  C   UNL     1      33.888 -18.980 -21.670  0.00  0.00    +0.003 C 
ATOM     21  C   UNL     1      33.959 -20.093 -20.783  0.00  0.00    +0.007 C 
ATOM     22  C   UNL     1      35.240 -20.312 -20.329  0.00  0.00    +0.035 C 
ENDBRANCH  17  19
ENDBRANCH  15  17
ENDBRANCH  12  14
BRANCH  12  24
ATOM     23  O   UNL     1      33.541 -15.510 -26.650  0.00  0.00    -0.286 OA
ATOM     24  C   UNL     1      33.151 -14.605 -25.916  0.00  0.00    +0.229 C 
ENDBRANCH  12  24
ENDBRANCH   3  12
BRANCH   4  25
ATOM     25  C   UNL     1      32.724  -9.111 -22.431  0.00  0.00    +0.134 C 
BRANCH  25  27
ATOM     26  O   UNL     1      30.544  -8.687 -23.440  0.00  0.00    -0.250 OA
ATOM     27  C   UNL     1      31.721  -8.389 -23.290  0.00  0.00    +0.321 C 
BRANCH  27  28
ATOM     28  O   UNL     1      32.363  -7.343 -23.894  0.00  0.00    -0.444 OA
ATOM     29  C   UNL     1      31.515  -6.306 -24.395  0.00  0.00    +0.256 C 
ENDBRANCH  27  28
ENDBRANCH  25  27
ENDBRANCH   4  25
TORSDOF 10
ENDMDL
MODEL 9
REMARK VINA RESULT:      -8.5      2.341      8.644
REMARK  Name = 46936680
REMARK  10 active torsions:
REMARK  status: ('A' for Active; 'I' for Inactive)
REMARK    1  A    between atoms: C_3  and  CA_12
REMARK    2  A    between atoms: C_4  and  C_25
REMARK    3  A    between atoms: CA_6  and  C_9
REMARK    4  A    between atoms: C_9  and  O_10
REMARK    5  A    between atoms: CA_12  and  N_14
REMARK    6  A    between atoms: CA_12  and  C_24
REMARK    7  A    between atoms: C_15  and  C_17
REMARK    8  A    between atoms: C_17  and  C_19
REMARK    9  A    between atoms: C_25  and  C_27
REMARK   10  A    between atoms: C_27  and  O_28
REMARK                            x       y       z     vdW  Elec       q    Type
REMARK                         _______ _______ _______ _____ _____    ______ ____
ROOT
ATOM      1  S   UNL     1      32.658 -13.257 -21.118  0.00  0.00    -0.115 S 
ATOM      2  N   UNL     1      34.093 -13.120 -23.398  0.00  0.00    -0.319 N 
ATOM      3  C   UNL     1      33.429 -14.085 -22.544  0.00  0.00    +0.144 C 
ATOM      4  C   UNL     1      32.547 -11.279 -23.107  0.00  0.00    -0.003 C 
ATOM      5  C   UNL     1      31.740 -11.984 -22.030  0.00  0.00    +0.083 C 
ATOM      6  CA  UNL     1      33.629 -11.852 -23.680  0.00  0.00    +0.115 C 
ATOM      7  H   UNL     1      34.945 -13.392 -23.809  0.00  0.00    +0.148 HD
ENDROOT
BRANCH   6   9
ATOM      8  OXT UNL     1      34.311 -11.254 -25.878  0.00  0.00    -0.244 OA
ATOM      9  C   UNL     1      34.430 -11.121 -24.678  0.00  0.00    +0.351 C 
BRANCH   9  10
ATOM     10  O   UNL     1      35.292 -10.304 -24.043  0.00  0.00    -0.476 OA
ATOM     11  H   UNL     1      35.695 -10.579 -23.243  0.00  0.00    +0.295 HD
ENDBRANCH   9  10
ENDBRANCH   6   9
BRANCH   3  12
ATOM     12  CA  UNL     1      34.437 -15.112 -22.046  0.00  0.00    +0.165 C 
BRANCH  12  14
ATOM     13  O   UNL     1      36.072 -17.378 -22.736  0.00  0.00    -0.275 OA
ATOM     14  N   UNL     1      33.987 -16.450 -22.306  0.00  0.00    -0.297 N 
ATOM     15  C   UNL     1      34.852 -17.490 -22.635  0.00  0.00    +0.228 C 
ATOM     16  H   UNL     1      33.023 -16.642 -22.250  0.00  0.00    +0.150 HD
BRANCH  15  17
ATOM     17  C   UNL     1      34.110 -18.795 -22.851  0.00  0.00    +0.118 C 
BRANCH  17  19
ATOM     18  S   UNL     1      35.447 -20.226 -20.876  0.00  0.00    -0.090 S 
ATOM     19  C   UNL     1      34.014 -19.638 -21.607  0.00  0.00    +0.016 C 
ATOM     20  C   UNL     1      32.885 -20.035 -20.925  0.00  0.00    +0.003 C 
ATOM     21  C   UNL     1      33.201 -20.832 -19.786  0.00  0.00    +0.007 C 
ATOM     22  C   UNL     1      34.558 -21.014 -19.642  0.00  0.00    +0.035 C 
ENDBRANCH  17  19
ENDBRANCH  15  17
ENDBRANCH  12  14
BRANCH  12  24
ATOM     23  O   UNL     1      34.997 -15.940 -19.848  0.00  0.00    -0.286 OA
ATOM     24  C   UNL     1      34.666 -14.995 -20.559  0.00  0.00    +0.229 C 
ENDBRANCH  12  24
ENDBRANCH   3  12
BRANCH   4  25
ATOM     25  C   UNL     1      31.981  -9.924 -23.454  0.00  0.00    +0.134 C 
BRANCH  25  27
ATOM     26  O   UNL     1      33.625  -8.277 -22.725  0.00  0.00    -0.250 OA
ATOM     27  C   UNL     1      32.567  -8.866 -22.557  0.00  0.00    +0.321 C 
BRANCH  27  28
ATOM     28  O   UNL     1      31.713  -8.690 -21.504  0.00  0.00    -0.444 OA
ATOM     29  C   UNL     1      32.334  -8.392 -20.250  0.00  0.00    +0.256 C 
ENDBRANCH  27  28
ENDBRANCH  25  27
ENDBRANCH   4  25
TORSDOF 10
ENDMDL
