MODEL 1
REMARK VINA RESULT:     -10.2      0.000      0.000
REMARK  Name = 5289090
REMARK  6 active torsions:
REMARK  status: ('A' for Active; 'I' for Inactive)
REMARK    1  A    between atoms: C_1  and  C_6
REMARK    2  A    between atoms: C_2  and  C_13
REMARK    3  A    between atoms: C_15  and  C_16
REMARK    4  A    between atoms: C_17  and  C_18
REMARK    5  A    between atoms: C_20  and  C_21
REMARK    6  A    between atoms: C_21  and  O_22
REMARK                            x       y       z     vdW  Elec       q    Type
REMARK                         _______ _______ _______ _____ _____    ______ ____
ROOT
ATOM      1  C   UNL     1      34.765 -18.229 -21.197  0.00  0.00    -0.005 C 
ATOM      2  C   UNL     1      34.061 -19.370 -21.146  0.00  0.00    -0.005 C 
ENDROOT
BRANCH   1   6
ATOM      3  O   UNL     1      34.678 -16.591 -25.740  0.00  0.00    -0.292 OA
ATOM      4  C   UNL     1      34.065 -15.843 -21.671  0.00  0.00    +0.019 C 
ATOM      5  C   UNL     1      34.327 -14.731 -22.713  0.00  0.00    +0.012 C 
ATOM      6  C   UNL     1      34.549 -17.207 -22.209  0.00  0.00    -0.024 C 
ATOM      7  C   UNL     1      33.833 -15.101 -24.094  0.00  0.00    +0.069 C 
ATOM      8  C   UNL     1      32.557 -15.919 -21.352  0.00  0.00    +0.004 C 
ATOM      9  C   UNL     1      34.816 -15.405 -20.388  0.00  0.00    +0.004 C 
ATOM     10  C   UNL     1      34.757 -17.459 -23.524  0.00  0.00    +0.009 C 
ATOM     11  C   UNL     1      34.462 -16.392 -24.545  0.00  0.00    +0.169 C 
ATOM     12  C   UNL     1      35.228 -18.755 -24.134  0.00  0.00    +0.034 C 
ENDBRANCH   1   6
BRANCH   2  13
ATOM     13  C   UNL     1      34.213 -20.450 -20.165  0.00  0.00    -0.022 C 
ATOM     14  C   UNL     1      32.949 -21.058 -19.609  0.00  0.00    +0.031 C 
ATOM     15  C   UNL     1      35.463 -20.831 -19.822  0.00  0.00    -0.004 C 
BRANCH  15  16
ATOM     16  C   UNL     1      35.850 -21.868 -18.882  0.00  0.00    -0.001 C 
ATOM     17  C   UNL     1      35.955 -21.643 -17.561  0.00  0.00    -0.005 C 
BRANCH  17  18
ATOM     18  C   UNL     1      36.336 -22.617 -16.533  0.00  0.00    -0.024 C 
ATOM     19  C   UNL     1      37.789 -22.683 -16.141  0.00  0.00    +0.031 C 
ATOM     20  C   UNL     1      35.373 -23.394 -15.995  0.00  0.00    +0.001 C 
BRANCH  20  21
ATOM     21  C   UNL     1      35.505 -24.452 -14.944  0.00  0.00    +0.163 C 
BRANCH  21  22
ATOM     22  O   UNL     1      35.903 -25.665 -15.573  0.00  0.00    -0.377 OA
ATOM     23  H   UNL     1      36.847 -25.623 -15.787  0.00  0.00    +0.211 HD
ENDBRANCH  21  22
ENDBRANCH  20  21
ENDBRANCH  17  18
ENDBRANCH  15  16
ENDBRANCH   2  13
TORSDOF 6
ENDMDL
MODEL 2
REMARK VINA RESULT:      -9.7      2.055      2.508
REMARK  Name = 5289090
REMARK  6 active torsions:
REMARK  status: ('A' for Active; 'I' for Inactive)
REMARK    1  A    between atoms: C_1  and  C_6
REMARK    2  A    between atoms: C_2  and  C_13
REMARK    3  A    between atoms: C_15  and  C_16
REMARK    4  A    between atoms: C_17  and  C_18
REMARK    5  A    between atoms: C_20  and  C_21
REMARK    6  A    between atoms: C_21  and  O_22
REMARK                            x       y       z     vdW  Elec       q    Type
REMARK                         _______ _______ _______ _____ _____    ______ ____
ROOT
ATOM      1  C   UNL     1      34.779 -18.025 -21.379  0.00  0.00    -0.005 C 
ATOM      2  C   UNL     1      34.163 -19.217 -21.343  0.00  0.00    -0.005 C 
ENDROOT
BRANCH   1   6
ATOM      3  O   UNL     1      34.295 -16.287 -25.860  0.00  0.00    -0.292 OA
ATOM      4  C   UNL     1      33.955 -15.659 -21.738  0.00  0.00    +0.019 C 
ATOM      5  C   UNL     1      34.096 -14.513 -22.767  0.00  0.00    +0.012 C 
ATOM      6  C   UNL     1      34.450 -16.989 -22.345  0.00  0.00    -0.024 C 
ATOM      7  C   UNL     1      33.516 -14.872 -24.118  0.00  0.00    +0.069 C 
ATOM      8  C   UNL     1      32.478 -15.804 -21.313  0.00  0.00    +0.004 C 
ATOM      9  C   UNL     1      34.780 -15.221 -20.502  0.00  0.00    +0.004 C 
ATOM     10  C   UNL     1      34.570 -17.203 -23.678  0.00  0.00    +0.009 C 
ATOM     11  C   UNL     1      34.160 -16.125 -24.647  0.00  0.00    +0.169 C 
ATOM     12  C   UNL     1      35.045 -18.464 -24.354  0.00  0.00    +0.034 C 
ENDBRANCH   1   6
BRANCH   2  13
ATOM     13  C   UNL     1      34.431 -20.313 -20.406  0.00  0.00    -0.022 C 
ATOM     14  C   UNL     1      35.876 -20.666 -20.155  0.00  0.00    +0.031 C 
ATOM     15  C   UNL     1      33.378 -20.935 -19.830  0.00  0.00    -0.004 C 
BRANCH  15  16
ATOM     16  C   UNL     1      33.404 -22.033 -18.882  0.00  0.00    -0.001 C 
ATOM     17  C   UNL     1      32.545 -22.118 -17.851  0.00  0.00    -0.005 C 
BRANCH  17  18
ATOM     18  C   UNL     1      32.488 -23.181 -16.843  0.00  0.00    -0.024 C 
ATOM     19  C   UNL     1      33.769 -23.906 -16.522  0.00  0.00    +0.031 C 
ATOM     20  C   UNL     1      31.302 -23.449 -16.257  0.00  0.00    +0.001 C 
BRANCH  20  21
ATOM     21  C   UNL     1      30.986 -24.474 -15.213  0.00  0.00    +0.163 C 
BRANCH  21  22
ATOM     22  O   UNL     1      29.956 -25.322 -15.710  0.00  0.00    -0.377 OA
ATOM     23  H   UNL     1      29.540 -24.906 -16.481  0.00  0.00    +0.211 HD
ENDBRANCH  21  22
ENDBRANCH  20  21
ENDBRANCH  17  18
ENDBRANCH  15  16
ENDBRANCH   2  13
TORSDOF 6
ENDMDL
MODEL 3
REMARK VINA RESULT:      -9.2      5.214     11.180
REMARK  Name = 5289090
REMARK  6 active torsions:
REMARK  status: ('A' for Active; 'I' for Inactive)
REMARK    1  A    between atoms: C_1  and  C_6
REMARK    2  A    between atoms: C_2  and  C_13
REMARK    3  A    between atoms: C_15  and  C_16
REMARK    4  A    between atoms: C_17  and  C_18
REMARK    5  A    between atoms: C_20  and  C_21
REMARK    6  A    between atoms: C_21  and  O_22
REMARK                            x       y       z     vdW  Elec       q    Type
REMARK                         _______ _______ _______ _____ _____    ______ ____
ROOT
ATOM      1  C   UNL     1      33.359 -14.361 -23.511  0.00  0.00    -0.005 C 
ATOM      2  C   UNL     1      34.083 -13.233 -23.568  0.00  0.00    -0.005 C 
ENDROOT
BRANCH   1   6
ATOM      3  O   UNL     1      35.546 -18.658 -23.805  0.00  0.00    -0.292 OA
ATOM      4  C   UNL     1      33.680 -15.765 -21.430  0.00  0.00    +0.019 C 
ATOM      5  C   UNL     1      33.797 -17.253 -21.027  0.00  0.00    +0.012 C 
ATOM      6  C   UNL     1      33.867 -15.605 -22.953  0.00  0.00    -0.024 C 
ATOM      7  C   UNL     1      35.026 -17.917 -21.609  0.00  0.00    +0.069 C 
ATOM      8  C   UNL     1      34.751 -14.935 -20.688  0.00  0.00    +0.004 C 
ATOM      9  C   UNL     1      32.282 -15.305 -20.946  0.00  0.00    +0.004 C 
ATOM     10  C   UNL     1      34.464 -16.537 -23.734  0.00  0.00    +0.009 C 
ATOM     11  C   UNL     1      35.032 -17.783 -23.108  0.00  0.00    +0.169 C 
ATOM     12  C   UNL     1      34.685 -16.464 -25.224  0.00  0.00    +0.034 C 
ENDBRANCH   1   6
BRANCH   2  13
ATOM     13  C   UNL     1      33.651 -11.941 -24.111  0.00  0.00    -0.022 C 
ATOM     14  C   UNL     1      33.853 -11.713 -25.589  0.00  0.00    +0.031 C 
ATOM     15  C   UNL     1      33.103 -11.042 -23.264  0.00  0.00    -0.004 C 
BRANCH  15  16
ATOM     16  C   UNL     1      32.607  -9.714 -23.575  0.00  0.00    -0.001 C 
ATOM     17  C   UNL     1      33.110  -8.603 -23.009  0.00  0.00    -0.005 C 
BRANCH  17  18
ATOM     18  C   UNL     1      32.682  -7.223 -23.255  0.00  0.00    -0.024 C 
ATOM     19  C   UNL     1      33.323  -6.489 -24.405  0.00  0.00    +0.031 C 
ATOM     20  C   UNL     1      31.742  -6.687 -22.447  0.00  0.00    +0.001 C 
BRANCH  20  21
ATOM     21  C   UNL     1      31.146  -5.315 -22.490  0.00  0.00    +0.163 C 
BRANCH  21  22
ATOM     22  O   UNL     1      30.534  -5.050 -21.233  0.00  0.00    -0.377 OA
ATOM     23  H   UNL     1      31.089  -5.405 -20.522  0.00  0.00    +0.211 HD
ENDBRANCH  21  22
ENDBRANCH  20  21
ENDBRANCH  17  18
ENDBRANCH  15  16
ENDBRANCH   2  13
TORSDOF 6
ENDMDL
MODEL 4
REMARK VINA RESULT:      -9.1      5.826     11.861
REMARK  Name = 5289090
REMARK  6 active torsions:
REMARK  status: ('A' for Active; 'I' for Inactive)
REMARK    1  A    between atoms: C_1  and  C_6
REMARK    2  A    between atoms: C_2  and  C_13
REMARK    3  A    between atoms: C_15  and  C_16
REMARK    4  A    between atoms: C_17  and  C_18
REMARK    5  A    between atoms: C_20  and  C_21
REMARK    6  A    between atoms: C_21  and  O_22
REMARK                            x       y       z     vdW  Elec       q    Type
REMARK                         _______ _______ _______ _____ _____    ______ ____
ROOT
ATOM      1  C   UNL     1      32.352 -13.614 -22.905  0.00  0.00    -0.005 C 
ATOM      2  C   UNL     1      32.834 -12.373 -22.736  0.00  0.00    -0.005 C 
ENDROOT
BRANCH   1   6
ATOM      3  O   UNL     1      34.790 -16.683 -25.728  0.00  0.00    -0.292 OA
ATOM      4  C   UNL     1      33.665 -15.515 -21.872  0.00  0.00    +0.019 C 
ATOM      5  C   UNL     1      34.131 -16.947 -22.229  0.00  0.00    +0.012 C 
ATOM      6  C   UNL     1      33.202 -14.770 -23.142  0.00  0.00    -0.024 C 
ATOM      7  C   UNL     1      35.100 -16.969 -23.391  0.00  0.00    +0.069 C 
ATOM      8  C   UNL     1      34.822 -14.737 -21.209  0.00  0.00    +0.004 C 
ATOM      9  C   UNL     1      32.530 -15.687 -20.832  0.00  0.00    +0.004 C 
ATOM     10  C   UNL     1      33.555 -15.142 -24.397  0.00  0.00    +0.009 C 
ATOM     11  C   UNL     1      34.487 -16.308 -24.595  0.00  0.00    +0.169 C 
ATOM     12  C   UNL     1      33.149 -14.476 -25.686  0.00  0.00    +0.034 C 
ENDBRANCH   1   6
BRANCH   2  13
ATOM     13  C   UNL     1      32.052 -11.155 -22.493  0.00  0.00    -0.022 C 
ATOM     14  C   UNL     1      30.919 -11.251 -21.501  0.00  0.00    +0.031 C 
ATOM     15  C   UNL     1      32.390 -10.033 -23.165  0.00  0.00    -0.004 C 
BRANCH  15  16
ATOM     16  C   UNL     1      31.766  -8.726 -23.083  0.00  0.00    -0.001 C 
ATOM     17  C   UNL     1      32.454  -7.614 -22.770  0.00  0.00    -0.005 C 
BRANCH  17  18
ATOM     18  C   UNL     1      31.918  -6.253 -22.663  0.00  0.00    -0.024 C 
ATOM     19  C   UNL     1      31.372  -5.822 -21.327  0.00  0.00    +0.031 C 
ATOM     20  C   UNL     1      31.947  -5.462 -23.757  0.00  0.00    +0.001 C 
BRANCH  20  21
ATOM     21  C   UNL     1      31.467  -4.052 -23.903  0.00  0.00    +0.163 C 
BRANCH  21  22
ATOM     22  O   UNL     1      30.371  -4.041 -24.811  0.00  0.00    -0.377 OA
ATOM     23  H   UNL     1      30.700  -4.163 -25.715  0.00  0.00    +0.211 HD
ENDBRANCH  21  22
ENDBRANCH  20  21
ENDBRANCH  17  18
ENDBRANCH  15  16
ENDBRANCH   2  13
TORSDOF 6
ENDMDL
MODEL 5
REMARK VINA RESULT:      -9.1      2.657     10.417
REMARK  Name = 5289090
REMARK  6 active torsions:
REMARK  status: ('A' for Active; 'I' for Inactive)
REMARK    1  A    between atoms: C_1  and  C_6
REMARK    2  A    between atoms: C_2  and  C_13
REMARK    3  A    between atoms: C_15  and  C_16
REMARK    4  A    between atoms: C_17  and  C_18
REMARK    5  A    between atoms: C_20  and  C_21
REMARK    6  A    between atoms: C_21  and  O_22
REMARK                            x       y       z     vdW  Elec       q    Type
REMARK                         _______ _______ _______ _____ _____    ______ ____
ROOT
ATOM      1  C   UNL     1      35.421 -23.468 -15.214  0.00  0.00    -0.005 C 
ATOM      2  C   UNL     1      34.347 -23.910 -15.884  0.00  0.00    -0.005 C 
ENDROOT
BRANCH   1   6
ATOM      3  O   UNL     1      35.751 -25.241 -10.733  0.00  0.00    -0.292 OA
ATOM      4  C   UNL     1      37.390 -24.921 -14.568  0.00  0.00    +0.019 C 
ATOM      5  C   UNL     1      38.219 -25.281 -13.313  0.00  0.00    +0.012 C 
ATOM      6  C   UNL     1      36.070 -24.232 -14.160  0.00  0.00    -0.024 C 
ATOM      7  C   UNL     1      37.401 -26.001 -12.263  0.00  0.00    +0.069 C 
ATOM      8  C   UNL     1      37.076 -26.201 -15.373  0.00  0.00    +0.004 C 
ATOM      9  C   UNL     1      38.300 -24.011 -15.430  0.00  0.00    +0.004 C 
ATOM     10  C   UNL     1      35.533 -24.323 -12.919  0.00  0.00    +0.009 C 
ATOM     11  C   UNL     1      36.205 -25.175 -11.876  0.00  0.00    +0.169 C 
ATOM     12  C   UNL     1      34.256 -23.683 -12.437  0.00  0.00    +0.034 C 
ENDBRANCH   1   6
BRANCH   2  13
ATOM     13  C   UNL     1      33.633 -23.208 -16.956  0.00  0.00    -0.022 C 
ATOM     14  C   UNL     1      32.129 -23.134 -16.849  0.00  0.00    +0.031 C 
ATOM     15  C   UNL     1      34.357 -22.675 -17.965  0.00  0.00    -0.004 C 
BRANCH  15  16
ATOM     16  C   UNL     1      33.869 -21.943 -19.119  0.00  0.00    -0.001 C 
ATOM     17  C   UNL     1      34.550 -20.922 -19.669  0.00  0.00    -0.005 C 
BRANCH  17  18
ATOM     18  C   UNL     1      34.146 -20.123 -20.830  0.00  0.00    -0.024 C 
ATOM     19  C   UNL     1      32.692 -19.746 -20.944  0.00  0.00    +0.031 C 
ATOM     20  C   UNL     1      35.091 -19.767 -21.726  0.00  0.00    +0.001 C 
BRANCH  20  21
ATOM     21  C   UNL     1      34.934 -18.964 -22.979  0.00  0.00    +0.163 C 
BRANCH  21  22
ATOM     22  O   UNL     1      36.082 -18.135 -23.130  0.00  0.00    -0.377 OA
ATOM     23  H   UNL     1      36.883 -18.665 -22.998  0.00  0.00    +0.211 HD
ENDBRANCH  21  22
ENDBRANCH  20  21
ENDBRANCH  17  18
ENDBRANCH  15  16
ENDBRANCH   2  13
TORSDOF 6
ENDMDL
MODEL 6
REMARK VINA RESULT:      -9.1      6.000      9.789
REMARK  Name = 5289090
REMARK  6 active torsions:
REMARK  status: ('A' for Active; 'I' for Inactive)
REMARK    1  A    between atoms: C_1  and  C_6
REMARK    2  A    between atoms: C_2  and  C_13
REMARK    3  A    between atoms: C_15  and  C_16
REMARK    4  A    between atoms: C_17  and  C_18
REMARK    5  A    between atoms: C_20  and  C_21
REMARK    6  A    between atoms: C_21  and  O_22
REMARK                            x       y       z     vdW  Elec       q    Type
REMARK                         _______ _______ _______ _____ _____    ______ ____
ROOT
ATOM      1  C   UNL     1      32.240  -9.866 -23.005  0.00  0.00    -0.005 C 
ATOM      2  C   UNL     1      33.402 -10.378 -23.439  0.00  0.00    -0.005 C 
ENDROOT
BRANCH   1   6
ATOM      3  O   UNL     1      32.157  -7.063 -19.072  0.00  0.00    -0.292 OA
ATOM      4  C   UNL     1      31.987  -7.359 -23.241  0.00  0.00    +0.019 C 
ATOM      5  C   UNL     1      31.421  -6.158 -22.447  0.00  0.00    +0.012 C 
ATOM      6  C   UNL     1      32.142  -8.587 -22.319  0.00  0.00    -0.024 C 
ATOM      7  C   UNL     1      32.165  -5.916 -21.152  0.00  0.00    +0.069 C 
ATOM      8  C   UNL     1      33.360  -6.988 -23.842  0.00  0.00    +0.004 C 
ATOM      9  C   UNL     1      30.993  -7.603 -24.404  0.00  0.00    +0.004 C 
ATOM     10  C   UNL     1      32.192  -8.505 -20.968  0.00  0.00    +0.009 C 
ATOM     11  C   UNL     1      32.149  -7.156 -20.300  0.00  0.00    +0.169 C 
ATOM     12  C   UNL     1      32.338  -9.648 -19.996  0.00  0.00    +0.034 C 
ENDBRANCH   1   6
BRANCH   2  13
ATOM     13  C   UNL     1      33.591 -11.654 -24.137  0.00  0.00    -0.022 C 
ATOM     14  C   UNL     1      33.951 -11.592 -25.601  0.00  0.00    +0.031 C 
ATOM     15  C   UNL     1      33.434 -12.797 -23.433  0.00  0.00    -0.004 C 
BRANCH  15  16
ATOM     16  C   UNL     1      33.572 -14.161 -23.910  0.00  0.00    -0.001 C 
ATOM     17  C   UNL     1      34.530 -14.991 -23.462  0.00  0.00    -0.005 C 
BRANCH  17  18
ATOM     18  C   UNL     1      34.752 -16.379 -23.877  0.00  0.00    -0.024 C 
ATOM     19  C   UNL     1      34.418 -16.742 -25.301  0.00  0.00    +0.031 C 
ATOM     20  C   UNL     1      35.244 -17.251 -22.972  0.00  0.00    +0.001 C 
BRANCH  20  21
ATOM     21  C   UNL     1      35.554 -18.704 -23.147  0.00  0.00    +0.163 C 
BRANCH  21  22
ATOM     22  O   UNL     1      34.485 -19.463 -22.594  0.00  0.00    -0.377 OA
ATOM     23  H   UNL     1      33.641 -19.130 -22.937  0.00  0.00    +0.211 HD
ENDBRANCH  21  22
ENDBRANCH  20  21
ENDBRANCH  17  18
ENDBRANCH  15  16
ENDBRANCH   2  13
TORSDOF 6
ENDMDL
MODEL 7
REMARK VINA RESULT:      -9.1      3.318      9.597
REMARK  Name = 5289090
REMARK  6 active torsions:
REMARK  status: ('A' for Active; 'I' for Inactive)
REMARK    1  A    between atoms: C_1  and  C_6
REMARK    2  A    between atoms: C_2  and  C_13
REMARK    3  A    between atoms: C_15  and  C_16
REMARK    4  A    between atoms: C_17  and  C_18
REMARK    5  A    between atoms: C_20  and  C_21
REMARK    6  A    between atoms: C_21  and  O_22
REMARK                            x       y       z     vdW  Elec       q    Type
REMARK                         _______ _______ _______ _____ _____    ______ ____
ROOT
ATOM      1  C   UNL     1      31.928 -22.553 -17.015  0.00  0.00    -0.005 C 
ATOM      2  C   UNL     1      33.006 -22.854 -17.754  0.00  0.00    -0.005 C 
ENDROOT
BRANCH   1   6
ATOM      3  O   UNL     1      32.750 -25.039 -12.956  0.00  0.00    -0.292 OA
ATOM      4  C   UNL     1      29.992 -23.554 -15.727  0.00  0.00    +0.019 C 
ATOM      5  C   UNL     1      29.701 -24.751 -14.791  0.00  0.00    +0.012 C 
ATOM      6  C   UNL     1      31.514 -23.333 -15.859  0.00  0.00    -0.024 C 
ATOM      7  C   UNL     1      30.466 -24.667 -13.488  0.00  0.00    +0.069 C 
ATOM      8  C   UNL     1      29.331 -22.277 -15.166  0.00  0.00    +0.004 C 
ATOM      9  C   UNL     1      29.318 -23.901 -17.079  0.00  0.00    +0.004 C 
ATOM     10  C   UNL     1      32.418 -23.814 -14.971  0.00  0.00    +0.009 C 
ATOM     11  C   UNL     1      31.943 -24.564 -13.755  0.00  0.00    +0.169 C 
ATOM     12  C   UNL     1      33.915 -23.648 -15.023  0.00  0.00    +0.034 C 
ENDBRANCH   1   6
BRANCH   2  13
ATOM     13  C   UNL     1      33.493 -22.126 -18.931  0.00  0.00    -0.022 C 
ATOM     14  C   UNL     1      34.821 -22.554 -19.505  0.00  0.00    +0.031 C 
ATOM     15  C   UNL     1      32.730 -21.126 -19.425  0.00  0.00    -0.004 C 
BRANCH  15  16
ATOM     16  C   UNL     1      33.008 -20.278 -20.570  0.00  0.00    -0.001 C 
ATOM     17  C   UNL     1      34.104 -19.503 -20.646  0.00  0.00    -0.005 C 
BRANCH  17  18
ATOM     18  C   UNL     1      34.474 -18.616 -21.754  0.00  0.00    -0.024 C 
ATOM     19  C   UNL     1      34.660 -17.154 -21.442  0.00  0.00    +0.031 C 
ATOM     20  C   UNL     1      34.632 -19.153 -22.982  0.00  0.00    +0.001 C 
BRANCH  20  21
ATOM     21  C   UNL     1      35.002 -18.467 -24.260  0.00  0.00    +0.163 C 
BRANCH  21  22
ATOM     22  O   UNL     1      33.927 -18.618 -25.180  0.00  0.00    -0.377 OA
ATOM     23  H   UNL     1      33.140 -18.168 -24.836  0.00  0.00    +0.211 HD
ENDBRANCH  21  22
ENDBRANCH  20  21
ENDBRANCH  17  18
ENDBRANCH  15  16
ENDBRANCH   2  13
TORSDOF 6
ENDMDL
MODEL 8
REMARK VINA RESULT:      -8.8      6.929     10.671
REMARK  Name = 5289090
REMARK  6 active torsions:
REMARK  status: ('A' for Active; 'I' for Inactive)
REMARK    1  A    between atoms: C_1  and  C_6
REMARK    2  A    between atoms: C_2  and  C_13
REMARK    3  A    between atoms: C_15  and  C_16
REMARK    4  A    between atoms: C_17  and  C_18
REMARK    5  A    between atoms: C_20  and  C_21
REMARK    6  A    between atoms: C_21  and  O_22
REMARK                            x       y       z     vdW  Elec       q    Type
REMARK                         _______ _______ _______ _____ _____    ______ ____
ROOT
ATOM      1  C   UNL     1      34.941 -24.659 -14.457  0.00  0.00    -0.005 C 
ATOM      2  C   UNL     1      34.657 -23.720 -15.372  0.00  0.00    -0.005 C 
ENDROOT
BRANCH   1   6
ATOM      3  O   UNL     1      39.185 -26.959 -14.628  0.00  0.00    -0.292 OA
ATOM      4  C   UNL     1      36.764 -24.080 -12.799  0.00  0.00    +0.019 C 
ATOM      5  C   UNL     1      37.967 -24.754 -12.098  0.00  0.00    +0.012 C 
ATOM      6  C   UNL     1      36.293 -24.935 -13.995  0.00  0.00    -0.024 C 
ATOM      7  C   UNL     1      39.048 -25.170 -13.072  0.00  0.00    +0.069 C 
ATOM      8  C   UNL     1      37.167 -22.675 -13.296  0.00  0.00    +0.004 C 
ATOM      9  C   UNL     1      35.675 -23.921 -11.709  0.00  0.00    +0.004 C 
ATOM     10  C   UNL     1      37.065 -25.875 -14.591  0.00  0.00    +0.009 C 
ATOM     11  C   UNL     1      38.480 -26.086 -14.122  0.00  0.00    +0.169 C 
ATOM     12  C   UNL     1      36.685 -26.752 -15.757  0.00  0.00    +0.034 C 
ENDBRANCH   1   6
BRANCH   2  13
ATOM     13  C   UNL     1      33.329 -23.377 -15.893  0.00  0.00    -0.022 C 
ATOM     14  C   UNL     1      33.196 -23.215 -17.387  0.00  0.00    +0.031 C 
ATOM     15  C   UNL     1      32.316 -23.229 -15.012  0.00  0.00    -0.004 C 
BRANCH  15  16
ATOM     16  C   UNL     1      30.932 -22.896 -15.296  0.00  0.00    -0.001 C 
ATOM     17  C   UNL     1      30.105 -23.735 -15.945  0.00  0.00    -0.005 C 
BRANCH  17  18
ATOM     18  C   UNL     1      28.698 -23.495 -16.279  0.00  0.00    -0.024 C 
ATOM     19  C   UNL     1      28.016 -24.490 -17.181  0.00  0.00    +0.031 C 
ATOM     20  C   UNL     1      28.091 -22.406 -15.761  0.00  0.00    +0.001 C 
BRANCH  20  21
ATOM     21  C   UNL     1      26.680 -21.945 -15.950  0.00  0.00    +0.163 C 
BRANCH  21  22
ATOM     22  O   UNL     1      26.594 -21.251 -17.189  0.00  0.00    -0.377 OA
ATOM     23  H   UNL     1      27.484 -21.002 -17.482  0.00  0.00    +0.211 HD
ENDBRANCH  21  22
ENDBRANCH  20  21
ENDBRANCH  17  18
ENDBRANCH  15  16
ENDBRANCH   2  13
TORSDOF 6
ENDMDL
MODEL 9
REMARK VINA RESULT:      -8.7      4.900      7.725
REMARK  Name = 5289090
REMARK  6 active torsions:
REMARK  status: ('A' for Active; 'I' for Inactive)
REMARK    1  A    between atoms: C_1  and  C_6
REMARK    2  A    between atoms: C_2  and  C_13
REMARK    3  A    between atoms: C_15  and  C_16
REMARK    4  A    between atoms: C_17  and  C_18
REMARK    5  A    between atoms: C_20  and  C_21
REMARK    6  A    between atoms: C_21  and  O_22
REMARK                            x       y       z     vdW  Elec       q    Type
REMARK                         _______ _______ _______ _____ _____    ______ ____
ROOT
ATOM      1  C   UNL     1      32.886 -11.295 -23.555  0.00  0.00    -0.005 C 
ATOM      2  C   UNL     1      33.877 -12.200 -23.514  0.00  0.00    -0.005 C 
ENDROOT
BRANCH   1   6
ATOM      3  O   UNL     1      35.161  -7.051 -23.931  0.00  0.00    -0.292 OA
ATOM      4  C   UNL     1      32.050  -9.290 -22.257  0.00  0.00    +0.019 C 
ATOM      5  C   UNL     1      32.602  -7.990 -21.626  0.00  0.00    +0.012 C 
ATOM      6  C   UNL     1      33.081  -9.889 -23.238  0.00  0.00    -0.024 C 
ATOM      7  C   UNL     1      33.156  -7.033 -22.659  0.00  0.00    +0.069 C 
ATOM      8  C   UNL     1      30.735  -8.991 -23.008  0.00  0.00    +0.004 C 
ATOM      9  C   UNL     1      31.733 -10.235 -21.070  0.00  0.00    +0.004 C 
ATOM     10  C   UNL     1      34.096  -9.176 -23.782  0.00  0.00    +0.009 C 
ATOM     11  C   UNL     1      34.225  -7.708 -23.475  0.00  0.00    +0.169 C 
ATOM     12  C   UNL     1      35.144  -9.680 -24.742  0.00  0.00    +0.034 C 
ENDBRANCH   1   6
BRANCH   2  13
ATOM     13  C   UNL     1      33.769 -13.631 -23.818  0.00  0.00    -0.022 C 
ATOM     14  C   UNL     1      33.086 -14.012 -25.107  0.00  0.00    +0.031 C 
ATOM     15  C   UNL     1      34.285 -14.513 -22.933  0.00  0.00    -0.004 C 
BRANCH  15  16
ATOM     16  C   UNL     1      34.294 -15.961 -23.024  0.00  0.00    -0.001 C 
ATOM     17  C   UNL     1      35.059 -16.730 -22.229  0.00  0.00    -0.005 C 
BRANCH  17  18
ATOM     18  C   UNL     1      35.140 -18.194 -22.242  0.00  0.00    -0.024 C 
ATOM     19  C   UNL     1      35.081 -18.884 -23.580  0.00  0.00    +0.031 C 
ATOM     20  C   UNL     1      35.267 -18.841 -21.064  0.00  0.00    +0.001 C 
BRANCH  20  21
ATOM     21  C   UNL     1      35.368 -20.313 -20.813  0.00  0.00    +0.163 C 
BRANCH  21  22
ATOM     22  O   UNL     1      36.100 -20.517 -19.610  0.00  0.00    -0.377 OA
ATOM     23  H   UNL     1      35.889 -19.810 -18.980  0.00  0.00    +0.211 HD
ENDBRANCH  21  22
ENDBRANCH  20  21
ENDBRANCH  17  18
ENDBRANCH  15  16
ENDBRANCH   2  13
TORSDOF 6
ENDMDL
