MODEL 1
REMARK VINA RESULT:      -4.4      0.000      0.000
REMARK  Name = 123991
REMARK  3 active torsions:
REMARK  status: ('A' for Active; 'I' for Inactive)
REMARK    1  A    between atoms: CA_1  and  N_3
REMARK    2  A    between atoms: CA_1  and  C_7
REMARK    3  A    between atoms: C_7  and  O_8
REMARK                            x       y       z     vdW  Elec       q    Type
REMARK                         _______ _______ _______ _____ _____    ______ ____
ROOT
ATOM      1  CA  ALA A   1      38.781 -25.637 -14.413  0.00  0.00    +0.118 C 
ATOM      2  CB  ALA A   1      38.585 -25.610 -13.086  0.00  0.00    +0.022 C 
ENDROOT
BRANCH   1   3
ATOM      3  N   ALA A   1      37.815 -25.906 -15.338  0.00  0.00    -0.352 N 
ATOM      4  H1  ALA A   1      37.730 -26.812 -15.712  0.00  0.00    +0.143 HD
ATOM      5  H2  ALA A   1      37.204 -25.191 -15.632  0.00  0.00    +0.143 HD
ENDBRANCH   1   3
BRANCH   1   7
ATOM      6  OXT ALA A   1      40.994 -24.679 -14.298  0.00  0.00    -0.244 OA
ATOM      7  C   ALA A   1      40.163 -25.351 -14.889  0.00  0.00    +0.351 C 
BRANCH   7   8
ATOM      8  O   ALA A   1      40.390 -25.940 -16.088  0.00  0.00    -0.476 OA
ATOM      9  H   ALA A   1      41.182 -26.422 -16.231  0.00  0.00    +0.295 HD
ENDBRANCH   7   8
ENDBRANCH   1   7
TORSDOF 3
ENDMDL
MODEL 2
REMARK VINA RESULT:      -4.3     10.552     11.024
REMARK  Name = 123991
REMARK  3 active torsions:
REMARK  status: ('A' for Active; 'I' for Inactive)
REMARK    1  A    between atoms: CA_1  and  N_3
REMARK    2  A    between atoms: CA_1  and  C_7
REMARK    3  A    between atoms: C_7  and  O_8
REMARK                            x       y       z     vdW  Elec       q    Type
REMARK                         _______ _______ _______ _____ _____    ______ ____
ROOT
ATOM      1  CA  ALA A   1      41.420 -14.394 -16.316  0.00  0.00    +0.118 C 
ATOM      2  CB  ALA A   1      41.243 -14.328 -17.644  0.00  0.00    +0.022 C 
ENDROOT
BRANCH   1   3
ATOM      3  N   ALA A   1      41.656 -13.321 -15.507  0.00  0.00    -0.352 N 
ATOM      4  H1  ALA A   1      41.542 -13.405 -14.533  0.00  0.00    +0.143 HD
ATOM      5  H2  ALA A   1      41.940 -12.463 -15.898  0.00  0.00    +0.143 HD
ENDBRANCH   1   3
BRANCH   1   7
ATOM      6  OXT ALA A   1      42.264 -16.558 -15.660  0.00  0.00    -0.244 OA
ATOM      7  C   ALA A   1      41.351 -15.748 -15.700  0.00  0.00    +0.351 C 
BRANCH   7   8
ATOM      8  O   ALA A   1      40.122 -15.976 -15.177  0.00  0.00    -0.476 OA
ATOM      9  H   ALA A   1      39.523 -15.264 -15.061  0.00  0.00    +0.295 HD
ENDBRANCH   7   8
ENDBRANCH   1   7
TORSDOF 3
ENDMDL
MODEL 3
REMARK VINA RESULT:      -4.0     11.127     11.432
REMARK  Name = 123991
REMARK  3 active torsions:
REMARK  status: ('A' for Active; 'I' for Inactive)
REMARK    1  A    between atoms: CA_1  and  N_3
REMARK    2  A    between atoms: CA_1  and  C_7
REMARK    3  A    between atoms: C_7  and  O_8
REMARK                            x       y       z     vdW  Elec       q    Type
REMARK                         _______ _______ _______ _____ _____    ______ ____
ROOT
ATOM      1  CA  ALA A   1      29.361 -23.201 -16.382  0.00  0.00    +0.118 C 
ATOM      2  CB  ALA A   1      29.270 -24.089 -15.381  0.00  0.00    +0.022 C 
ENDROOT
BRANCH   1   3
ATOM      3  N   ALA A   1      30.525 -22.651 -16.833  0.00  0.00    -0.352 N 
ATOM      4  H1  ALA A   1      31.384 -23.097 -16.652  0.00  0.00    +0.143 HD
ATOM      5  H2  ALA A   1      30.506 -21.807 -17.340  0.00  0.00    +0.143 HD
ENDBRANCH   1   3
BRANCH   1   7
ATOM      6  OXT ALA A   1      27.595 -21.683 -17.014  0.00  0.00    -0.244 OA
ATOM      7  C   ALA A   1      28.085 -22.801 -17.037  0.00  0.00    +0.351 C 
BRANCH   7   8
ATOM      8  O   ALA A   1      27.521 -23.854 -17.676  0.00  0.00    -0.476 OA
ATOM      9  H   ALA A   1      27.446 -24.681 -17.240  0.00  0.00    +0.295 HD
ENDBRANCH   7   8
ENDBRANCH   1   7
TORSDOF 3
ENDMDL
MODEL 4
REMARK VINA RESULT:      -4.0     10.017     10.530
REMARK  Name = 123991
REMARK  3 active torsions:
REMARK  status: ('A' for Active; 'I' for Inactive)
REMARK    1  A    between atoms: CA_1  and  N_3
REMARK    2  A    between atoms: CA_1  and  C_7
REMARK    3  A    between atoms: C_7  and  O_8
REMARK                            x       y       z     vdW  Elec       q    Type
REMARK                         _______ _______ _______ _____ _____    ______ ____
ROOT
ATOM      1  CA  ALA A   1      41.751 -15.577 -17.702  0.00  0.00    +0.118 C 
ATOM      2  CB  ALA A   1      41.287 -14.348 -17.971  0.00  0.00    +0.022 C 
ENDROOT
BRANCH   1   3
ATOM      3  N   ALA A   1      42.287 -16.427 -18.625  0.00  0.00    -0.352 N 
ATOM      4  H1  ALA A   1      41.885 -16.499 -19.520  0.00  0.00    +0.143 HD
ATOM      5  H2  ALA A   1      43.076 -16.969 -18.393  0.00  0.00    +0.143 HD
ENDBRANCH   1   3
BRANCH   1   7
ATOM      6  OXT ALA A   1      42.530 -16.640 -15.680  0.00  0.00    -0.244 OA
ATOM      7  C   ALA A   1      41.665 -16.027 -16.285  0.00  0.00    +0.351 C 
BRANCH   7   8
ATOM      8  O   ALA A   1      40.480 -15.664 -15.737  0.00  0.00    -0.476 OA
ATOM      9  H   ALA A   1      40.385 -14.819 -15.342  0.00  0.00    +0.295 HD
ENDBRANCH   7   8
ENDBRANCH   1   7
TORSDOF 3
ENDMDL
MODEL 5
REMARK VINA RESULT:      -4.0     10.885     11.249
REMARK  Name = 123991
REMARK  3 active torsions:
REMARK  status: ('A' for Active; 'I' for Inactive)
REMARK    1  A    between atoms: CA_1  and  N_3
REMARK    2  A    between atoms: CA_1  and  C_7
REMARK    3  A    between atoms: C_7  and  O_8
REMARK                            x       y       z     vdW  Elec       q    Type
REMARK                         _______ _______ _______ _____ _____    ______ ____
ROOT
ATOM      1  CA  ALA A   1      29.102 -23.695 -15.577  0.00  0.00    +0.118 C 
ATOM      2  CB  ALA A   1      29.970 -22.788 -15.105  0.00  0.00    +0.022 C 
ENDROOT
BRANCH   1   3
ATOM      3  N   ALA A   1      28.865 -24.915 -15.013  0.00  0.00    -0.352 N 
ATOM      4  H1  ALA A   1      29.408 -25.692 -15.274  0.00  0.00    +0.143 HD
ATOM      5  H2  ALA A   1      28.149 -25.016 -14.345  0.00  0.00    +0.143 HD
ENDBRANCH   1   3
BRANCH   1   7
ATOM      6  OXT ALA A   1      27.731 -24.095 -17.523  0.00  0.00    -0.244 OA
ATOM      7  C   ALA A   1      28.353 -23.324 -16.810  0.00  0.00    +0.351 C 
BRANCH   7   8
ATOM      8  O   ALA A   1      28.450 -21.994 -17.048  0.00  0.00    -0.476 OA
ATOM      9  H   ALA A   1      28.470 -21.676 -17.930  0.00  0.00    +0.295 HD
ENDBRANCH   7   8
ENDBRANCH   1   7
TORSDOF 3
ENDMDL
MODEL 6
REMARK VINA RESULT:      -4.0      2.953      3.179
REMARK  Name = 123991
REMARK  3 active torsions:
REMARK  status: ('A' for Active; 'I' for Inactive)
REMARK    1  A    between atoms: CA_1  and  N_3
REMARK    2  A    between atoms: CA_1  and  C_7
REMARK    3  A    between atoms: C_7  and  O_8
REMARK                            x       y       z     vdW  Elec       q    Type
REMARK                         _______ _______ _______ _____ _____    ______ ____
ROOT
ATOM      1  CA  ALA A   1      36.503 -25.405 -14.926  0.00  0.00    +0.118 C 
ATOM      2  CB  ALA A   1      37.217 -24.275 -15.034  0.00  0.00    +0.022 C 
ENDROOT
BRANCH   1   3
ATOM      3  N   ALA A   1      35.184 -25.465 -14.583  0.00  0.00    -0.352 N 
ATOM      4  H1  ALA A   1      34.903 -25.242 -13.667  0.00  0.00    +0.143 HD
ATOM      5  H2  ALA A   1      34.514 -25.731 -15.254  0.00  0.00    +0.143 HD
ENDBRANCH   1   3
BRANCH   1   7
ATOM      6  OXT ALA A   1      38.137 -27.139 -14.538  0.00  0.00    -0.244 OA
ATOM      7  C   ALA A   1      37.224 -26.678 -15.205  0.00  0.00    +0.351 C 
BRANCH   7   8
ATOM      8  O   ALA A   1      36.730 -27.276 -16.316  0.00  0.00    -0.476 OA
ATOM      9  H   ALA A   1      37.280 -27.403 -17.065  0.00  0.00    +0.295 HD
ENDBRANCH   7   8
ENDBRANCH   1   7
TORSDOF 3
ENDMDL
MODEL 7
REMARK VINA RESULT:      -3.9     10.011     10.497
REMARK  Name = 123991
REMARK  3 active torsions:
REMARK  status: ('A' for Active; 'I' for Inactive)
REMARK    1  A    between atoms: CA_1  and  N_3
REMARK    2  A    between atoms: CA_1  and  C_7
REMARK    3  A    between atoms: C_7  and  O_8
REMARK                            x       y       z     vdW  Elec       q    Type
REMARK                         _______ _______ _______ _____ _____    ______ ____
ROOT
ATOM      1  CA  ALA A   1      41.231 -15.076 -16.605  0.00  0.00    +0.118 C 
ATOM      2  CB  ALA A   1      41.251 -14.315 -17.709  0.00  0.00    +0.022 C 
ENDROOT
BRANCH   1   3
ATOM      3  N   ALA A   1      40.581 -14.756 -15.449  0.00  0.00    -0.352 N 
ATOM      4  H1  ALA A   1      40.189 -15.467 -14.892  0.00  0.00    +0.143 HD
ATOM      5  H2  ALA A   1      40.504 -13.814 -15.173  0.00  0.00    +0.143 HD
ENDBRANCH   1   3
BRANCH   1   7
ATOM      6  OXT ALA A   1      41.509 -17.447 -16.963  0.00  0.00    -0.244 OA
ATOM      7  C   ALA A   1      41.981 -16.361 -16.666  0.00  0.00    +0.351 C 
BRANCH   7   8
ATOM      8  O   ALA A   1      43.284 -16.173 -16.344  0.00  0.00    -0.476 OA
ATOM      9  H   ALA A   1      43.604 -16.447 -15.507  0.00  0.00    +0.295 HD
ENDBRANCH   7   8
ENDBRANCH   1   7
TORSDOF 3
ENDMDL
MODEL 8
REMARK VINA RESULT:      -3.9      8.296      8.603
REMARK  Name = 123991
REMARK  3 active torsions:
REMARK  status: ('A' for Active; 'I' for Inactive)
REMARK    1  A    between atoms: CA_1  and  N_3
REMARK    2  A    between atoms: CA_1  and  C_7
REMARK    3  A    between atoms: C_7  and  O_8
REMARK                            x       y       z     vdW  Elec       q    Type
REMARK                         _______ _______ _______ _____ _____    ______ ____
ROOT
ATOM      1  CA  ALA A   1      33.446 -21.098 -19.722  0.00  0.00    +0.118 C 
ATOM      2  CB  ALA A   1      32.923 -20.140 -20.500  0.00  0.00    +0.022 C 
ENDROOT
BRANCH   1   3
ATOM      3  N   ALA A   1      32.720 -21.982 -18.978  0.00  0.00    -0.352 N 
ATOM      4  H1  ALA A   1      32.038 -21.652 -18.350  0.00  0.00    +0.143 HD
ATOM      5  H2  ALA A   1      32.880 -22.949 -19.070  0.00  0.00    +0.143 HD
ENDBRANCH   1   3
BRANCH   1   7
ATOM      6  OXT ALA A   1      35.707 -20.289 -19.972  0.00  0.00    -0.244 OA
ATOM      7  C   ALA A   1      34.932 -21.187 -19.681  0.00  0.00    +0.351 C 
BRANCH   7   8
ATOM      8  O   ALA A   1      35.329 -22.416 -19.270  0.00  0.00    -0.476 OA
ATOM      9  H   ALA A   1      35.998 -22.499 -18.618  0.00  0.00    +0.295 HD
ENDBRANCH   7   8
ENDBRANCH   1   7
TORSDOF 3
ENDMDL
MODEL 9
REMARK VINA RESULT:      -3.8      4.706      5.153
REMARK  Name = 123991
REMARK  3 active torsions:
REMARK  status: ('A' for Active; 'I' for Inactive)
REMARK    1  A    between atoms: CA_1  and  N_3
REMARK    2  A    between atoms: CA_1  and  C_7
REMARK    3  A    between atoms: C_7  and  O_8
REMARK                            x       y       z     vdW  Elec       q    Type
REMARK                         _______ _______ _______ _____ _____    ______ ____
ROOT
ATOM      1  CA  ALA A   1      37.200 -24.679 -11.848  0.00  0.00    +0.118 C 
ATOM      2  CB  ALA A   1      37.264 -25.697 -12.719  0.00  0.00    +0.022 C 
ENDROOT
BRANCH   1   3
ATOM      3  N   ALA A   1      38.174 -23.739 -11.675  0.00  0.00    -0.352 N 
ATOM      4  H1  ALA A   1      38.090 -23.069 -10.959  0.00  0.00    +0.143 HD
ATOM      5  H2  ALA A   1      38.960 -23.731 -12.268  0.00  0.00    +0.143 HD
ENDBRANCH   1   3
BRANCH   1   7
ATOM      6  OXT ALA A   1      35.921 -24.236  -9.850  0.00  0.00    -0.244 OA
ATOM      7  C   ALA A   1      35.967 -24.586 -11.019  0.00  0.00    +0.351 C 
BRANCH   7   8
ATOM      8  O   ALA A   1      34.876 -24.946 -11.737  0.00  0.00    -0.476 OA
ATOM      9  H   ALA A   1      34.971 -25.216 -12.630  0.00  0.00    +0.295 HD
ENDBRANCH   7   8
ENDBRANCH   1   7
TORSDOF 3
ENDMDL
