MODEL 1
REMARK VINA RESULT:     -10.0      0.000      0.000
REMARK  Name = 1548972
REMARK  11 active torsions:
REMARK  status: ('A' for Active; 'I' for Inactive)
REMARK    1  A    between atoms: N_1  and  C_17
REMARK    2  A    between atoms: C_2  and  C_20
REMARK    3  A    between atoms: C_4  and  C_11
REMARK    4  A    between atoms: C_21  and  C_22
REMARK    5  A    between atoms: C_22  and  O_23
REMARK    6  A    between atoms: C_22  and  C_25
REMARK    7  A    between atoms: C_25  and  C_26
REMARK    8  A    between atoms: C_26  and  O_27
REMARK    9  A    between atoms: C_26  and  C_29
REMARK   10  A    between atoms: C_29  and  C_31
REMARK   11  A    between atoms: C_31  and  O_32
REMARK                            x       y       z     vdW  Elec       q    Type
REMARK                         _______ _______ _______ _____ _____    ______ ____
ROOT
ATOM      1  N   UNL     1      35.858 -22.520 -16.271  0.00  0.00    -0.329 N 
ATOM      2  C   UNL     1      34.892 -23.065 -15.488  0.00  0.00    +0.060 A 
ATOM      3  C   UNL     1      35.330 -22.222 -17.507  0.00  0.00    +0.060 A 
ATOM      4  C   UNL     1      33.727 -23.134 -16.188  0.00  0.00    +0.017 A 
ATOM      5  C   UNL     1      33.986 -22.599 -17.480  0.00  0.00    +0.017 A 
ATOM      6  C   UNL     1      35.933 -21.653 -18.633  0.00  0.00    +0.017 C 
ATOM      7  C   UNL     1      33.203 -22.400 -18.636  0.00  0.00    +0.001 C 
ATOM      8  C   UNL     1      35.138 -21.465 -19.768  0.00  0.00    +0.001 C 
ATOM      9  C   UNL     1      33.793 -21.832 -19.770  0.00  0.00    +0.000 C 
ENDROOT
BRANCH   4  11
ATOM     10  F   UNL     1      28.980 -25.177 -14.122  0.00  0.00    -0.204 F 
ATOM     11  C   UNL     1      32.501 -23.661 -15.655  0.00  0.00    +0.002 C 
ATOM     12  C   UNL     1      32.538 -24.603 -14.627  0.00  0.00    +0.002 C 
ATOM     13  C   UNL     1      31.277 -23.230 -16.165  0.00  0.00    +0.002 C 
ATOM     14  C   UNL     1      31.348 -25.115 -14.110  0.00  0.00    +0.030 C 
ATOM     15  C   UNL     1      30.088 -23.742 -15.648  0.00  0.00    +0.030 C 
ATOM     16  C   UNL     1      30.122 -24.685 -14.620  0.00  0.00    +0.140 C 
ENDBRANCH   4  11
BRANCH   1  17
ATOM     17  C   UNL     1      37.239 -22.275 -15.898  0.00  0.00    +0.086 C 
ATOM     18  C   UNL     1      37.770 -20.970 -16.495  0.00  0.00    +0.024 C 
ATOM     19  C   UNL     1      38.143 -23.461 -16.242  0.00  0.00    +0.024 C 
ENDBRANCH   1  17
BRANCH   2  20
ATOM     20  C   UNL     1      35.240 -23.449 -14.153  0.00  0.00    +0.015 C 
ATOM     21  C   UNL     1      35.782 -24.634 -13.831  0.00  0.00    +0.004 C 
BRANCH  21  22
ATOM     22  C   UNL     1      36.159 -25.011 -12.423  0.00  0.00    +0.135 C 
BRANCH  22  23
ATOM     23  O   UNL     1      36.353 -23.799 -11.698  0.00  0.00    -0.380 OA
ATOM     24  H   UNL     1      36.916 -23.200 -12.214  0.00  0.00    +0.211 HD
ENDBRANCH  22  23
BRANCH  22  25
ATOM     25  C   UNL     1      37.451 -25.846 -12.414  0.00  0.00    +0.064 C 
BRANCH  25  26
ATOM     26  C   UNL     1      38.177 -25.861 -13.768  0.00  0.00    +0.124 C 
BRANCH  26  27
ATOM     27  O   UNL     1      38.155 -27.183 -14.299  0.00  0.00    -0.384 OA
ATOM     28  H   UNL     1      38.919 -27.679 -13.965  0.00  0.00    +0.210 HD
ENDBRANCH  26  27
BRANCH  26  29
ATOM     29  C   UNL     1      39.621 -25.362 -13.680  0.00  0.00    +0.139 C 
BRANCH  29  31
ATOM     30  O   UNL     1      41.403 -26.956 -14.033  0.00  0.00    -0.250 OA
ATOM     31  C   UNL     1      40.584 -26.181 -14.508  0.00  0.00    +0.316 C 
BRANCH  31  32
ATOM     32  O   UNL     1      40.464 -25.949 -15.839  0.00  0.00    -0.480 OA
ATOM     33  H   UNL     1      39.665 -26.160 -16.280  0.00  0.00    +0.295 HD
ENDBRANCH  31  32
ENDBRANCH  29  31
ENDBRANCH  26  29
ENDBRANCH  25  26
ENDBRANCH  22  25
ENDBRANCH  21  22
ENDBRANCH   2  20
TORSDOF 11
ENDMDL
MODEL 2
REMARK VINA RESULT:      -9.9      3.751      6.535
REMARK  Name = 1548972
REMARK  11 active torsions:
REMARK  status: ('A' for Active; 'I' for Inactive)
REMARK    1  A    between atoms: N_1  and  C_17
REMARK    2  A    between atoms: C_2  and  C_20
REMARK    3  A    between atoms: C_4  and  C_11
REMARK    4  A    between atoms: C_21  and  C_22
REMARK    5  A    between atoms: C_22  and  O_23
REMARK    6  A    between atoms: C_22  and  C_25
REMARK    7  A    between atoms: C_25  and  C_26
REMARK    8  A    between atoms: C_26  and  O_27
REMARK    9  A    between atoms: C_26  and  C_29
REMARK   10  A    between atoms: C_29  and  C_31
REMARK   11  A    between atoms: C_31  and  O_32
REMARK                            x       y       z     vdW  Elec       q    Type
REMARK                         _______ _______ _______ _____ _____    ______ ____
ROOT
ATOM      1  N   UNL     1      36.018 -23.418 -15.204  0.00  0.00    -0.329 N 
ATOM      2  C   UNL     1      34.727 -23.581 -15.593  0.00  0.00    +0.060 A 
ATOM      3  C   UNL     1      36.093 -23.491 -13.831  0.00  0.00    +0.060 A 
ATOM      4  C   UNL     1      33.942 -23.761 -14.496  0.00  0.00    +0.017 A 
ATOM      5  C   UNL     1      34.796 -23.708 -13.360  0.00  0.00    +0.017 A 
ATOM      6  C   UNL     1      37.197 -23.383 -12.980  0.00  0.00    +0.017 C 
ATOM      7  C   UNL     1      34.590 -23.822 -11.970  0.00  0.00    +0.001 C 
ATOM      8  C   UNL     1      36.969 -23.499 -11.605  0.00  0.00    +0.001 C 
ATOM      9  C   UNL     1      35.686 -23.716 -11.107  0.00  0.00    +0.000 C 
ENDROOT
BRANCH   4  11
ATOM     10  F   UNL     1      28.436 -24.543 -14.713  0.00  0.00    -0.204 F 
ATOM     11  C   UNL     1      32.520 -23.963 -14.552  0.00  0.00    +0.002 C 
ATOM     12  C   UNL     1      31.976 -25.190 -14.176  0.00  0.00    +0.002 C 
ATOM     13  C   UNL     1      31.687 -22.931 -14.982  0.00  0.00    +0.002 C 
ATOM     14  C   UNL     1      30.596 -25.386 -14.230  0.00  0.00    +0.030 C 
ATOM     15  C   UNL     1      30.307 -23.127 -15.037  0.00  0.00    +0.030 C 
ATOM     16  C   UNL     1      29.761 -24.355 -14.661  0.00  0.00    +0.140 C 
ENDBRANCH   4  11
BRANCH   1  17
ATOM     17  C   UNL     1      37.162 -23.200 -16.069  0.00  0.00    +0.086 C 
ATOM     18  C   UNL     1      38.412 -23.917 -15.554  0.00  0.00    +0.024 C 
ATOM     19  C   UNL     1      37.424 -21.711 -16.305  0.00  0.00    +0.024 C 
ENDBRANCH   1  17
BRANCH   2  20
ATOM     20  C   UNL     1      34.433 -23.537 -16.994  0.00  0.00    +0.015 C 
ATOM     21  C   UNL     1      34.055 -22.425 -17.647  0.00  0.00    +0.004 C 
BRANCH  21  22
ATOM     22  C   UNL     1      33.769 -22.396 -19.124  0.00  0.00    +0.135 C 
BRANCH  22  23
ATOM     23  O   UNL     1      34.902 -22.954 -19.786  0.00  0.00    -0.380 OA
ATOM     24  H   UNL     1      35.714 -22.596 -19.394  0.00  0.00    +0.211 HD
ENDBRANCH  22  23
BRANCH  22  25
ATOM     25  C   UNL     1      33.535 -20.953 -19.601  0.00  0.00    +0.064 C 
BRANCH  25  26
ATOM     26  C   UNL     1      34.620 -20.445 -20.563  0.00  0.00    +0.124 C 
BRANCH  26  27
ATOM     27  O   UNL     1      35.823 -20.211 -19.835  0.00  0.00    -0.384 OA
ATOM     28  H   UNL     1      36.238 -19.393 -20.150  0.00  0.00    +0.210 HD
ENDBRANCH  26  27
BRANCH  26  29
ATOM     29  C   UNL     1      34.212 -19.175 -21.312  0.00  0.00    +0.139 C 
BRANCH  29  31
ATOM     30  O   UNL     1      35.279 -17.149 -20.534  0.00  0.00    -0.250 OA
ATOM     31  C   UNL     1      35.281 -18.107 -21.296  0.00  0.00    +0.316 C 
BRANCH  31  32
ATOM     32  O   UNL     1      36.238 -18.306 -22.237  0.00  0.00    -0.480 OA
ATOM     33  H   UNL     1      36.609 -17.574 -22.689  0.00  0.00    +0.295 HD
ENDBRANCH  31  32
ENDBRANCH  29  31
ENDBRANCH  26  29
ENDBRANCH  25  26
ENDBRANCH  22  25
ENDBRANCH  21  22
ENDBRANCH   2  20
TORSDOF 11
ENDMDL
MODEL 3
REMARK VINA RESULT:      -9.4     10.141     13.409
REMARK  Name = 1548972
REMARK  11 active torsions:
REMARK  status: ('A' for Active; 'I' for Inactive)
REMARK    1  A    between atoms: N_1  and  C_17
REMARK    2  A    between atoms: C_2  and  C_20
REMARK    3  A    between atoms: C_4  and  C_11
REMARK    4  A    between atoms: C_21  and  C_22
REMARK    5  A    between atoms: C_22  and  O_23
REMARK    6  A    between atoms: C_22  and  C_25
REMARK    7  A    between atoms: C_25  and  C_26
REMARK    8  A    between atoms: C_26  and  O_27
REMARK    9  A    between atoms: C_26  and  C_29
REMARK   10  A    between atoms: C_29  and  C_31
REMARK   11  A    between atoms: C_31  and  O_32
REMARK                            x       y       z     vdW  Elec       q    Type
REMARK                         _______ _______ _______ _____ _____    ______ ____
ROOT
ATOM      1  N   UNL     1      33.030 -13.698 -21.535  0.00  0.00    -0.329 N 
ATOM      2  C   UNL     1      33.704 -13.604 -22.710  0.00  0.00    +0.060 A 
ATOM      3  C   UNL     1      32.331 -12.532 -21.315  0.00  0.00    +0.060 A 
ATOM      4  C   UNL     1      33.461 -12.390 -23.276  0.00  0.00    +0.017 A 
ATOM      5  C   UNL     1      32.586 -11.690 -22.400  0.00  0.00    +0.017 A 
ATOM      6  C   UNL     1      31.501 -12.163 -20.252  0.00  0.00    +0.017 C 
ATOM      7  C   UNL     1      31.984 -10.416 -22.425  0.00  0.00    +0.001 C 
ATOM      8  C   UNL     1      30.915 -10.894 -20.297  0.00  0.00    +0.001 C 
ATOM      9  C   UNL     1      31.151 -10.033 -21.367  0.00  0.00    +0.000 C 
ENDROOT
BRANCH   4  11
ATOM     10  F   UNL     1      35.629 -10.737 -28.127  0.00  0.00    -0.204 F 
ATOM     11  C   UNL     1      34.021 -11.963 -24.529  0.00  0.00    +0.002 C 
ATOM     12  C   UNL     1      34.880 -10.866 -24.569  0.00  0.00    +0.002 C 
ATOM     13  C   UNL     1      33.705 -12.647 -25.702  0.00  0.00    +0.002 C 
ATOM     14  C   UNL     1      35.424 -10.452 -25.785  0.00  0.00    +0.030 C 
ATOM     15  C   UNL     1      34.247 -12.233 -26.918  0.00  0.00    +0.030 C 
ATOM     16  C   UNL     1      35.108 -11.135 -26.960  0.00  0.00    +0.140 C 
ENDBRANCH   4  11
BRANCH   1  17
ATOM     17  C   UNL     1      33.025 -14.830 -20.627  0.00  0.00    +0.086 C 
ATOM     18  C   UNL     1      34.437 -15.358 -20.364  0.00  0.00    +0.024 C 
ATOM     19  C   UNL     1      32.087 -15.941 -21.105  0.00  0.00    +0.024 C 
ENDBRANCH   1  17
BRANCH   2  20
ATOM     20  C   UNL     1      34.499 -14.720 -23.124  0.00  0.00    +0.015 C 
ATOM     21  C   UNL     1      34.112 -15.615 -24.049  0.00  0.00    +0.004 C 
BRANCH  21  22
ATOM     22  C   UNL     1      34.971 -16.771 -24.484  0.00  0.00    +0.135 C 
BRANCH  22  23
ATOM     23  O   UNL     1      34.841 -16.886 -25.899  0.00  0.00    -0.380 OA
ATOM     24  H   UNL     1      34.031 -16.436 -26.187  0.00  0.00    +0.211 HD
ENDBRANCH  22  23
BRANCH  22  25
ATOM     25  C   UNL     1      34.513 -18.072 -23.803  0.00  0.00    +0.064 C 
BRANCH  25  26
ATOM     26  C   UNL     1      35.222 -18.345 -22.469  0.00  0.00    +0.124 C 
BRANCH  26  27
ATOM     27  O   UNL     1      36.631 -18.255 -22.657  0.00  0.00    -0.384 OA
ATOM     28  H   UNL     1      36.821 -18.047 -23.585  0.00  0.00    +0.210 HD
ENDBRANCH  26  27
BRANCH  26  29
ATOM     29  C   UNL     1      34.865 -19.706 -21.867  0.00  0.00    +0.139 C 
BRANCH  29  31
ATOM     30  O   UNL     1      36.576 -19.385 -20.189  0.00  0.00    -0.250 OA
ATOM     31  C   UNL     1      35.575 -19.983 -20.561  0.00  0.00    +0.316 C 
BRANCH  31  32
ATOM     32  O   UNL     1      35.000 -20.985 -19.851  0.00  0.00    -0.480 OA
ATOM     33  H   UNL     1      34.653 -21.734 -20.294  0.00  0.00    +0.295 HD
ENDBRANCH  31  32
ENDBRANCH  29  31
ENDBRANCH  26  29
ENDBRANCH  25  26
ENDBRANCH  22  25
ENDBRANCH  21  22
ENDBRANCH   2  20
TORSDOF 11
ENDMDL
MODEL 4
REMARK VINA RESULT:      -9.2     12.315     15.417
REMARK  Name = 1548972
REMARK  11 active torsions:
REMARK  status: ('A' for Active; 'I' for Inactive)
REMARK    1  A    between atoms: N_1  and  C_17
REMARK    2  A    between atoms: C_2  and  C_20
REMARK    3  A    between atoms: C_4  and  C_11
REMARK    4  A    between atoms: C_21  and  C_22
REMARK    5  A    between atoms: C_22  and  O_23
REMARK    6  A    between atoms: C_22  and  C_25
REMARK    7  A    between atoms: C_25  and  C_26
REMARK    8  A    between atoms: C_26  and  O_27
REMARK    9  A    between atoms: C_26  and  C_29
REMARK   10  A    between atoms: C_29  and  C_31
REMARK   11  A    between atoms: C_31  and  O_32
REMARK                            x       y       z     vdW  Elec       q    Type
REMARK                         _______ _______ _______ _____ _____    ______ ____
ROOT
ATOM      1  N   UNL     1      32.137 -10.566 -21.500  0.00  0.00    -0.329 N 
ATOM      2  C   UNL     1      32.714 -11.218 -22.542  0.00  0.00    +0.060 A 
ATOM      3  C   UNL     1      32.285  -9.208 -21.671  0.00  0.00    +0.060 A 
ATOM      4  C   UNL     1      33.244 -10.310 -23.406  0.00  0.00    +0.017 A 
ATOM      5  C   UNL     1      32.980  -9.020 -22.869  0.00  0.00    +0.017 A 
ATOM      6  C   UNL     1      31.862  -8.144 -20.869  0.00  0.00    +0.017 C 
ATOM      7  C   UNL     1      33.268  -7.704 -23.285  0.00  0.00    +0.001 C 
ATOM      8  C   UNL     1      32.159  -6.848 -21.301  0.00  0.00    +0.001 C 
ATOM      9  C   UNL     1      32.850  -6.630 -22.491  0.00  0.00    +0.000 C 
ENDROOT
BRANCH   4  11
ATOM     10  F   UNL     1      35.898 -11.676 -28.104  0.00  0.00    -0.204 F 
ATOM     11  C   UNL     1      33.929 -10.663 -24.620  0.00  0.00    +0.002 C 
ATOM     12  C   UNL     1      35.083  -9.975 -24.992  0.00  0.00    +0.002 C 
ATOM     13  C   UNL     1      33.439 -11.692 -25.422  0.00  0.00    +0.002 C 
ATOM     14  C   UNL     1      35.748 -10.317 -26.169  0.00  0.00    +0.030 C 
ATOM     15  C   UNL     1      34.104 -12.035 -26.599  0.00  0.00    +0.030 C 
ATOM     16  C   UNL     1      35.259 -11.347 -26.973  0.00  0.00    +0.140 C 
ENDBRANCH   4  11
BRANCH   1  17
ATOM     17  C   UNL     1      31.463 -11.172 -20.366  0.00  0.00    +0.086 C 
ATOM     18  C   UNL     1      29.947 -11.225 -20.564  0.00  0.00    +0.024 C 
ATOM     19  C   UNL     1      31.836 -10.489 -19.048  0.00  0.00    +0.024 C 
ENDBRANCH   1  17
BRANCH   2  20
ATOM     20  C   UNL     1      32.669 -12.649 -22.553  0.00  0.00    +0.015 C 
ATOM     21  C   UNL     1      33.054 -13.419 -21.523  0.00  0.00    +0.004 C 
BRANCH  21  22
ATOM     22  C   UNL     1      32.981 -14.922 -21.547  0.00  0.00    +0.135 C 
BRANCH  22  23
ATOM     23  O   UNL     1      32.488 -15.342 -20.277  0.00  0.00    -0.380 OA
ATOM     24  H   UNL     1      32.043 -14.599 -19.840  0.00  0.00    +0.211 HD
ENDBRANCH  22  23
BRANCH  22  25
ATOM     25  C   UNL     1      34.373 -15.527 -21.800  0.00  0.00    +0.064 C 
BRANCH  25  26
ATOM     26  C   UNL     1      34.488 -16.246 -23.153  0.00  0.00    +0.124 C 
BRANCH  26  27
ATOM     27  O   UNL     1      35.862 -16.487 -23.443  0.00  0.00    -0.384 OA
ATOM     28  H   UNL     1      36.062 -16.178 -24.340  0.00  0.00    +0.210 HD
ENDBRANCH  26  27
BRANCH  26  29
ATOM     29  C   UNL     1      33.843 -15.469 -24.303  0.00  0.00    +0.139 C 
BRANCH  29  31
ATOM     30  O   UNL     1      34.281 -17.367 -25.736  0.00  0.00    -0.250 OA
ATOM     31  C   UNL     1      33.857 -16.226 -25.612  0.00  0.00    +0.316 C 
BRANCH  31  32
ATOM     32  O   UNL     1      33.369 -15.497 -26.646  0.00  0.00    -0.480 OA
ATOM     33  H   UNL     1      33.898 -15.349 -27.405  0.00  0.00    +0.295 HD
ENDBRANCH  31  32
ENDBRANCH  29  31
ENDBRANCH  26  29
ENDBRANCH  25  26
ENDBRANCH  22  25
ENDBRANCH  21  22
ENDBRANCH   2  20
TORSDOF 11
ENDMDL
MODEL 5
REMARK VINA RESULT:      -9.1      2.538      4.903
REMARK  Name = 1548972
REMARK  11 active torsions:
REMARK  status: ('A' for Active; 'I' for Inactive)
REMARK    1  A    between atoms: N_1  and  C_17
REMARK    2  A    between atoms: C_2  and  C_20
REMARK    3  A    between atoms: C_4  and  C_11
REMARK    4  A    between atoms: C_21  and  C_22
REMARK    5  A    between atoms: C_22  and  O_23
REMARK    6  A    between atoms: C_22  and  C_25
REMARK    7  A    between atoms: C_25  and  C_26
REMARK    8  A    between atoms: C_26  and  O_27
REMARK    9  A    between atoms: C_26  and  C_29
REMARK   10  A    between atoms: C_29  and  C_31
REMARK   11  A    between atoms: C_31  and  O_32
REMARK                            x       y       z     vdW  Elec       q    Type
REMARK                         _______ _______ _______ _____ _____    ______ ____
ROOT
ATOM      1  N   UNL     1      32.548 -23.896 -15.159  0.00  0.00    -0.329 N 
ATOM      2  C   UNL     1      33.397 -23.397 -16.093  0.00  0.00    +0.060 A 
ATOM      3  C   UNL     1      31.251 -23.611 -15.522  0.00  0.00    +0.060 A 
ATOM      4  C   UNL     1      32.682 -22.783 -17.074  0.00  0.00    +0.017 A 
ATOM      5  C   UNL     1      31.308 -22.909 -16.729  0.00  0.00    +0.017 A 
ATOM      6  C   UNL     1      30.045 -23.918 -14.884  0.00  0.00    +0.017 C 
ATOM      7  C   UNL     1      30.102 -22.492 -17.327  0.00  0.00    +0.001 C 
ATOM      8  C   UNL     1      28.862 -23.493 -15.495  0.00  0.00    +0.001 C 
ATOM      9  C   UNL     1      28.888 -22.792 -16.699  0.00  0.00    +0.000 C 
ENDROOT
BRANCH   4  11
ATOM     10  F   UNL     1      34.973 -20.317 -21.507  0.00  0.00    -0.204 F 
ATOM     11  C   UNL     1      33.273 -22.146 -18.219  0.00  0.00    +0.002 C 
ATOM     12  C   UNL     1      34.589 -22.439 -18.575  0.00  0.00    +0.002 C 
ATOM     13  C   UNL     1      32.531 -21.237 -18.972  0.00  0.00    +0.002 C 
ATOM     14  C   UNL     1      35.163 -21.821 -19.687  0.00  0.00    +0.030 C 
ATOM     15  C   UNL     1      33.104 -20.619 -20.082  0.00  0.00    +0.030 C 
ATOM     16  C   UNL     1      34.421 -20.910 -20.440  0.00  0.00    +0.140 C 
ENDBRANCH   4  11
BRANCH   1  17
ATOM     17  C   UNL     1      32.912 -24.620 -13.955  0.00  0.00    +0.086 C 
ATOM     18  C   UNL     1      31.712 -25.341 -13.336  0.00  0.00    +0.024 C 
ATOM     19  C   UNL     1      33.616 -23.720 -12.937  0.00  0.00    +0.024 C 
ENDBRANCH   1  17
BRANCH   2  20
ATOM     20  C   UNL     1      34.803 -23.588 -15.900  0.00  0.00    +0.015 C 
ATOM     21  C   UNL     1      35.639 -22.628 -15.471  0.00  0.00    +0.004 C 
BRANCH  21  22
ATOM     22  C   UNL     1      37.110 -22.854 -15.255  0.00  0.00    +0.135 C 
BRANCH  22  23
ATOM     23  O   UNL     1      37.701 -23.049 -16.538  0.00  0.00    -0.380 OA
ATOM     24  H   UNL     1      38.544 -23.520 -16.438  0.00  0.00    +0.211 HD
ENDBRANCH  22  23
BRANCH  22  25
ATOM     25  C   UNL     1      37.344 -24.091 -14.372  0.00  0.00    +0.064 C 
BRANCH  25  26
ATOM     26  C   UNL     1      38.294 -25.120 -15.002  0.00  0.00    +0.124 C 
BRANCH  26  27
ATOM     27  O   UNL     1      37.529 -26.127 -15.659  0.00  0.00    -0.384 OA
ATOM     28  H   UNL     1      37.571 -25.992 -16.619  0.00  0.00    +0.210 HD
ENDBRANCH  26  27
BRANCH  26  29
ATOM     29  C   UNL     1      39.239 -25.767 -13.987  0.00  0.00    +0.139 C 
BRANCH  29  31
ATOM     30  O   UNL     1      41.408 -26.835 -13.977  0.00  0.00    -0.250 OA
ATOM     31  C   UNL     1      40.517 -26.282 -14.608  0.00  0.00    +0.316 C 
BRANCH  31  32
ATOM     32  O   UNL     1      40.587 -26.046 -15.942  0.00  0.00    -0.480 OA
ATOM     33  H   UNL     1      41.359 -26.279 -16.419  0.00  0.00    +0.295 HD
ENDBRANCH  31  32
ENDBRANCH  29  31
ENDBRANCH  26  29
ENDBRANCH  25  26
ENDBRANCH  22  25
ENDBRANCH  21  22
ENDBRANCH   2  20
TORSDOF 11
ENDMDL
MODEL 6
REMARK VINA RESULT:      -9.1     11.786     14.820
REMARK  Name = 1548972
REMARK  11 active torsions:
REMARK  status: ('A' for Active; 'I' for Inactive)
REMARK    1  A    between atoms: N_1  and  C_17
REMARK    2  A    between atoms: C_2  and  C_20
REMARK    3  A    between atoms: C_4  and  C_11
REMARK    4  A    between atoms: C_21  and  C_22
REMARK    5  A    between atoms: C_22  and  O_23
REMARK    6  A    between atoms: C_22  and  C_25
REMARK    7  A    between atoms: C_25  and  C_26
REMARK    8  A    between atoms: C_26  and  O_27
REMARK    9  A    between atoms: C_26  and  C_29
REMARK   10  A    between atoms: C_29  and  C_31
REMARK   11  A    between atoms: C_31  and  O_32
REMARK                            x       y       z     vdW  Elec       q    Type
REMARK                         _______ _______ _______ _____ _____    ______ ____
ROOT
ATOM      1  N   UNL     1      32.121 -10.667 -21.558  0.00  0.00    -0.329 N 
ATOM      2  C   UNL     1      32.684 -11.308 -22.615  0.00  0.00    +0.060 A 
ATOM      3  C   UNL     1      32.310  -9.310 -21.693  0.00  0.00    +0.060 A 
ATOM      4  C   UNL     1      33.246 -10.393 -23.452  0.00  0.00    +0.017 A 
ATOM      5  C   UNL     1      33.017  -9.111 -22.881  0.00  0.00    +0.017 A 
ATOM      6  C   UNL     1      31.913  -8.256 -20.864  0.00  0.00    +0.017 C 
ATOM      7  C   UNL     1      33.346  -7.794 -23.261  0.00  0.00    +0.001 C 
ATOM      8  C   UNL     1      32.250  -6.958 -21.261  0.00  0.00    +0.001 C 
ATOM      9  C   UNL     1      32.955  -6.729 -22.441  0.00  0.00    +0.000 C 
ENDROOT
BRANCH   4  11
ATOM     10  F   UNL     1      35.886 -11.715 -28.169  0.00  0.00    -0.204 F 
ATOM     11  C   UNL     1      33.928 -10.735 -24.670  0.00  0.00    +0.002 C 
ATOM     12  C   UNL     1      33.431 -11.752 -25.484  0.00  0.00    +0.002 C 
ATOM     13  C   UNL     1      35.084 -10.048 -25.036  0.00  0.00    +0.002 C 
ATOM     14  C   UNL     1      34.093 -12.083 -26.666  0.00  0.00    +0.030 C 
ATOM     15  C   UNL     1      35.747 -10.379 -26.218  0.00  0.00    +0.030 C 
ATOM     16  C   UNL     1      35.251 -11.397 -27.034  0.00  0.00    +0.140 C 
ENDBRANCH   4  11
BRANCH   1  17
ATOM     17  C   UNL     1      31.422 -11.282 -20.444  0.00  0.00    +0.086 C 
ATOM     18  C   UNL     1      29.904 -11.260 -20.639  0.00  0.00    +0.024 C 
ATOM     19  C   UNL     1      31.828 -10.665 -19.104  0.00  0.00    +0.024 C 
ENDBRANCH   1  17
BRANCH   2  20
ATOM     20  C   UNL     1      32.597 -12.736 -22.664  0.00  0.00    +0.015 C 
ATOM     21  C   UNL     1      33.546 -13.562 -22.193  0.00  0.00    +0.004 C 
BRANCH  21  22
ATOM     22  C   UNL     1      33.427 -15.061 -22.237  0.00  0.00    +0.135 C 
BRANCH  22  23
ATOM     23  O   UNL     1      32.207 -15.409 -21.587  0.00  0.00    -0.380 OA
ATOM     24  H   UNL     1      31.459 -15.190 -22.165  0.00  0.00    +0.211 HD
ENDBRANCH  22  23
BRANCH  22  25
ATOM     25  C   UNL     1      34.616 -15.719 -21.516  0.00  0.00    +0.064 C 
BRANCH  25  26
ATOM     26  C   UNL     1      35.370 -16.736 -22.387  0.00  0.00    +0.124 C 
BRANCH  26  27
ATOM     27  O   UNL     1      35.622 -16.165 -23.667  0.00  0.00    -0.384 OA
ATOM     28  H   UNL     1      35.000 -15.438 -23.826  0.00  0.00    +0.210 HD
ENDBRANCH  26  27
BRANCH  26  29
ATOM     29  C   UNL     1      34.620 -18.060 -22.549  0.00  0.00    +0.139 C 
BRANCH  29  31
ATOM     30  O   UNL     1      35.674 -18.958 -20.567  0.00  0.00    -0.250 OA
ATOM     31  C   UNL     1      34.720 -18.953 -21.333  0.00  0.00    +0.316 C 
BRANCH  31  32
ATOM     32  O   UNL     1      33.647 -19.770 -21.190  0.00  0.00    -0.480 OA
ATOM     33  H   UNL     1      33.221 -20.120 -21.947  0.00  0.00    +0.295 HD
ENDBRANCH  31  32
ENDBRANCH  29  31
ENDBRANCH  26  29
ENDBRANCH  25  26
ENDBRANCH  22  25
ENDBRANCH  21  22
ENDBRANCH   2  20
TORSDOF 11
ENDMDL
MODEL 7
REMARK VINA RESULT:      -9.0     10.454     13.536
REMARK  Name = 1548972
REMARK  11 active torsions:
REMARK  status: ('A' for Active; 'I' for Inactive)
REMARK    1  A    between atoms: N_1  and  C_17
REMARK    2  A    between atoms: C_2  and  C_20
REMARK    3  A    between atoms: C_4  and  C_11
REMARK    4  A    between atoms: C_21  and  C_22
REMARK    5  A    between atoms: C_22  and  O_23
REMARK    6  A    between atoms: C_22  and  C_25
REMARK    7  A    between atoms: C_25  and  C_26
REMARK    8  A    between atoms: C_26  and  O_27
REMARK    9  A    between atoms: C_26  and  C_29
REMARK   10  A    between atoms: C_29  and  C_31
REMARK   11  A    between atoms: C_31  and  O_32
REMARK                            x       y       z     vdW  Elec       q    Type
REMARK                         _______ _______ _______ _____ _____    ______ ____
ROOT
ATOM      1  N   UNL     1      32.587 -10.912 -22.678  0.00  0.00    -0.329 N 
ATOM      2  C   UNL     1      32.948 -12.218 -22.767  0.00  0.00    +0.060 A 
ATOM      3  C   UNL     1      32.143 -10.647 -21.402  0.00  0.00    +0.060 A 
ATOM      4  C   UNL     1      32.750 -12.826 -21.565  0.00  0.00    +0.017 A 
ATOM      5  C   UNL     1      32.236 -11.839 -20.679  0.00  0.00    +0.017 A 
ATOM      6  C   UNL     1      31.672  -9.457 -20.838  0.00  0.00    +0.017 C 
ATOM      7  C   UNL     1      31.839 -11.844 -19.327  0.00  0.00    +0.001 C 
ATOM      8  C   UNL     1      31.283  -9.486 -19.496  0.00  0.00    +0.001 C 
ATOM      9  C   UNL     1      31.365 -10.661 -18.750  0.00  0.00    +0.000 C 
ENDROOT
BRANCH   4  11
ATOM     10  F   UNL     1      33.836 -18.195 -20.585  0.00  0.00    -0.204 F 
ATOM     11  C   UNL     1      33.031 -14.213 -21.312  0.00  0.00    +0.002 C 
ATOM     12  C   UNL     1      31.982 -15.107 -21.098  0.00  0.00    +0.002 C 
ATOM     13  C   UNL     1      34.350 -14.662 -21.282  0.00  0.00    +0.002 C 
ATOM     14  C   UNL     1      32.255 -16.452 -20.852  0.00  0.00    +0.030 C 
ATOM     15  C   UNL     1      34.623 -16.007 -21.035  0.00  0.00    +0.030 C 
ATOM     16  C   UNL     1      33.575 -16.903 -20.821  0.00  0.00    +0.140 C 
ENDBRANCH   4  11
BRANCH   1  17
ATOM     17  C   UNL     1      32.645  -9.923 -23.738  0.00  0.00    +0.086 C 
ATOM     18  C   UNL     1      34.002  -9.216 -23.786  0.00  0.00    +0.024 C 
ATOM     19  C   UNL     1      31.491  -8.922 -23.651  0.00  0.00    +0.024 C 
ENDBRANCH   1  17
BRANCH   2  20
ATOM     20  C   UNL     1      33.441 -12.699 -24.022  0.00  0.00    +0.015 C 
ATOM     21  C   UNL     1      33.035 -13.843 -24.599  0.00  0.00    +0.004 C 
BRANCH  21  22
ATOM     22  C   UNL     1      33.551 -14.322 -25.928  0.00  0.00    +0.135 C 
BRANCH  22  23
ATOM     23  O   UNL     1      32.676 -13.810 -26.931  0.00  0.00    -0.380 OA
ATOM     24  H   UNL     1      31.811 -14.243 -26.858  0.00  0.00    +0.211 HD
ENDBRANCH  22  23
BRANCH  22  25
ATOM     25  C   UNL     1      33.571 -15.859 -25.979  0.00  0.00    +0.064 C 
BRANCH  25  26
ATOM     26  C   UNL     1      34.249 -16.501 -24.759  0.00  0.00    +0.124 C 
BRANCH  26  27
ATOM     27  O   UNL     1      35.460 -15.806 -24.474  0.00  0.00    -0.384 OA
ATOM     28  H   UNL     1      35.267 -14.867 -24.325  0.00  0.00    +0.210 HD
ENDBRANCH  26  27
BRANCH  26  29
ATOM     29  C   UNL     1      34.539 -17.991 -24.949  0.00  0.00    +0.139 C 
BRANCH  29  31
ATOM     30  O   UNL     1      34.524 -19.555 -23.105  0.00  0.00    -0.250 OA
ATOM     31  C   UNL     1      35.091 -18.652 -23.706  0.00  0.00    +0.316 C 
BRANCH  31  32
ATOM     32  O   UNL     1      36.274 -18.123 -23.309  0.00  0.00    -0.480 OA
ATOM     33  H   UNL     1      36.640 -17.394 -23.771  0.00  0.00    +0.295 HD
ENDBRANCH  31  32
ENDBRANCH  29  31
ENDBRANCH  26  29
ENDBRANCH  25  26
ENDBRANCH  22  25
ENDBRANCH  21  22
ENDBRANCH   2  20
TORSDOF 11
ENDMDL
MODEL 8
REMARK VINA RESULT:      -8.9     14.395     17.132
REMARK  Name = 1548972
REMARK  11 active torsions:
REMARK  status: ('A' for Active; 'I' for Inactive)
REMARK    1  A    between atoms: N_1  and  C_17
REMARK    2  A    between atoms: C_2  and  C_20
REMARK    3  A    between atoms: C_4  and  C_11
REMARK    4  A    between atoms: C_21  and  C_22
REMARK    5  A    between atoms: C_22  and  O_23
REMARK    6  A    between atoms: C_22  and  C_25
REMARK    7  A    between atoms: C_25  and  C_26
REMARK    8  A    between atoms: C_26  and  O_27
REMARK    9  A    between atoms: C_26  and  C_29
REMARK   10  A    between atoms: C_29  and  C_31
REMARK   11  A    between atoms: C_31  and  O_32
REMARK                            x       y       z     vdW  Elec       q    Type
REMARK                         _______ _______ _______ _____ _____    ______ ____
ROOT
ATOM      1  N   UNL     1      32.988  -6.900 -24.122  0.00  0.00    -0.329 N 
ATOM      2  C   UNL     1      32.992  -8.050 -23.399  0.00  0.00    +0.060 A 
ATOM      3  C   UNL     1      32.169  -5.979 -23.510  0.00  0.00    +0.060 A 
ATOM      4  C   UNL     1      32.185  -7.905 -22.313  0.00  0.00    +0.017 A 
ATOM      5  C   UNL     1      31.650  -6.588 -22.365  0.00  0.00    +0.017 A 
ATOM      6  C   UNL     1      31.852  -4.667 -23.877  0.00  0.00    +0.017 C 
ATOM      7  C   UNL     1      30.770  -5.852 -21.546  0.00  0.00    +0.001 C 
ATOM      8  C   UNL     1      30.977  -3.956 -23.050  0.00  0.00    +0.001 C 
ATOM      9  C   UNL     1      30.444  -4.538 -21.902  0.00  0.00    +0.000 C 
ENDROOT
BRANCH   4  11
ATOM     10  F   UNL     1      31.322 -11.894 -18.530  0.00  0.00    -0.204 F 
ATOM     11  C   UNL     1      31.962  -8.935 -21.336  0.00  0.00    +0.002 C 
ATOM     12  C   UNL     1      31.295 -10.104 -21.698  0.00  0.00    +0.002 C 
ATOM     13  C   UNL     1      32.413  -8.764 -20.028  0.00  0.00    +0.002 C 
ATOM     14  C   UNL     1      31.079 -11.104 -20.749  0.00  0.00    +0.030 C 
ATOM     15  C   UNL     1      32.197  -9.763 -19.080  0.00  0.00    +0.030 C 
ATOM     16  C   UNL     1      31.529 -10.934 -19.440  0.00  0.00    +0.140 C 
ENDBRANCH   4  11
BRANCH   1  17
ATOM     17  C   UNL     1      33.719  -6.647 -25.350  0.00  0.00    +0.086 C 
ATOM     18  C   UNL     1      35.213  -6.435 -25.093  0.00  0.00    +0.024 C 
ATOM     19  C   UNL     1      33.114  -5.489 -26.147  0.00  0.00    +0.024 C 
ENDBRANCH   1  17
BRANCH   2  20
ATOM     20  C   UNL     1      33.788  -9.143 -23.870  0.00  0.00    +0.015 C 
ATOM     21  C   UNL     1      33.278 -10.288 -24.353  0.00  0.00    +0.004 C 
BRANCH  21  22
ATOM     22  C   UNL     1      34.132 -11.418 -24.862  0.00  0.00    +0.135 C 
BRANCH  22  23
ATOM     23  O   UNL     1      33.613 -11.802 -26.134  0.00  0.00    -0.380 OA
ATOM     24  H   UNL     1      34.017 -12.640 -26.408  0.00  0.00    +0.211 HD
ENDBRANCH  22  23
BRANCH  22  25
ATOM     25  C   UNL     1      34.087 -12.610 -23.891  0.00  0.00    +0.064 C 
BRANCH  25  26
ATOM     26  C   UNL     1      32.971 -13.615 -24.211  0.00  0.00    +0.124 C 
BRANCH  26  27
ATOM     27  O   UNL     1      31.962 -13.534 -23.207  0.00  0.00    -0.384 OA
ATOM     28  H   UNL     1      32.360 -13.684 -22.335  0.00  0.00    +0.210 HD
ENDBRANCH  26  27
BRANCH  26  29
ATOM     29  C   UNL     1      33.474 -15.056 -24.324  0.00  0.00    +0.139 C 
BRANCH  29  31
ATOM     30  O   UNL     1      33.404 -14.865 -26.733  0.00  0.00    -0.250 OA
ATOM     31  C   UNL     1      33.808 -15.458 -25.742  0.00  0.00    +0.316 C 
BRANCH  31  32
ATOM     32  O   UNL     1      34.587 -16.567 -25.806  0.00  0.00    -0.480 OA
ATOM     33  H   UNL     1      34.225 -17.406 -25.600  0.00  0.00    +0.295 HD
ENDBRANCH  31  32
ENDBRANCH  29  31
ENDBRANCH  26  29
ENDBRANCH  25  26
ENDBRANCH  22  25
ENDBRANCH  21  22
ENDBRANCH   2  20
TORSDOF 11
ENDMDL
MODEL 9
REMARK VINA RESULT:      -8.3     13.997     17.519
REMARK  Name = 1548972
REMARK  11 active torsions:
REMARK  status: ('A' for Active; 'I' for Inactive)
REMARK    1  A    between atoms: N_1  and  C_17
REMARK    2  A    between atoms: C_2  and  C_20
REMARK    3  A    between atoms: C_4  and  C_11
REMARK    4  A    between atoms: C_21  and  C_22
REMARK    5  A    between atoms: C_22  and  O_23
REMARK    6  A    between atoms: C_22  and  C_25
REMARK    7  A    between atoms: C_25  and  C_26
REMARK    8  A    between atoms: C_26  and  O_27
REMARK    9  A    between atoms: C_26  and  C_29
REMARK   10  A    between atoms: C_29  and  C_31
REMARK   11  A    between atoms: C_31  and  O_32
REMARK                            x       y       z     vdW  Elec       q    Type
REMARK                         _______ _______ _______ _____ _____    ______ ____
ROOT
ATOM      1  N   UNL     1      32.131 -12.303 -21.549  0.00  0.00    -0.329 N 
ATOM      2  C   UNL     1      32.561 -11.578 -22.614  0.00  0.00    +0.060 A 
ATOM      3  C   UNL     1      32.666 -13.569 -21.613  0.00  0.00    +0.060 A 
ATOM      4  C   UNL     1      33.376 -12.346 -23.386  0.00  0.00    +0.017 A 
ATOM      5  C   UNL     1      33.457 -13.623 -22.764  0.00  0.00    +0.017 A 
ATOM      6  C   UNL     1      32.514 -14.660 -20.751  0.00  0.00    +0.017 C 
ATOM      7  C   UNL     1      34.127 -14.824 -23.070  0.00  0.00    +0.001 C 
ATOM      8  C   UNL     1      33.188 -15.841 -21.074  0.00  0.00    +0.001 C 
ATOM      9  C   UNL     1      33.983 -15.923 -22.215  0.00  0.00    +0.000 C 
ENDROOT
BRANCH   4  11
ATOM     10  F   UNL     1      35.809 -10.563 -28.063  0.00  0.00    -0.204 F 
ATOM     11  C   UNL     1      34.004 -11.886 -24.594  0.00  0.00    +0.002 C 
ATOM     12  C   UNL     1      34.889 -10.810 -24.551  0.00  0.00    +0.002 C 
ATOM     13  C   UNL     1      33.728 -12.516 -25.806  0.00  0.00    +0.002 C 
ATOM     14  C   UNL     1      35.499 -10.363 -25.724  0.00  0.00    +0.030 C 
ATOM     15  C   UNL     1      34.337 -12.070 -26.979  0.00  0.00    +0.030 C 
ATOM     16  C   UNL     1      35.223 -10.992 -26.938  0.00  0.00    +0.140 C 
ENDBRANCH   4  11
BRANCH   1  17
ATOM     17  C   UNL     1      31.248 -11.848 -20.491  0.00  0.00    +0.086 C 
ATOM     18  C   UNL     1      30.035 -11.096 -21.044  0.00  0.00    +0.024 C 
ATOM     19  C   UNL     1      31.992 -11.022 -19.439  0.00  0.00    +0.024 C 
ENDBRANCH   1  17
BRANCH   2  20
ATOM     20  C   UNL     1      32.114 -10.223 -22.733  0.00  0.00    +0.015 C 
ATOM     21  C   UNL     1      32.861  -9.155 -22.408  0.00  0.00    +0.004 C 
BRANCH  21  22
ATOM     22  C   UNL     1      32.380  -7.737 -22.560  0.00  0.00    +0.135 C 
BRANCH  22  23
ATOM     23  O   UNL     1      31.625  -7.419 -21.392  0.00  0.00    -0.380 OA
ATOM     24  H   UNL     1      32.116  -6.777 -20.855  0.00  0.00    +0.211 HD
ENDBRANCH  22  23
BRANCH  22  25
ATOM     25  C   UNL     1      31.499  -7.596 -23.813  0.00  0.00    +0.064 C 
BRANCH  25  26
ATOM     26  C   UNL     1      31.818  -6.344 -24.644  0.00  0.00    +0.124 C 
BRANCH  26  27
ATOM     27  O   UNL     1      33.130  -5.888 -24.325  0.00  0.00    -0.384 OA
ATOM     28  H   UNL     1      33.327  -5.086 -24.834  0.00  0.00    +0.210 HD
ENDBRANCH  26  27
BRANCH  26  29
ATOM     29  C   UNL     1      30.810  -5.212 -24.435  0.00  0.00    +0.139 C 
BRANCH  29  31
ATOM     30  O   UNL     1      30.141  -4.972 -22.124  0.00  0.00    -0.250 OA
ATOM     31  C   UNL     1      30.864  -4.618 -23.046  0.00  0.00    +0.316 C 
BRANCH  31  32
ATOM     32  O   UNL     1      31.786  -3.630 -22.930  0.00  0.00    -0.480 OA
ATOM     33  H   UNL     1      31.776  -2.909 -23.528  0.00  0.00    +0.295 HD
ENDBRANCH  31  32
ENDBRANCH  29  31
ENDBRANCH  26  29
ENDBRANCH  25  26
ENDBRANCH  22  25
ENDBRANCH  21  22
ENDBRANCH   2  20
TORSDOF 11
ENDMDL
