MODEL 1
REMARK VINA RESULT:      -9.3      0.000      0.000
REMARK  Name = 121945
REMARK  11 active torsions:
REMARK  status: ('A' for Active; 'I' for Inactive)
REMARK    1  A    between atoms: S_1  and  C_4
REMARK    2  A    between atoms: S_1  and  N_17
REMARK    3  A    between atoms: C_7  and  N_14
REMARK    4  A    between atoms: N_17  and  C_20
REMARK    5  A    between atoms: C_20  and  C_21
REMARK    6  A    between atoms: C_21  and  C_22
REMARK    7  A    between atoms: C_22  and  C_23
REMARK    8  A    between atoms: C_23  and  C_24
REMARK    9  A    between atoms: C_24  and  N_25
REMARK   10  A    between atoms: C_24  and  C_30
REMARK   11  A    between atoms: C_30  and  O_31
REMARK                            x       y       z     vdW  Elec       q    Type
REMARK                         _______ _______ _______ _____ _____    ______ ____
ROOT
ATOM      1  S   UNK     1      35.521 -24.129 -15.175  0.00  0.00    -0.021 S 
ATOM      2  O   UNK     1      35.501 -25.558 -14.928  0.00  0.00    -0.185 OA
ATOM      3  O   UNK     1      36.543 -23.550 -16.026  0.00  0.00    -0.185 OA
ENDROOT
BRANCH   1   4
ATOM      4  C   UNK     1      33.959 -23.672 -15.864  0.00  0.00    +0.090 C 
ATOM      5  C   UNK     1      32.745 -23.957 -15.227  0.00  0.00    +0.016 C 
ATOM      6  C   UNK     1      31.537 -23.556 -15.846  0.00  0.00    +0.014 C 
ATOM      7  C   UNK     1      30.316 -23.838 -15.214  0.00  0.00    +0.048 C 
ATOM      8  C   UNK     1      33.999 -23.007 -17.084  0.00  0.00    +0.016 C 
ATOM      9  C   UNK     1      32.696 -24.628 -13.995  0.00  0.00    +0.001 C 
ATOM     10  C   UNK     1      31.587 -22.885 -17.079  0.00  0.00    +0.001 C 
ATOM     11  C   UNK     1      32.810 -22.613 -17.693  0.00  0.00    +0.001 C 
ATOM     12  C   UNK     1      30.285 -24.506 -13.989  0.00  0.00    +0.015 C 
ATOM     13  C   UNK     1      31.474 -24.899 -13.381  0.00  0.00    +0.001 C 
BRANCH   7  14
ATOM     14  N   UNK     1      29.078 -23.460 -15.790  0.00  0.00    -0.304 N 
ATOM     15  C   UNK     1      28.429 -24.325 -16.752  0.00  0.00    +0.112 C 
ATOM     16  C   UNK     1      28.447 -22.216 -15.411  0.00  0.00    +0.112 C 
ENDBRANCH   7  14
ENDBRANCH   1   4
BRANCH   1  17
ATOM     17  N   UNK     1      35.504 -23.300 -13.691  0.00  0.00    +0.435 N 
ATOM     18  H   UNK     1      34.782 -23.736 -13.118  0.00  0.00    -0.049 HD
ATOM     19  H   UNK     1      35.362 -22.329 -13.966  0.00  0.00    -0.049 HD
BRANCH  17  20
ATOM     20  C   UNK     1      36.729 -23.244 -12.863  0.00  0.00    -0.049 C 
BRANCH  20  21
ATOM     21  C   UNK     1      36.714 -24.352 -11.815  0.00  0.00    -0.020 C 
BRANCH  21  22
ATOM     22  C   UNK     1      37.702 -25.480 -12.136  0.00  0.00    -0.004 C 
BRANCH  22  23
ATOM     23  C   UNK     1      38.800 -24.993 -13.092  0.00  0.00    -0.011 C 
BRANCH  23  24
ATOM     24  C   UNK     1      38.884 -25.756 -14.423  0.00  0.00    +0.036 C 
BRANCH  24  25
ATOM     25  N   UNK     1      38.084 -26.979 -14.399  0.00  0.00    +0.389 N 
ATOM     26  H   UNK     1      37.371 -26.905 -13.674  0.00  0.00    -0.088 HD
ATOM     27  H   UNK     1      38.688 -27.777 -14.203  0.00  0.00    -0.088 HD
ATOM     28  H   UNK     1      37.634 -27.108 -15.306  0.00  0.00    -0.088 HD
ENDBRANCH  24  25
BRANCH  24  30
ATOM     29  O   UNK     1      41.166 -26.548 -14.039  0.00  0.00    -0.253 OA
ATOM     30  C   UNK     1      40.309 -26.112 -14.795  0.00  0.00    +0.293 C 
BRANCH  30  31
ATOM     31  O   UNK     1      40.524 -25.898 -16.120  0.00  0.00    -0.482 OA
ATOM     32  H   UNK     1      41.362 -25.602 -16.417  0.00  0.00    +0.295 HD
ENDBRANCH  30  31
ENDBRANCH  24  30
ENDBRANCH  23  24
ENDBRANCH  22  23
ENDBRANCH  21  22
ENDBRANCH  20  21
ENDBRANCH  17  20
ENDBRANCH   1  17
TORSDOF 11
ENDMDL
MODEL 2
REMARK VINA RESULT:      -9.0      5.263      8.872
REMARK  Name = 121945
REMARK  11 active torsions:
REMARK  status: ('A' for Active; 'I' for Inactive)
REMARK    1  A    between atoms: S_1  and  C_4
REMARK    2  A    between atoms: S_1  and  N_17
REMARK    3  A    between atoms: C_7  and  N_14
REMARK    4  A    between atoms: N_17  and  C_20
REMARK    5  A    between atoms: C_20  and  C_21
REMARK    6  A    between atoms: C_21  and  C_22
REMARK    7  A    between atoms: C_22  and  C_23
REMARK    8  A    between atoms: C_23  and  C_24
REMARK    9  A    between atoms: C_24  and  N_25
REMARK   10  A    between atoms: C_24  and  C_30
REMARK   11  A    between atoms: C_30  and  O_31
REMARK                            x       y       z     vdW  Elec       q    Type
REMARK                         _______ _______ _______ _____ _____    ______ ____
ROOT
ATOM      1  S   UNK     1      34.445 -22.623 -18.830  0.00  0.00    -0.021 S 
ATOM      2  O   UNK     1      34.303 -23.753 -19.729  0.00  0.00    -0.185 OA
ATOM      3  O   UNK     1      35.715 -22.366 -18.177  0.00  0.00    -0.185 OA
ENDROOT
BRANCH   1   4
ATOM      4  C   UNK     1      34.017 -21.158 -19.721  0.00  0.00    +0.090 C 
ATOM      5  C   UNK     1      34.979 -20.331 -20.311  0.00  0.00    +0.016 C 
ATOM      6  C   UNK     1      34.553 -19.175 -21.008  0.00  0.00    +0.014 C 
ATOM      7  C   UNK     1      35.511 -18.341 -21.605  0.00  0.00    +0.048 C 
ATOM      8  C   UNK     1      32.660 -20.866 -19.803  0.00  0.00    +0.016 C 
ATOM      9  C   UNK     1      36.351 -20.618 -20.233  0.00  0.00    +0.001 C 
ATOM     10  C   UNK     1      33.180 -18.888 -21.087  0.00  0.00    +0.001 C 
ATOM     11  C   UNK     1      32.241 -19.729 -20.488  0.00  0.00    +0.001 C 
ATOM     12  C   UNK     1      36.870 -18.641 -21.516  0.00  0.00    +0.015 C 
ATOM     13  C   UNK     1      37.289 -19.778 -20.832  0.00  0.00    +0.001 C 
BRANCH   7  14
ATOM     14  N   UNK     1      35.139 -17.171 -22.312  0.00  0.00    -0.304 N 
ATOM     15  C   UNK     1      35.044 -17.194 -23.756  0.00  0.00    +0.112 C 
ATOM     16  C   UNK     1      34.837 -15.952 -21.597  0.00  0.00    +0.112 C 
ENDBRANCH   7  14
ENDBRANCH   1   4
BRANCH   1  17
ATOM     17  N   UNK     1      33.222 -22.685 -17.650  0.00  0.00    +0.435 N 
ATOM     18  H   UNK     1      32.449 -23.212 -18.055  0.00  0.00    -0.049 HD
ATOM     19  H   UNK     1      33.057 -21.703 -17.432  0.00  0.00    -0.049 HD
BRANCH  17  20
ATOM     20  C   UNK     1      33.502 -23.286 -16.328  0.00  0.00    -0.049 C 
BRANCH  20  21
ATOM     21  C   UNK     1      32.201 -23.528 -15.568  0.00  0.00    -0.020 C 
BRANCH  21  22
ATOM     22  C   UNK     1      30.974 -22.991 -16.315  0.00  0.00    -0.004 C 
BRANCH  22  23
ATOM     23  C   UNK     1      29.870 -22.577 -15.331  0.00  0.00    -0.011 C 
BRANCH  23  24
ATOM     24  C   UNK     1      28.506 -23.242 -15.572  0.00  0.00    +0.036 C 
BRANCH  24  25
ATOM     25  N   UNK     1      28.613 -24.699 -15.620  0.00  0.00    +0.389 N 
ATOM     26  H   UNK     1      28.043 -25.106 -14.879  0.00  0.00    -0.088 HD
ATOM     27  H   UNK     1      29.586 -24.974 -15.491  0.00  0.00    -0.088 HD
ATOM     28  H   UNK     1      28.282 -25.034 -16.526  0.00  0.00    -0.088 HD
ENDBRANCH  24  25
BRANCH  24  30
ATOM     29  O   UNK     1      27.528 -21.606 -17.105  0.00  0.00    -0.253 OA
ATOM     30  C   UNK     1      27.845 -22.759 -16.848  0.00  0.00    +0.293 C 
BRANCH  30  31
ATOM     31  O   UNK     1      27.655 -23.794 -17.708  0.00  0.00    -0.482 OA
ATOM     32  H   UNK     1      26.880 -23.830 -18.233  0.00  0.00    +0.295 HD
ENDBRANCH  30  31
ENDBRANCH  24  30
ENDBRANCH  23  24
ENDBRANCH  22  23
ENDBRANCH  21  22
ENDBRANCH  20  21
ENDBRANCH  17  20
ENDBRANCH   1  17
TORSDOF 11
ENDMDL
MODEL 3
REMARK VINA RESULT:      -8.9      5.533      8.800
REMARK  Name = 121945
REMARK  11 active torsions:
REMARK  status: ('A' for Active; 'I' for Inactive)
REMARK    1  A    between atoms: S_1  and  C_4
REMARK    2  A    between atoms: S_1  and  N_17
REMARK    3  A    between atoms: C_7  and  N_14
REMARK    4  A    between atoms: N_17  and  C_20
REMARK    5  A    between atoms: C_20  and  C_21
REMARK    6  A    between atoms: C_21  and  C_22
REMARK    7  A    between atoms: C_22  and  C_23
REMARK    8  A    between atoms: C_23  and  C_24
REMARK    9  A    between atoms: C_24  and  N_25
REMARK   10  A    between atoms: C_24  and  C_30
REMARK   11  A    between atoms: C_30  and  O_31
REMARK                            x       y       z     vdW  Elec       q    Type
REMARK                         _______ _______ _______ _____ _____    ______ ____
ROOT
ATOM      1  S   UNK     1      33.755 -22.515 -18.625  0.00  0.00    -0.021 S 
ATOM      2  O   UNK     1      33.864 -23.700 -19.455  0.00  0.00    -0.185 OA
ATOM      3  O   UNK     1      32.537 -22.254 -17.881  0.00  0.00    -0.185 OA
ENDROOT
BRANCH   1   4
ATOM      4  C   UNK     1      35.078 -22.546 -17.453  0.00  0.00    +0.090 C 
ATOM      5  C   UNK     1      34.954 -23.151 -16.197  0.00  0.00    +0.016 C 
ATOM      6  C   UNK     1      36.062 -23.132 -15.316  0.00  0.00    +0.014 C 
ATOM      7  C   UNK     1      35.945 -23.738 -14.055  0.00  0.00    +0.048 C 
ATOM      8  C   UNK     1      36.260 -21.930 -17.847  0.00  0.00    +0.016 C 
ATOM      9  C   UNK     1      33.764 -23.774 -15.790  0.00  0.00    +0.001 C 
ATOM     10  C   UNK     1      37.253 -22.508 -15.723  0.00  0.00    +0.001 C 
ATOM     11  C   UNK     1      37.350 -21.911 -16.980  0.00  0.00    +0.001 C 
ATOM     12  C   UNK     1      34.756 -24.353 -13.667  0.00  0.00    +0.015 C 
ATOM     13  C   UNK     1      33.667 -24.372 -14.534  0.00  0.00    +0.001 C 
BRANCH   7  14
ATOM     14  N   UNK     1      37.023 -23.746 -13.135  0.00  0.00    -0.304 N 
ATOM     15  C   UNK     1      37.023 -22.840 -12.006  0.00  0.00    +0.112 C 
ATOM     16  C   UNK     1      38.122 -24.669 -13.307  0.00  0.00    +0.112 C 
ENDBRANCH   7  14
ENDBRANCH   1   4
BRANCH   1  17
ATOM     17  N   UNK     1      34.141 -21.141 -19.550  0.00  0.00    +0.435 N 
ATOM     18  H   UNK     1      34.911 -21.406 -20.164  0.00  0.00    -0.049 HD
ATOM     19  H   UNK     1      34.327 -20.428 -18.845  0.00  0.00    -0.049 HD
BRANCH  17  20
ATOM     20  C   UNK     1      33.109 -20.515 -20.406  0.00  0.00    -0.049 C 
BRANCH  20  21
ATOM     21  C   UNK     1      33.675 -19.280 -21.102  0.00  0.00    -0.020 C 
BRANCH  21  22
ATOM     22  C   UNK     1      35.114 -19.486 -21.590  0.00  0.00    -0.004 C 
BRANCH  22  23
ATOM     23  C   UNK     1      35.534 -18.363 -22.548  0.00  0.00    -0.011 C 
BRANCH  23  24
ATOM     24  C   UNK     1      34.654 -18.215 -23.799  0.00  0.00    +0.036 C 
BRANCH  24  25
ATOM     25  N   UNK     1      34.755 -19.381 -24.676  0.00  0.00    +0.389 N 
ATOM     26  H   UNK     1      35.402 -19.179 -25.437  0.00  0.00    -0.088 HD
ATOM     27  H   UNK     1      33.835 -19.599 -25.060  0.00  0.00    -0.088 HD
ATOM     28  H   UNK     1      35.097 -20.180 -24.141  0.00  0.00    -0.088 HD
ENDBRANCH  24  25
BRANCH  24  30
ATOM     29  O   UNK     1      34.730 -16.782 -25.779  0.00  0.00    -0.253 OA
ATOM     30  C   UNK     1      34.990 -16.973 -24.599  0.00  0.00    +0.293 C 
BRANCH  30  31
ATOM     31  O   UNK     1      35.622 -16.059 -23.818  0.00  0.00    -0.482 OA
ATOM     32  H   UNK     1      35.717 -15.175 -24.114  0.00  0.00    +0.295 HD
ENDBRANCH  30  31
ENDBRANCH  24  30
ENDBRANCH  23  24
ENDBRANCH  22  23
ENDBRANCH  21  22
ENDBRANCH  20  21
ENDBRANCH  17  20
ENDBRANCH   1  17
TORSDOF 11
ENDMDL
MODEL 4
REMARK VINA RESULT:      -8.8      8.057     10.025
REMARK  Name = 121945
REMARK  11 active torsions:
REMARK  status: ('A' for Active; 'I' for Inactive)
REMARK    1  A    between atoms: S_1  and  C_4
REMARK    2  A    between atoms: S_1  and  N_17
REMARK    3  A    between atoms: C_7  and  N_14
REMARK    4  A    between atoms: N_17  and  C_20
REMARK    5  A    between atoms: C_20  and  C_21
REMARK    6  A    between atoms: C_21  and  C_22
REMARK    7  A    between atoms: C_22  and  C_23
REMARK    8  A    between atoms: C_23  and  C_24
REMARK    9  A    between atoms: C_24  and  N_25
REMARK   10  A    between atoms: C_24  and  C_30
REMARK   11  A    between atoms: C_30  and  O_31
REMARK                            x       y       z     vdW  Elec       q    Type
REMARK                         _______ _______ _______ _____ _____    ______ ____
ROOT
ATOM      1  S   UNK     1      35.362 -18.643 -22.296  0.00  0.00    -0.021 S 
ATOM      2  O   UNK     1      34.243 -19.381 -22.849  0.00  0.00    -0.185 OA
ATOM      3  O   UNK     1      36.623 -18.585 -23.012  0.00  0.00    -0.185 OA
ENDROOT
BRANCH   1   4
ATOM      4  C   UNK     1      34.841 -16.974 -22.036  0.00  0.00    +0.090 C 
ATOM      5  C   UNK     1      34.369 -16.165 -23.076  0.00  0.00    +0.016 C 
ATOM      6  C   UNK     1      33.970 -14.838 -22.783  0.00  0.00    +0.014 C 
ATOM      7  C   UNK     1      33.494 -14.021 -23.820  0.00  0.00    +0.048 C 
ATOM      8  C   UNK     1      34.926 -16.502 -20.731  0.00  0.00    +0.016 C 
ATOM      9  C   UNK     1      34.279 -16.633 -24.396  0.00  0.00    +0.001 C 
ATOM     10  C   UNK     1      34.059 -14.370 -21.462  0.00  0.00    +0.001 C 
ATOM     11  C   UNK     1      34.534 -15.197 -20.444  0.00  0.00    +0.001 C 
ATOM     12  C   UNK     1      33.412 -14.502 -25.127  0.00  0.00    +0.015 C 
ATOM     13  C   UNK     1      33.804 -15.806 -25.414  0.00  0.00    +0.001 C 
BRANCH   7  14
ATOM     14  N   UNK     1      33.084 -12.685 -23.583  0.00  0.00    -0.304 N 
ATOM     15  C   UNK     1      31.987 -12.411 -22.679  0.00  0.00    +0.112 C 
ATOM     16  C   UNK     1      33.766 -11.587 -24.229  0.00  0.00    +0.112 C 
ENDBRANCH   7  14
ENDBRANCH   1   4
BRANCH   1  17
ATOM     17  N   UNK     1      35.655 -19.168 -20.706  0.00  0.00    +0.435 N 
ATOM     18  H   UNK     1      35.160 -18.526 -20.087  0.00  0.00    -0.049 HD
ATOM     19  H   UNK     1      36.672 -19.185 -20.648  0.00  0.00    -0.049 HD
BRANCH  17  20
ATOM     20  C   UNK     1      35.267 -20.537 -20.298  0.00  0.00    -0.049 C 
BRANCH  20  21
ATOM     21  C   UNK     1      36.358 -21.163 -19.434  0.00  0.00    -0.020 C 
BRANCH  21  22
ATOM     22  C   UNK     1      35.789 -21.986 -18.272  0.00  0.00    -0.004 C 
BRANCH  22  23
ATOM     23  C   UNK     1      36.736 -21.955 -17.063  0.00  0.00    -0.011 C 
BRANCH  23  24
ATOM     24  C   UNK     1      36.408 -22.971 -15.958  0.00  0.00    +0.036 C 
BRANCH  24  25
ATOM     25  N   UNK     1      35.305 -22.517 -15.113  0.00  0.00    +0.389 N 
ATOM     26  H   UNK     1      35.341 -21.502 -15.023  0.00  0.00    -0.088 HD
ATOM     27  H   UNK     1      35.387 -22.942 -14.189  0.00  0.00    -0.088 HD
ATOM     28  H   UNK     1      34.417 -22.790 -15.536  0.00  0.00    -0.088 HD
ENDBRANCH  24  25
BRANCH  24  30
ATOM     29  O   UNK     1      37.614 -23.296 -13.856  0.00  0.00    -0.253 OA
ATOM     30  C   UNK     1      37.604 -23.275 -15.079  0.00  0.00    +0.293 C 
BRANCH  30  31
ATOM     31  O   UNK     1      38.697 -23.546 -15.838  0.00  0.00    -0.482 OA
ATOM     32  H   UNK     1      38.635 -23.530 -16.773  0.00  0.00    +0.295 HD
ENDBRANCH  30  31
ENDBRANCH  24  30
ENDBRANCH  23  24
ENDBRANCH  22  23
ENDBRANCH  21  22
ENDBRANCH  20  21
ENDBRANCH  17  20
ENDBRANCH   1  17
TORSDOF 11
ENDMDL
MODEL 5
REMARK VINA RESULT:      -8.6     11.903     15.065
REMARK  Name = 121945
REMARK  11 active torsions:
REMARK  status: ('A' for Active; 'I' for Inactive)
REMARK    1  A    between atoms: S_1  and  C_4
REMARK    2  A    between atoms: S_1  and  N_17
REMARK    3  A    between atoms: C_7  and  N_14
REMARK    4  A    between atoms: N_17  and  C_20
REMARK    5  A    between atoms: C_20  and  C_21
REMARK    6  A    between atoms: C_21  and  C_22
REMARK    7  A    between atoms: C_22  and  C_23
REMARK    8  A    between atoms: C_23  and  C_24
REMARK    9  A    between atoms: C_24  and  N_25
REMARK   10  A    between atoms: C_24  and  C_30
REMARK   11  A    between atoms: C_30  and  O_31
REMARK                            x       y       z     vdW  Elec       q    Type
REMARK                         _______ _______ _______ _____ _____    ______ ____
ROOT
ATOM      1  S   UNK     1      33.363 -13.932 -24.258  0.00  0.00    -0.021 S 
ATOM      2  O   UNK     1      33.751 -14.510 -25.530  0.00  0.00    -0.185 OA
ATOM      3  O   UNK     1      31.966 -13.660 -23.975  0.00  0.00    -0.185 OA
ENDROOT
BRANCH   1   4
ATOM      4  C   UNK     1      33.951 -14.995 -22.973  0.00  0.00    +0.090 C 
ATOM      5  C   UNK     1      34.324 -16.322 -23.210  0.00  0.00    +0.016 C 
ATOM      6  C   UNK     1      34.785 -17.107 -22.126  0.00  0.00    +0.014 C 
ATOM      7  C   UNK     1      35.162 -18.439 -22.355  0.00  0.00    +0.048 C 
ATOM      8  C   UNK     1      34.023 -14.436 -21.702  0.00  0.00    +0.016 C 
ATOM      9  C   UNK     1      34.254 -16.894 -24.490  0.00  0.00    +0.001 C 
ATOM     10  C   UNK     1      34.855 -16.535 -20.845  0.00  0.00    +0.001 C 
ATOM     11  C   UNK     1      34.476 -15.209 -20.636  0.00  0.00    +0.001 C 
ATOM     12  C   UNK     1      35.087 -18.992 -23.634  0.00  0.00    +0.015 C 
ATOM     13  C   UNK     1      34.634 -18.219 -24.700  0.00  0.00    +0.001 C 
BRANCH   7  14
ATOM     14  N   UNK     1      35.629 -19.269 -21.306  0.00  0.00    -0.304 N 
ATOM     15  C   UNK     1      34.715 -20.153 -20.615  0.00  0.00    +0.112 C 
ATOM     16  C   UNK     1      37.024 -19.250 -20.927  0.00  0.00    +0.112 C 
ENDBRANCH   7  14
ENDBRANCH   1   4
BRANCH   1  17
ATOM     17  N   UNK     1      34.266 -12.518 -23.982  0.00  0.00    +0.435 N 
ATOM     18  H   UNK     1      35.249 -12.774 -24.071  0.00  0.00    -0.049 HD
ATOM     19  H   UNK     1      33.944 -12.209 -23.066  0.00  0.00    -0.049 HD
BRANCH  17  20
ATOM     20  C   UNK     1      34.056 -11.329 -24.837  0.00  0.00    -0.049 C 
BRANCH  20  21
ATOM     21  C   UNK     1      34.298 -10.051 -24.040  0.00  0.00    -0.020 C 
BRANCH  21  22
ATOM     22  C   UNK     1      33.035  -9.552 -23.329  0.00  0.00    -0.004 C 
BRANCH  22  23
ATOM     23  C   UNK     1      33.318  -8.260 -22.550  0.00  0.00    -0.011 C 
BRANCH  23  24
ATOM     24  C   UNK     1      32.210  -7.838 -21.573  0.00  0.00    +0.036 C 
BRANCH  24  25
ATOM     25  N   UNK     1      31.939  -6.403 -21.645  0.00  0.00    +0.389 N 
ATOM     26  H   UNK     1      31.226  -6.156 -20.958  0.00  0.00    -0.088 HD
ATOM     27  H   UNK     1      31.607  -6.165 -22.579  0.00  0.00    -0.088 HD
ATOM     28  H   UNK     1      32.796  -5.885 -21.446  0.00  0.00    -0.088 HD
ENDBRANCH  24  25
BRANCH  24  30
ATOM     29  O   UNK     1      32.300  -9.271 -19.592  0.00  0.00    -0.253 OA
ATOM     30  C   UNK     1      32.535  -8.201 -20.138  0.00  0.00    +0.293 C 
BRANCH  30  31
ATOM     31  O   UNK     1      33.156  -7.166 -19.513  0.00  0.00    -0.482 OA
ATOM     32  H   UNK     1      33.781  -6.645 -19.977  0.00  0.00    +0.295 HD
ENDBRANCH  30  31
ENDBRANCH  24  30
ENDBRANCH  23  24
ENDBRANCH  22  23
ENDBRANCH  21  22
ENDBRANCH  20  21
ENDBRANCH  17  20
ENDBRANCH   1  17
TORSDOF 11
ENDMDL
MODEL 6
REMARK VINA RESULT:      -8.6     11.962     15.182
REMARK  Name = 121945
REMARK  11 active torsions:
REMARK  status: ('A' for Active; 'I' for Inactive)
REMARK    1  A    between atoms: S_1  and  C_4
REMARK    2  A    between atoms: S_1  and  N_17
REMARK    3  A    between atoms: C_7  and  N_14
REMARK    4  A    between atoms: N_17  and  C_20
REMARK    5  A    between atoms: C_20  and  C_21
REMARK    6  A    between atoms: C_21  and  C_22
REMARK    7  A    between atoms: C_22  and  C_23
REMARK    8  A    between atoms: C_23  and  C_24
REMARK    9  A    between atoms: C_24  and  N_25
REMARK   10  A    between atoms: C_24  and  C_30
REMARK   11  A    between atoms: C_30  and  O_31
REMARK                            x       y       z     vdW  Elec       q    Type
REMARK                         _______ _______ _______ _____ _____    ______ ____
ROOT
ATOM      1  S   UNK     1      33.184 -13.649 -23.821  0.00  0.00    -0.021 S 
ATOM      2  O   UNK     1      34.192 -12.628 -24.041  0.00  0.00    -0.185 OA
ATOM      3  O   UNK     1      32.655 -14.404 -24.941  0.00  0.00    -0.185 OA
ENDROOT
BRANCH   1   4
ATOM      4  C   UNK     1      33.837 -14.822 -22.672  0.00  0.00    +0.090 C 
ATOM      5  C   UNK     1      34.299 -16.082 -23.067  0.00  0.00    +0.016 C 
ATOM      6  C   UNK     1      34.808 -16.964 -22.082  0.00  0.00    +0.014 C 
ATOM      7  C   UNK     1      35.274 -18.229 -22.470  0.00  0.00    +0.048 C 
ATOM      8  C   UNK     1      33.866 -14.423 -21.340  0.00  0.00    +0.016 C 
ATOM      9  C   UNK     1      34.273 -16.493 -24.409  0.00  0.00    +0.001 C 
ATOM     10  C   UNK     1      34.834 -16.552 -20.739  0.00  0.00    +0.001 C 
ATOM     11  C   UNK     1      34.366 -15.290 -20.372  0.00  0.00    +0.001 C 
ATOM     12  C   UNK     1      35.241 -18.622 -23.808  0.00  0.00    +0.015 C 
ATOM     13  C   UNK     1      34.742 -17.754 -24.776  0.00  0.00    +0.001 C 
BRANCH   7  14
ATOM     14  N   UNK     1      35.791 -19.151 -21.526  0.00  0.00    -0.304 N 
ATOM     15  C   UNK     1      37.203 -19.149 -21.206  0.00  0.00    +0.112 C 
ATOM     16  C   UNK     1      34.912 -20.088 -20.865  0.00  0.00    +0.112 C 
ENDBRANCH   7  14
ENDBRANCH   1   4
BRANCH   1  17
ATOM     17  N   UNK     1      31.889 -12.983 -22.944  0.00  0.00    +0.435 N 
ATOM     18  H   UNK     1      31.807 -13.524 -22.084  0.00  0.00    -0.049 HD
ATOM     19  H   UNK     1      31.112 -13.028 -23.602  0.00  0.00    -0.049 HD
BRANCH  17  20
ATOM     20  C   UNK     1      31.920 -11.558 -22.549  0.00  0.00    -0.049 C 
BRANCH  20  21
ATOM     21  C   UNK     1      31.511 -11.402 -21.088  0.00  0.00    -0.020 C 
BRANCH  21  22
ATOM     22  C   UNK     1      31.655  -9.960 -20.586  0.00  0.00    -0.004 C 
BRANCH  22  23
ATOM     23  C   UNK     1      32.287  -9.065 -21.661  0.00  0.00    -0.011 C 
BRANCH  23  24
ATOM     24  C   UNK     1      32.744  -7.684 -21.167  0.00  0.00    +0.036 C 
BRANCH  24  25
ATOM     25  N   UNK     1      32.888  -7.648 -19.713  0.00  0.00    +0.389 N 
ATOM     26  H   UNK     1      32.032  -7.990 -19.278  0.00  0.00    -0.088 HD
ATOM     27  H   UNK     1      33.062  -6.689 -19.412  0.00  0.00    -0.088 HD
ATOM     28  H   UNK     1      33.672  -8.239 -19.434  0.00  0.00    -0.088 HD
ENDBRANCH  24  25
BRANCH  24  30
ATOM     29  O   UNK     1      30.989  -6.630 -22.505  0.00  0.00    -0.253 OA
ATOM     30  C   UNK     1      31.802  -6.576 -21.592  0.00  0.00    +0.293 C 
BRANCH  30  31
ATOM     31  O   UNK     1      31.961  -5.484 -20.799  0.00  0.00    -0.482 OA
ATOM     32  H   UNK     1      31.223  -4.945 -20.590  0.00  0.00    +0.295 HD
ENDBRANCH  30  31
ENDBRANCH  24  30
ENDBRANCH  23  24
ENDBRANCH  22  23
ENDBRANCH  21  22
ENDBRANCH  20  21
ENDBRANCH  17  20
ENDBRANCH   1  17
TORSDOF 11
ENDMDL
MODEL 7
REMARK VINA RESULT:      -8.6      1.725      2.461
REMARK  Name = 121945
REMARK  11 active torsions:
REMARK  status: ('A' for Active; 'I' for Inactive)
REMARK    1  A    between atoms: S_1  and  C_4
REMARK    2  A    between atoms: S_1  and  N_17
REMARK    3  A    between atoms: C_7  and  N_14
REMARK    4  A    between atoms: N_17  and  C_20
REMARK    5  A    between atoms: C_20  and  C_21
REMARK    6  A    between atoms: C_21  and  C_22
REMARK    7  A    between atoms: C_22  and  C_23
REMARK    8  A    between atoms: C_23  and  C_24
REMARK    9  A    between atoms: C_24  and  N_25
REMARK   10  A    between atoms: C_24  and  C_30
REMARK   11  A    between atoms: C_30  and  O_31
REMARK                            x       y       z     vdW  Elec       q    Type
REMARK                         _______ _______ _______ _____ _____    ______ ____
ROOT
ATOM      1  S   UNK     1      35.232 -24.311 -14.985  0.00  0.00    -0.021 S 
ATOM      2  O   UNK     1      35.196 -23.919 -13.588  0.00  0.00    -0.185 OA
ATOM      3  O   UNK     1      35.421 -25.703 -15.347  0.00  0.00    -0.185 OA
ENDROOT
BRANCH   1   4
ATOM      4  C   UNK     1      33.725 -23.781 -15.740  0.00  0.00    +0.090 C 
ATOM      5  C   UNK     1      32.471 -24.039 -15.175  0.00  0.00    +0.016 C 
ATOM      6  C   UNK     1      31.311 -23.580 -15.844  0.00  0.00    +0.014 C 
ATOM      7  C   UNK     1      30.050 -23.834 -15.283  0.00  0.00    +0.048 C 
ATOM      8  C   UNK     1      33.852 -23.088 -16.939  0.00  0.00    +0.016 C 
ATOM      9  C   UNK     1      32.334 -24.738 -13.965  0.00  0.00    +0.001 C 
ATOM     10  C   UNK     1      31.448 -22.880 -17.055  0.00  0.00    +0.001 C 
ATOM     11  C   UNK     1      32.711 -22.637 -17.597  0.00  0.00    +0.001 C 
ATOM     12  C   UNK     1      29.932 -24.530 -14.081  0.00  0.00    +0.015 C 
ATOM     13  C   UNK     1      31.073 -24.981 -13.423  0.00  0.00    +0.001 C 
BRANCH   7  14
ATOM     14  N   UNK     1      28.857 -23.398 -15.912  0.00  0.00    -0.304 N 
ATOM     15  C   UNK     1      28.242 -22.148 -15.519  0.00  0.00    +0.112 C 
ATOM     16  C   UNK     1      28.255 -24.190 -16.961  0.00  0.00    +0.112 C 
ENDBRANCH   7  14
ENDBRANCH   1   4
BRANCH   1  17
ATOM     17  N   UNK     1      36.385 -23.367 -15.805  0.00  0.00    +0.435 N 
ATOM     18  H   UNK     1      35.927 -22.488 -16.047  0.00  0.00    -0.049 HD
ATOM     19  H   UNK     1      36.678 -23.970 -16.573  0.00  0.00    -0.049 HD
BRANCH  17  20
ATOM     20  C   UNK     1      37.659 -23.015 -15.141  0.00  0.00    -0.049 C 
BRANCH  20  21
ATOM     21  C   UNK     1      38.771 -23.958 -15.591  0.00  0.00    -0.020 C 
BRANCH  21  22
ATOM     22  C   UNK     1      38.681 -25.336 -14.923  0.00  0.00    -0.004 C 
BRANCH  22  23
ATOM     23  C   UNK     1      39.310 -25.308 -13.522  0.00  0.00    -0.011 C 
BRANCH  23  24
ATOM     24  C   UNK     1      38.323 -25.529 -12.366  0.00  0.00    +0.036 C 
BRANCH  24  25
ATOM     25  N   UNK     1      37.099 -26.193 -12.815  0.00  0.00    +0.389 N 
ATOM     26  H   UNK     1      36.620 -26.601 -12.012  0.00  0.00    -0.088 HD
ATOM     27  H   UNK     1      37.335 -26.929 -13.480  0.00  0.00    -0.088 HD
ATOM     28  H   UNK     1      36.488 -25.510 -13.265  0.00  0.00    -0.088 HD
ENDBRANCH  24  25
BRANCH  24  30
ATOM     29  O   UNK     1      38.577 -23.187 -11.709  0.00  0.00    -0.253 OA
ATOM     30  C   UNK     1      37.949 -24.236 -11.670  0.00  0.00    +0.293 C 
BRANCH  30  31
ATOM     31  O   UNK     1      36.784 -24.382 -10.987  0.00  0.00    -0.482 OA
ATOM     32  H   UNK     1      36.216 -25.103 -11.176  0.00  0.00    +0.295 HD
ENDBRANCH  30  31
ENDBRANCH  24  30
ENDBRANCH  23  24
ENDBRANCH  22  23
ENDBRANCH  21  22
ENDBRANCH  20  21
ENDBRANCH  17  20
ENDBRANCH   1  17
TORSDOF 11
ENDMDL
MODEL 8
REMARK VINA RESULT:      -8.5     11.428     13.795
REMARK  Name = 121945
REMARK  11 active torsions:
REMARK  status: ('A' for Active; 'I' for Inactive)
REMARK    1  A    between atoms: S_1  and  C_4
REMARK    2  A    between atoms: S_1  and  N_17
REMARK    3  A    between atoms: C_7  and  N_14
REMARK    4  A    between atoms: N_17  and  C_20
REMARK    5  A    between atoms: C_20  and  C_21
REMARK    6  A    between atoms: C_21  and  C_22
REMARK    7  A    between atoms: C_22  and  C_23
REMARK    8  A    between atoms: C_23  and  C_24
REMARK    9  A    between atoms: C_24  and  N_25
REMARK   10  A    between atoms: C_24  and  C_30
REMARK   11  A    between atoms: C_30  and  O_31
REMARK                            x       y       z     vdW  Elec       q    Type
REMARK                         _______ _______ _______ _____ _____    ______ ____
ROOT
ATOM      1  S   UNK     1      33.511 -14.678 -22.850  0.00  0.00    -0.021 S 
ATOM      2  O   UNK     1      34.728 -14.842 -22.078  0.00  0.00    -0.185 OA
ATOM      3  O   UNK     1      32.233 -15.079 -22.293  0.00  0.00    -0.185 OA
ENDROOT
BRANCH   1   4
ATOM      4  C   UNK     1      33.368 -12.972 -23.290  0.00  0.00    +0.090 C 
ATOM      5  C   UNK     1      32.699 -12.043 -22.485  0.00  0.00    +0.016 C 
ATOM      6  C   UNK     1      32.630 -10.695 -22.910  0.00  0.00    +0.014 C 
ATOM      7  C   UNK     1      31.961  -9.757 -22.107  0.00  0.00    +0.048 C 
ATOM      8  C   UNK     1      33.962 -12.597 -24.490  0.00  0.00    +0.016 C 
ATOM      9  C   UNK     1      32.097 -12.413 -21.272  0.00  0.00    +0.001 C 
ATOM     10  C   UNK     1      33.232 -10.325 -24.124  0.00  0.00    +0.001 C 
ATOM     11  C   UNK     1      33.893 -11.271 -24.908  0.00  0.00    +0.001 C 
ATOM     12  C   UNK     1      31.369 -10.141 -20.905  0.00  0.00    +0.015 C 
ATOM     13  C   UNK     1      31.437 -11.467 -20.488  0.00  0.00    +0.001 C 
BRANCH   7  14
ATOM     14  N   UNK     1      31.862  -8.395 -22.486  0.00  0.00    -0.304 N 
ATOM     15  C   UNK     1      30.889  -7.984 -23.475  0.00  0.00    +0.112 C 
ATOM     16  C   UNK     1      32.720  -7.404 -21.876  0.00  0.00    +0.112 C 
ENDBRANCH   7  14
ENDBRANCH   1   4
BRANCH   1  17
ATOM     17  N   UNK     1      33.705 -15.415 -24.370  0.00  0.00    +0.435 N 
ATOM     18  H   UNK     1      33.863 -14.665 -25.043  0.00  0.00    -0.049 HD
ATOM     19  H   UNK     1      32.854 -15.967 -24.474  0.00  0.00    -0.049 HD
BRANCH  17  20
ATOM     20  C   UNK     1      34.783 -16.407 -24.577  0.00  0.00    -0.049 C 
BRANCH  20  21
ATOM     21  C   UNK     1      34.195 -17.753 -24.989  0.00  0.00    -0.020 C 
BRANCH  21  22
ATOM     22  C   UNK     1      34.748 -18.917 -24.157  0.00  0.00    -0.004 C 
BRANCH  22  23
ATOM     23  C   UNK     1      35.489 -18.401 -22.916  0.00  0.00    -0.011 C 
BRANCH  23  24
ATOM     24  C   UNK     1      34.619 -18.254 -21.657  0.00  0.00    +0.036 C 
BRANCH  24  25
ATOM     25  N   UNK     1      35.194 -17.303 -20.707  0.00  0.00    +0.389 N 
ATOM     26  H   UNK     1      35.524 -16.478 -21.209  0.00  0.00    -0.088 HD
ATOM     27  H   UNK     1      35.975 -17.739 -20.219  0.00  0.00    -0.088 HD
ATOM     28  H   UNK     1      34.481 -17.026 -20.031  0.00  0.00    -0.088 HD
ENDBRANCH  24  25
BRANCH  24  30
ATOM     29  O   UNK     1      33.374 -20.245 -20.973  0.00  0.00    -0.253 OA
ATOM     30  C   UNK     1      34.398 -19.576 -20.950  0.00  0.00    +0.293 C 
BRANCH  30  31
ATOM     31  O   UNK     1      35.518 -19.951 -20.279  0.00  0.00    -0.482 OA
ATOM     32  H   UNK     1      36.251 -20.300 -20.747  0.00  0.00    +0.295 HD
ENDBRANCH  30  31
ENDBRANCH  24  30
ENDBRANCH  23  24
ENDBRANCH  22  23
ENDBRANCH  21  22
ENDBRANCH  20  21
ENDBRANCH  17  20
ENDBRANCH   1  17
TORSDOF 11
ENDMDL
MODEL 9
REMARK VINA RESULT:      -8.4      4.683      6.730
REMARK  Name = 121945
REMARK  11 active torsions:
REMARK  status: ('A' for Active; 'I' for Inactive)
REMARK    1  A    between atoms: S_1  and  C_4
REMARK    2  A    between atoms: S_1  and  N_17
REMARK    3  A    between atoms: C_7  and  N_14
REMARK    4  A    between atoms: N_17  and  C_20
REMARK    5  A    between atoms: C_20  and  C_21
REMARK    6  A    between atoms: C_21  and  C_22
REMARK    7  A    between atoms: C_22  and  C_23
REMARK    8  A    between atoms: C_23  and  C_24
REMARK    9  A    between atoms: C_24  and  N_25
REMARK   10  A    between atoms: C_24  and  C_30
REMARK   11  A    between atoms: C_30  and  O_31
REMARK                            x       y       z     vdW  Elec       q    Type
REMARK                         _______ _______ _______ _____ _____    ______ ____
ROOT
ATOM      1  S   UNK     1      34.344 -22.648 -18.739  0.00  0.00    -0.021 S 
ATOM      2  O   UNK     1      34.221 -23.790 -19.625  0.00  0.00    -0.185 OA
ATOM      3  O   UNK     1      35.593 -22.393 -18.046  0.00  0.00    -0.185 OA
ENDROOT
BRANCH   1   4
ATOM      4  C   UNK     1      33.962 -21.193 -19.666  0.00  0.00    +0.090 C 
ATOM      5  C   UNK     1      34.952 -20.395 -20.251  0.00  0.00    +0.016 C 
ATOM      6  C   UNK     1      34.562 -19.245 -20.979  0.00  0.00    +0.014 C 
ATOM      7  C   UNK     1      35.549 -18.440 -21.569  0.00  0.00    +0.048 C 
ATOM      8  C   UNK     1      32.613 -20.879 -19.785  0.00  0.00    +0.016 C 
ATOM      9  C   UNK     1      36.317 -20.705 -20.136  0.00  0.00    +0.001 C 
ATOM     10  C   UNK     1      33.197 -18.935 -21.094  0.00  0.00    +0.001 C 
ATOM     11  C   UNK     1      32.230 -19.747 -20.501  0.00  0.00    +0.001 C 
ATOM     12  C   UNK     1      36.900 -18.762 -21.445  0.00  0.00    +0.015 C 
ATOM     13  C   UNK     1      37.283 -19.894 -20.730  0.00  0.00    +0.001 C 
BRANCH   7  14
ATOM     14  N   UNK     1      35.214 -17.278 -22.307  0.00  0.00    -0.304 N 
ATOM     15  C   UNK     1      35.154 -17.325 -23.752  0.00  0.00    +0.112 C 
ATOM     16  C   UNK     1      34.916 -16.040 -21.622  0.00  0.00    +0.112 C 
ENDBRANCH   7  14
ENDBRANCH   1   4
BRANCH   1  17
ATOM     17  N   UNK     1      33.080 -22.678 -17.602  0.00  0.00    +0.435 N 
ATOM     18  H   UNK     1      32.214 -22.800 -18.127  0.00  0.00    -0.049 HD
ATOM     19  H   UNK     1      33.201 -21.804 -17.093  0.00  0.00    -0.049 HD
BRANCH  17  20
ATOM     20  C   UNK     1      33.075 -23.699 -16.531  0.00  0.00    -0.049 C 
BRANCH  20  21
ATOM     21  C   UNK     1      33.745 -23.153 -15.273  0.00  0.00    -0.020 C 
BRANCH  21  22
ATOM     22  C   UNK     1      33.779 -24.177 -14.132  0.00  0.00    -0.004 C 
BRANCH  22  23
ATOM     23  C   UNK     1      35.198 -24.316 -13.562  0.00  0.00    -0.011 C 
BRANCH  23  24
ATOM     24  C   UNK     1      36.174 -25.112 -14.443  0.00  0.00    +0.036 C 
BRANCH  24  25
ATOM     25  N   UNK     1      36.640 -26.327 -13.776  0.00  0.00    +0.389 N 
ATOM     26  H   UNK     1      36.065 -27.117 -14.069  0.00  0.00    -0.088 HD
ATOM     27  H   UNK     1      36.568 -26.210 -12.766  0.00  0.00    -0.088 HD
ATOM     28  H   UNK     1      37.613 -26.502 -14.031  0.00  0.00    -0.088 HD
ENDBRANCH  24  25
BRANCH  24  30
ATOM     29  O   UNK     1      38.445 -24.222 -14.265  0.00  0.00    -0.253 OA
ATOM     30  C   UNK     1      37.378 -24.291 -14.859  0.00  0.00    +0.293 C 
BRANCH  30  31
ATOM     31  O   UNK     1      37.127 -23.631 -16.020  0.00  0.00    -0.482 OA
ATOM     32  H   UNK     1      36.366 -23.843 -16.524  0.00  0.00    +0.295 HD
ENDBRANCH  30  31
ENDBRANCH  24  30
ENDBRANCH  23  24
ENDBRANCH  22  23
ENDBRANCH  21  22
ENDBRANCH  20  21
ENDBRANCH  17  20
ENDBRANCH   1  17
TORSDOF 11
ENDMDL
