MODEL 1
REMARK VINA RESULT:     -10.2      0.000      0.000
REMARK  Name = 5289321
REMARK  4 active torsions:
REMARK  status: ('A' for Active; 'I' for Inactive)
REMARK    1  A    between atoms: C_4  and  O_34
REMARK    2  A    between atoms: C_7  and  S_23
REMARK    3  A    between atoms: S_23  and  N_26
REMARK    4  A    between atoms: C_27  and  O_32
REMARK                            x       y       z     vdW  Elec       q    Type
REMARK                         _______ _______ _______ _____ _____    ______ ____
ROOT
ATOM      1  O   UNL     1      32.210 -14.167 -25.911  0.00  0.00    -0.270 OA
ATOM      2  N   UNL     1      31.985 -13.012 -23.284  0.00  0.00    -0.314 N 
ATOM      3  N   UNL     1      33.578 -16.091 -25.861  0.00  0.00    -0.280 N 
ATOM      4  C   UNL     1      33.129 -14.074 -21.493  0.00  0.00    +0.139 C 
ATOM      5  C   UNL     1      32.803 -14.089 -23.003  0.00  0.00    +0.058 C 
ATOM      6  C   UNL     1      33.252 -15.000 -23.875  0.00  0.00    +0.067 C 
ATOM      7  C   UNL     1      35.507 -17.806 -22.628  0.00  0.00    +0.122 C 
ATOM      8  C   UNL     1      32.364 -12.848 -21.028  0.00  0.00    +0.020 C 
ATOM      9  C   UNL     1      34.117 -16.149 -23.625  0.00  0.00    +0.020 C 
ATOM     10  C   UNL     1      31.716 -12.274 -22.138  0.00  0.00    +0.047 C 
ATOM     11  C   UNL     1      34.725 -16.654 -22.492  0.00  0.00    +0.021 C 
ATOM     12  C   UNL     1      34.283 -16.776 -24.864  0.00  0.00    +0.051 C 
ATOM     13  C   UNL     1      32.675 -15.339 -20.768  0.00  0.00    +0.040 C 
ATOM     14  C   UNL     1      32.910 -14.979 -25.337  0.00  0.00    +0.251 C 
ATOM     15  C   UNL     1      35.668 -18.430 -23.879  0.00  0.00    +0.021 C 
ATOM     16  C   UNL     1      35.050 -17.913 -25.020  0.00  0.00    +0.016 C 
ATOM     17  C   UNL     1      32.254 -12.291 -19.766  0.00  0.00    -0.000 C 
ATOM     18  C   UNL     1      30.946 -11.136 -22.006  0.00  0.00    +0.014 C 
ATOM     19  C   UNL     1      31.475 -11.140 -19.626  0.00  0.00    -0.000 C 
ATOM     20  C   UNL     1      30.828 -10.569 -20.735  0.00  0.00    +0.001 C 
ATOM     21  H   UNL     1      31.637 -12.795 -24.180  0.00  0.00    +0.152 HD
ATOM     22  H   UNL     1      33.556 -16.358 -26.808  0.00  0.00    +0.155 HD
ENDROOT
BRANCH   7  23
ATOM     23  S   UNL     1      36.296 -18.481 -21.222  0.00  0.00    +0.063 S 
ATOM     24  O   UNL     1      37.579 -19.028 -21.636  0.00  0.00    -0.153 OA
ATOM     25  O   UNL     1      36.241 -17.500 -20.147  0.00  0.00    -0.153 OA
BRANCH  23  26
ATOM     26  N   UNL     1      35.237 -19.773 -20.843  0.00  0.00    -0.155 NA
ATOM     27  C   UNL     1      33.418 -21.667 -19.600  0.00  0.00    +0.113 C 
ATOM     28  C   UNL     1      33.822 -19.378 -20.575  0.00  0.00    +0.098 C 
ATOM     29  C   UNL     1      35.752 -20.745 -19.833  0.00  0.00    +0.098 C 
ATOM     30  C   UNL     1      32.932 -20.615 -20.597  0.00  0.00    +0.048 C 
ATOM     31  C   UNL     1      34.887 -22.000 -19.846  0.00  0.00    +0.048 C 
BRANCH  27  32
ATOM     32  O   UNL     1      32.648 -22.854 -19.740  0.00  0.00    -0.384 OA
ATOM     33  H   UNL     1      33.096 -23.460 -20.349  0.00  0.00    +0.210 HD
ENDBRANCH  27  32
ENDBRANCH  23  26
ENDBRANCH   7  23
BRANCH   4  34
ATOM     34  O   UNL     1      34.535 -13.916 -21.320  0.00  0.00    -0.377 OA
ATOM     35  H   UNL     1      34.841 -14.501 -20.610  0.00  0.00    +0.211 HD
ENDBRANCH   4  34
TORSDOF 4
ENDMDL
MODEL 2
REMARK VINA RESULT:     -10.0      3.635      6.491
REMARK  Name = 5289321
REMARK  4 active torsions:
REMARK  status: ('A' for Active; 'I' for Inactive)
REMARK    1  A    between atoms: C_4  and  O_34
REMARK    2  A    between atoms: C_7  and  S_23
REMARK    3  A    between atoms: S_23  and  N_26
REMARK    4  A    between atoms: C_27  and  O_32
REMARK                            x       y       z     vdW  Elec       q    Type
REMARK                         _______ _______ _______ _____ _____    ______ ____
ROOT
ATOM      1  O   UNL     1      31.270  -9.278 -18.916  0.00  0.00    -0.270 OA
ATOM      2  N   UNL     1      31.654  -7.594 -21.219  0.00  0.00    -0.314 N 
ATOM      3  N   UNL     1      31.667 -11.541 -19.464  0.00  0.00    -0.280 N 
ATOM      4  C   UNL     1      32.290  -8.622 -23.264  0.00  0.00    +0.139 C 
ATOM      5  C   UNL     1      31.937  -8.826 -21.774  0.00  0.00    +0.058 C 
ATOM      6  C   UNL     1      31.915 -10.010 -21.147  0.00  0.00    +0.067 C 
ATOM      7  C   UNL     1      32.769 -13.163 -23.106  0.00  0.00    +0.122 C 
ATOM      8  C   UNL     1      32.156  -7.117 -23.406  0.00  0.00    +0.020 C 
ATOM      9  C   UNL     1      32.203 -11.333 -21.691  0.00  0.00    +0.020 C 
ATOM     10  C   UNL     1      31.778  -6.580 -22.161  0.00  0.00    +0.047 C 
ATOM     11  C   UNL     1      32.571 -11.787 -22.943  0.00  0.00    +0.021 C 
ATOM     12  C   UNL     1      32.038 -12.225 -20.627  0.00  0.00    +0.051 C 
ATOM     13  C   UNL     1      33.692  -9.108 -23.622  0.00  0.00    +0.040 C 
ATOM     14  C   UNL     1      31.567 -10.165 -19.694  0.00  0.00    +0.251 C 
ATOM     15  C   UNL     1      32.600 -14.053 -22.029  0.00  0.00    +0.021 C 
ATOM     16  C   UNL     1      32.229 -13.585 -20.767  0.00  0.00    +0.016 C 
ATOM     17  C   UNL     1      32.340  -6.304 -24.511  0.00  0.00    -0.000 C 
ATOM     18  C   UNL     1      31.579  -5.224 -21.997  0.00  0.00    +0.014 C 
ATOM     19  C   UNL     1      32.142  -4.931 -24.352  0.00  0.00    -0.000 C 
ATOM     20  C   UNL     1      31.765  -4.396 -23.108  0.00  0.00    +0.001 C 
ATOM     21  H   UNL     1      31.397  -7.452 -20.279  0.00  0.00    +0.152 HD
ATOM     22  H   UNL     1      31.497 -11.973 -18.596  0.00  0.00    +0.155 HD
ENDROOT
BRANCH   7  23
ATOM     23  S   UNL     1      33.234 -13.785 -24.672  0.00  0.00    +0.063 S 
ATOM     24  O   UNL     1      32.037 -13.905 -25.491  0.00  0.00    -0.153 OA
ATOM     25  O   UNL     1      34.368 -13.011 -25.157  0.00  0.00    -0.153 OA
BRANCH  23  26
ATOM     26  N   UNL     1      33.778 -15.354 -24.250  0.00  0.00    -0.155 NA
ATOM     27  C   UNL     1      35.266 -17.815 -23.836  0.00  0.00    +0.113 C 
ATOM     28  C   UNL     1      34.882 -15.395 -23.245  0.00  0.00    +0.098 C 
ATOM     29  C   UNL     1      34.029 -16.273 -25.400  0.00  0.00    +0.098 C 
ATOM     30  C   UNL     1      35.031 -16.813 -22.706  0.00  0.00    +0.048 C 
ATOM     31  C   UNL     1      34.166 -17.702 -24.889  0.00  0.00    +0.048 C 
BRANCH  27  32
ATOM     32  O   UNL     1      35.269 -19.138 -23.315  0.00  0.00    -0.384 OA
ATOM     33  H   UNL     1      34.420 -19.564 -23.509  0.00  0.00    +0.210 HD
ENDBRANCH  27  32
ENDBRANCH  23  26
ENDBRANCH   7  23
BRANCH   4  34
ATOM     34  O   UNL     1      31.337  -9.314 -24.068  0.00  0.00    -0.377 OA
ATOM     35  H   UNL     1      31.649 -10.217 -24.235  0.00  0.00    +0.211 HD
ENDBRANCH   4  34
TORSDOF 4
ENDMDL
MODEL 3
REMARK VINA RESULT:      -8.4      8.192     10.894
REMARK  Name = 5289321
REMARK  4 active torsions:
REMARK  status: ('A' for Active; 'I' for Inactive)
REMARK    1  A    between atoms: C_4  and  O_34
REMARK    2  A    between atoms: C_7  and  S_23
REMARK    3  A    between atoms: S_23  and  N_26
REMARK    4  A    between atoms: C_27  and  O_32
REMARK                            x       y       z     vdW  Elec       q    Type
REMARK                         _______ _______ _______ _____ _____    ______ ____
ROOT
ATOM      1  O   UNL     1      33.060 -22.260 -19.409  0.00  0.00    -0.270 OA
ATOM      2  N   UNL     1      31.329 -23.261 -17.338  0.00  0.00    -0.314 N 
ATOM      3  N   UNL     1      35.265 -22.003 -18.601  0.00  0.00    -0.280 N 
ATOM      4  C   UNL     1      32.273 -23.686 -15.200  0.00  0.00    +0.139 C 
ATOM      5  C   UNL     1      32.522 -23.201 -16.645  0.00  0.00    +0.058 C 
ATOM      6  C   UNL     1      33.705 -22.792 -17.123  0.00  0.00    +0.067 C 
ATOM      7  C   UNL     1      36.736 -22.795 -14.816  0.00  0.00    +0.122 C 
ATOM      8  C   UNL     1      30.791 -24.011 -15.239  0.00  0.00    +0.020 C 
ATOM      9  C   UNL     1      34.986 -22.710 -16.429  0.00  0.00    +0.020 C 
ATOM     10  C   UNL     1      30.303 -23.734 -16.530  0.00  0.00    +0.047 C 
ATOM     11  C   UNL     1      35.391 -23.001 -15.141  0.00  0.00    +0.021 C 
ATOM     12  C   UNL     1      35.898 -22.225 -17.372  0.00  0.00    +0.051 C 
ATOM     13  C   UNL     1      33.115 -24.902 -14.820  0.00  0.00    +0.040 C 
ATOM     14  C   UNL     1      33.905 -22.328 -18.537  0.00  0.00    +0.251 C 
ATOM     15  C   UNL     1      37.647 -22.306 -15.773  0.00  0.00    +0.021 C 
ATOM     16  C   UNL     1      37.229 -22.014 -17.073  0.00  0.00    +0.016 C 
ATOM     17  C   UNL     1      29.955 -24.492 -14.246  0.00  0.00    -0.000 C 
ATOM     18  C   UNL     1      28.976 -23.936 -16.852  0.00  0.00    +0.014 C 
ATOM     19  C   UNL     1      28.612 -24.699 -14.565  0.00  0.00    -0.000 C 
ATOM     20  C   UNL     1      28.127 -24.424 -15.855  0.00  0.00    +0.001 C 
ATOM     21  H   UNL     1      31.220 -23.001 -18.282  0.00  0.00    +0.152 HD
ATOM     22  H   UNL     1      35.717 -21.662 -19.405  0.00  0.00    +0.155 HD
ENDROOT
BRANCH   7  23
ATOM     23  S   UNL     1      37.296 -23.148 -13.199  0.00  0.00    +0.063 S 
ATOM     24  O   UNL     1      37.871 -21.935 -12.638  0.00  0.00    -0.153 OA
ATOM     25  O   UNL     1      36.233 -23.842 -12.485  0.00  0.00    -0.153 OA
BRANCH  23  26
ATOM     26  N   UNL     1      38.557 -24.262 -13.527  0.00  0.00    -0.155 NA
ATOM     27  C   UNL     1      40.204 -26.497 -14.380  0.00  0.00    +0.113 C 
ATOM     28  C   UNL     1      38.908 -24.418 -14.970  0.00  0.00    +0.098 C 
ATOM     29  C   UNL     1      38.444 -25.577 -12.829  0.00  0.00    +0.098 C 
ATOM     30  C   UNL     1      40.240 -25.147 -15.096  0.00  0.00    +0.048 C 
ATOM     31  C   UNL     1      39.770 -26.321 -12.927  0.00  0.00    +0.048 C 
BRANCH  27  32
ATOM     32  O   UNL     1      41.496 -27.090 -14.405  0.00  0.00    -0.384 OA
ATOM     33  H   UNL     1      41.663 -27.538 -13.561  0.00  0.00    +0.210 HD
ENDBRANCH  27  32
ENDBRANCH  23  26
ENDBRANCH   7  23
BRANCH   4  34
ATOM     34  O   UNL     1      32.555 -22.622 -14.294  0.00  0.00    -0.377 OA
ATOM     35  H   UNL     1      32.293 -21.778 -14.696  0.00  0.00    +0.211 HD
ENDBRANCH   4  34
TORSDOF 4
ENDMDL
MODEL 4
REMARK VINA RESULT:      -8.4      8.441     11.906
REMARK  Name = 5289321
REMARK  4 active torsions:
REMARK  status: ('A' for Active; 'I' for Inactive)
REMARK    1  A    between atoms: C_4  and  O_34
REMARK    2  A    between atoms: C_7  and  S_23
REMARK    3  A    between atoms: S_23  and  N_26
REMARK    4  A    between atoms: C_27  and  O_32
REMARK                            x       y       z     vdW  Elec       q    Type
REMARK                         _______ _______ _______ _____ _____    ______ ____
ROOT
ATOM      1  O   UNL     1      36.906 -22.118 -18.128  0.00  0.00    -0.270 OA
ATOM      2  N   UNL     1      37.612 -23.719 -15.843  0.00  0.00    -0.314 N 
ATOM      3  N   UNL     1      34.559 -21.943 -18.329  0.00  0.00    -0.280 N 
ATOM      4  C   UNL     1      35.855 -24.610 -14.515  0.00  0.00    +0.139 C 
ATOM      5  C   UNL     1      36.235 -23.761 -15.748  0.00  0.00    +0.058 C 
ATOM      6  C   UNL     1      35.359 -23.174 -16.574  0.00  0.00    +0.067 C 
ATOM      7  C   UNL     1      31.629 -23.578 -15.909  0.00  0.00    +0.122 C 
ATOM      8  C   UNL     1      37.221 -24.999 -13.980  0.00  0.00    +0.020 C 
ATOM      9  C   UNL     1      33.901 -23.193 -16.514  0.00  0.00    +0.020 C 
ATOM     10  C   UNL     1      38.207 -24.439 -14.814  0.00  0.00    +0.047 C 
ATOM     11  C   UNL     1      32.991 -23.776 -15.654  0.00  0.00    +0.021 C 
ATOM     12  C   UNL     1      33.467 -22.430 -17.603  0.00  0.00    +0.051 C 
ATOM     13  C   UNL     1      35.036 -23.839 -13.483  0.00  0.00    +0.040 C 
ATOM     14  C   UNL     1      35.770 -22.355 -17.763  0.00  0.00    +0.251 C 
ATOM     15  C   UNL     1      31.202 -22.808 -17.008  0.00  0.00    +0.021 C 
ATOM     16  C   UNL     1      32.129 -22.222 -17.873  0.00  0.00    +0.016 C 
ATOM     17  C   UNL     1      37.565 -25.768 -12.882  0.00  0.00    -0.000 C 
ATOM     18  C   UNL     1      39.551 -24.635 -14.565  0.00  0.00    +0.014 C 
ATOM     19  C   UNL     1      38.922 -25.969 -12.623  0.00  0.00    -0.000 C 
ATOM     20  C   UNL     1      39.905 -25.409 -13.456  0.00  0.00    +0.001 C 
ATOM     21  H   UNL     1      38.107 -23.242 -16.548  0.00  0.00    +0.152 HD
ATOM     22  H   UNL     1      34.484 -21.383 -19.135  0.00  0.00    +0.155 HD
ENDROOT
BRANCH   7  23
ATOM     23  S   UNL     1      30.441 -24.297 -14.849  0.00  0.00    +0.063 S 
ATOM     24  O   UNL     1      30.416 -25.731 -15.094  0.00  0.00    -0.153 OA
ATOM     25  O   UNL     1      30.666 -23.797 -13.499  0.00  0.00    -0.153 OA
BRANCH  23  26
ATOM     26  N   UNL     1      28.998 -23.603 -15.460  0.00  0.00    -0.155 NA
ATOM     27  C   UNL     1      26.971 -21.967 -16.746  0.00  0.00    +0.113 C 
ATOM     28  C   UNL     1      28.866 -23.617 -16.947  0.00  0.00    +0.098 C 
ATOM     29  C   UNL     1      28.628 -22.280 -14.873  0.00  0.00    +0.098 C 
ATOM     30  C   UNL     1      27.426 -23.301 -17.336  0.00  0.00    +0.048 C 
ATOM     31  C   UNL     1      27.185 -21.948 -15.235  0.00  0.00    +0.048 C 
BRANCH  27  32
ATOM     32  O   UNL     1      25.590 -21.767 -17.017  0.00  0.00    -0.384 OA
ATOM     33  H   UNL     1      25.439 -21.807 -17.974  0.00  0.00    +0.210 HD
ENDBRANCH  27  32
ENDBRANCH  23  26
ENDBRANCH   7  23
BRANCH   4  34
ATOM     34  O   UNL     1      35.113 -25.750 -14.943  0.00  0.00    -0.377 OA
ATOM     35  H   UNL     1      35.023 -26.373 -14.205  0.00  0.00    +0.211 HD
ENDBRANCH   4  34
TORSDOF 4
ENDMDL
MODEL 5
REMARK VINA RESULT:      -8.2      7.443     10.913
REMARK  Name = 5289321
REMARK  4 active torsions:
REMARK  status: ('A' for Active; 'I' for Inactive)
REMARK    1  A    between atoms: C_4  and  O_34
REMARK    2  A    between atoms: C_7  and  S_23
REMARK    3  A    between atoms: S_23  and  N_26
REMARK    4  A    between atoms: C_27  and  O_32
REMARK                            x       y       z     vdW  Elec       q    Type
REMARK                         _______ _______ _______ _____ _____    ______ ____
ROOT
ATOM      1  O   UNL     1      31.111 -23.169 -17.499  0.00  0.00    -0.270 OA
ATOM      2  N   UNL     1      33.656 -22.205 -18.437  0.00  0.00    -0.314 N 
ATOM      3  N   UNL     1      31.312 -24.074 -15.326  0.00  0.00    -0.280 N 
ATOM      4  C   UNL     1      35.533 -22.419 -16.998  0.00  0.00    +0.139 C 
ATOM      5  C   UNL     1      34.021 -22.668 -17.188  0.00  0.00    +0.058 C 
ATOM      6  C   UNL     1      33.218 -23.240 -16.282  0.00  0.00    +0.067 C 
ATOM      7  C   UNL     1      34.689 -24.372 -12.955  0.00  0.00    +0.122 C 
ATOM      8  C   UNL     1      35.902 -21.760 -18.314  0.00  0.00    +0.020 C 
ATOM      9  C   UNL     1      33.558 -23.745 -14.956  0.00  0.00    +0.020 C 
ATOM     10  C   UNL     1      34.745 -21.669 -19.111  0.00  0.00    +0.047 C 
ATOM     11  C   UNL     1      34.734 -23.803 -14.233  0.00  0.00    +0.021 C 
ATOM     12  C   UNL     1      32.366 -24.240 -14.420  0.00  0.00    +0.051 C 
ATOM     13  C   UNL     1      35.849 -21.524 -15.802  0.00  0.00    +0.040 C 
ATOM     14  C   UNL     1      31.750 -23.463 -16.506  0.00  0.00    +0.251 C 
ATOM     15  C   UNL     1      33.483 -24.867 -12.424  0.00  0.00    +0.021 C 
ATOM     16  C   UNL     1      32.298 -24.805 -13.162  0.00  0.00    +0.016 C 
ATOM     17  C   UNL     1      37.124 -21.295 -18.768  0.00  0.00    -0.000 C 
ATOM     18  C   UNL     1      34.789 -21.110 -20.373  0.00  0.00    +0.014 C 
ATOM     19  C   UNL     1      37.174 -20.728 -20.043  0.00  0.00    -0.000 C 
ATOM     20  C   UNL     1      36.019 -20.636 -20.838  0.00  0.00    +0.001 C 
ATOM     21  H   UNL     1      32.742 -22.250 -18.803  0.00  0.00    +0.152 HD
ATOM     22  H   UNL     1      30.384 -24.353 -15.156  0.00  0.00    +0.155 HD
ENDROOT
BRANCH   7  23
ATOM     23  S   UNL     1      36.151 -24.468 -12.003  0.00  0.00    +0.063 S 
ATOM     24  O   UNL     1      36.451 -23.140 -11.488  0.00  0.00    -0.153 OA
ATOM     25  O   UNL     1      36.029 -25.590 -11.083  0.00  0.00    -0.153 OA
BRANCH  23  26
ATOM     26  N   UNL     1      37.300 -24.868 -13.211  0.00  0.00    -0.155 NA
ATOM     27  C   UNL     1      39.458 -25.988 -14.800  0.00  0.00    +0.113 C 
ATOM     28  C   UNL     1      37.162 -26.237 -13.791  0.00  0.00    +0.098 C 
ATOM     29  C   UNL     1      38.717 -24.537 -12.878  0.00  0.00    +0.098 C 
ATOM     30  C   UNL     1      37.994 -26.339 -15.064  0.00  0.00    +0.048 C 
ATOM     31  C   UNL     1      39.569 -24.617 -14.139  0.00  0.00    +0.048 C 
BRANCH  27  32
ATOM     32  O   UNL     1      40.176 -25.966 -16.027  0.00  0.00    -0.384 OA
ATOM     33  H   UNL     1      40.686 -25.144 -16.089  0.00  0.00    +0.210 HD
ENDBRANCH  27  32
ENDBRANCH  23  26
ENDBRANCH   7  23
BRANCH   4  34
ATOM     34  O   UNL     1      36.195 -23.671 -16.832  0.00  0.00    -0.377 OA
ATOM     35  H   UNL     1      35.547 -24.390 -16.895  0.00  0.00    +0.211 HD
ENDBRANCH   4  34
TORSDOF 4
ENDMDL
MODEL 6
REMARK VINA RESULT:      -7.8      4.715      7.789
REMARK  Name = 5289321
REMARK  4 active torsions:
REMARK  status: ('A' for Active; 'I' for Inactive)
REMARK    1  A    between atoms: C_4  and  O_34
REMARK    2  A    between atoms: C_7  and  S_23
REMARK    3  A    between atoms: S_23  and  N_26
REMARK    4  A    between atoms: C_27  and  O_32
REMARK                            x       y       z     vdW  Elec       q    Type
REMARK                         _______ _______ _______ _____ _____    ______ ____
ROOT
ATOM      1  O   UNL     1      31.591  -6.344 -19.491  0.00  0.00    -0.270 OA
ATOM      2  N   UNL     1      31.899  -5.576 -22.248  0.00  0.00    -0.314 N 
ATOM      3  N   UNL     1      31.744  -8.690 -19.258  0.00  0.00    -0.280 N 
ATOM      4  C   UNL     1      32.255  -7.289 -23.855  0.00  0.00    +0.139 C 
ATOM      5  C   UNL     1      32.026  -6.946 -22.366  0.00  0.00    +0.058 C 
ATOM      6  C   UNL     1      31.963  -7.842 -21.373  0.00  0.00    +0.067 C 
ATOM      7  C   UNL     1      32.366 -11.542 -22.190  0.00  0.00    +0.122 C 
ATOM      8  C   UNL     1      32.235  -5.912 -24.492  0.00  0.00    +0.020 C 
ATOM      9  C   UNL     1      32.088  -9.294 -21.451  0.00  0.00    +0.020 C 
ATOM     10  C   UNL     1      32.020  -4.953 -23.484  0.00  0.00    +0.047 C 
ATOM     11  C   UNL     1      32.299 -10.177 -22.492  0.00  0.00    +0.021 C 
ATOM     12  C   UNL     1      31.948  -9.758 -20.139  0.00  0.00    +0.051 C 
ATOM     13  C   UNL     1      33.573  -8.017 -24.108  0.00  0.00    +0.040 C 
ATOM     14  C   UNL     1      31.739  -7.466 -19.937  0.00  0.00    +0.251 C 
ATOM     15  C   UNL     1      32.224 -11.998 -20.866  0.00  0.00    +0.021 C 
ATOM     16  C   UNL     1      32.010 -11.100 -19.818  0.00  0.00    +0.016 C 
ATOM     17  C   UNL     1      32.383  -5.539 -25.816  0.00  0.00    -0.000 C 
ATOM     18  C   UNL     1      31.951  -3.606 -23.781  0.00  0.00    +0.014 C 
ATOM     19  C   UNL     1      32.316  -4.178 -26.124  0.00  0.00    -0.000 C 
ATOM     20  C   UNL     1      32.102  -3.222 -25.116  0.00  0.00    +0.001 C 
ATOM     21  H   UNL     1      31.743  -5.102 -21.399  0.00  0.00    +0.152 HD
ATOM     22  H   UNL     1      31.620  -8.787 -18.287  0.00  0.00    +0.155 HD
ENDROOT
BRANCH   7  23
ATOM     23  S   UNL     1      32.631 -12.697 -23.474  0.00  0.00    +0.063 S 
ATOM     24  O   UNL     1      31.335 -13.153 -23.954  0.00  0.00    -0.153 OA
ATOM     25  O   UNL     1      33.591 -12.131 -24.412  0.00  0.00    -0.153 OA
BRANCH  23  26
ATOM     26  N   UNL     1      33.387 -13.972 -22.615  0.00  0.00    -0.155 NA
ATOM     27  C   UNL     1      34.230 -16.515 -21.492  0.00  0.00    +0.113 C 
ATOM     28  C   UNL     1      34.159 -14.935 -23.454  0.00  0.00    +0.098 C 
ATOM     29  C   UNL     1      32.523 -14.664 -21.612  0.00  0.00    +0.098 C 
ATOM     30  C   UNL     1      35.048 -15.793 -22.562  0.00  0.00    +0.048 C 
ATOM     31  C   UNL     1      33.392 -15.518 -20.696  0.00  0.00    +0.048 C 
BRANCH  27  32
ATOM     32  O   UNL     1      35.101 -17.199 -20.600  0.00  0.00    -0.384 OA
ATOM     33  H   UNL     1      34.597 -17.512 -19.833  0.00  0.00    +0.210 HD
ENDBRANCH  27  32
ENDBRANCH  23  26
ENDBRANCH   7  23
BRANCH   4  34
ATOM     34  O   UNL     1      31.178  -8.100 -24.318  0.00  0.00    -0.377 OA
ATOM     35  H   UNL     1      30.364  -7.855 -23.849  0.00  0.00    +0.211 HD
ENDBRANCH   4  34
TORSDOF 4
ENDMDL
MODEL 7
REMARK VINA RESULT:      -7.5      4.882     10.420
REMARK  Name = 5289321
REMARK  4 active torsions:
REMARK  status: ('A' for Active; 'I' for Inactive)
REMARK    1  A    between atoms: C_4  and  O_34
REMARK    2  A    between atoms: C_7  and  S_23
REMARK    3  A    between atoms: S_23  and  N_26
REMARK    4  A    between atoms: C_27  and  O_32
REMARK                            x       y       z     vdW  Elec       q    Type
REMARK                         _______ _______ _______ _____ _____    ______ ____
ROOT
ATOM      1  O   UNL     1      31.535 -24.070 -15.027  0.00  0.00    -0.270 OA
ATOM      2  N   UNL     1      34.102 -23.975 -13.729  0.00  0.00    -0.314 N 
ATOM      3  N   UNL     1      31.659 -23.126 -17.189  0.00  0.00    -0.280 N 
ATOM      4  C   UNL     1      35.924 -23.022 -14.919  0.00  0.00    +0.139 C 
ATOM      5  C   UNL     1      34.423 -23.388 -14.937  0.00  0.00    +0.058 C 
ATOM      6  C   UNL     1      33.591 -23.162 -15.962  0.00  0.00    +0.067 C 
ATOM      7  C   UNL     1      34.941 -21.497 -19.111  0.00  0.00    +0.122 C 
ATOM      8  C   UNL     1      36.339 -23.504 -13.541  0.00  0.00    +0.020 C 
ATOM      9  C   UNL     1      33.884 -22.545 -17.251  0.00  0.00    +0.020 C 
ATOM     10  C   UNL     1      35.213 -24.052 -12.898  0.00  0.00    +0.047 C 
ATOM     11  C   UNL     1      35.031 -22.021 -17.817  0.00  0.00    +0.021 C 
ATOM     12  C   UNL     1      32.677 -22.548 -17.957  0.00  0.00    +0.051 C 
ATOM     13  C   UNL     1      36.722 -23.705 -16.028  0.00  0.00    +0.040 C 
ATOM     14  C   UNL     1      32.137 -23.534 -15.939  0.00  0.00    +0.251 C 
ATOM     15  C   UNL     1      33.720 -21.505 -19.813  0.00  0.00    +0.021 C 
ATOM     16  C   UNL     1      32.566 -22.036 -19.234  0.00  0.00    +0.016 C 
ATOM     17  C   UNL     1      37.572 -23.461 -12.914  0.00  0.00    -0.000 C 
ATOM     18  C   UNL     1      35.300 -24.568 -11.621  0.00  0.00    +0.014 C 
ATOM     19  C   UNL     1      37.667 -23.981 -11.622  0.00  0.00    -0.000 C 
ATOM     20  C   UNL     1      36.542 -24.530 -10.982  0.00  0.00    +0.001 C 
ATOM     21  H   UNL     1      33.203 -24.296 -13.487  0.00  0.00    +0.152 HD
ATOM     22  H   UNL     1      30.728 -23.230 -17.489  0.00  0.00    +0.155 HD
ENDROOT
BRANCH   7  23
ATOM     23  S   UNL     1      36.364 -20.822 -19.868  0.00  0.00    +0.063 S 
ATOM     24  O   UNL     1      37.134 -20.120 -18.853  0.00  0.00    -0.153 OA
ATOM     25  O   UNL     1      36.998 -21.863 -20.666  0.00  0.00    -0.153 OA
BRANCH  23  26
ATOM     26  N   UNL     1      35.657 -19.673 -20.924  0.00  0.00    -0.155 NA
ATOM     27  C   UNL     1      35.093 -17.631 -22.912  0.00  0.00    +0.113 C 
ATOM     28  C   UNL     1      35.743 -20.006 -22.377  0.00  0.00    +0.098 C 
ATOM     29  C   UNL     1      36.017 -18.249 -20.651  0.00  0.00    +0.098 C 
ATOM     30  C   UNL     1      34.796 -19.109 -23.165  0.00  0.00    +0.048 C 
ATOM     31  C   UNL     1      35.073 -17.329 -21.416  0.00  0.00    +0.048 C 
BRANCH  27  32
ATOM     32  O   UNL     1      34.113 -16.826 -23.556  0.00  0.00    -0.384 OA
ATOM     33  H   UNL     1      34.541 -16.261 -24.216  0.00  0.00    +0.210 HD
ENDBRANCH  27  32
ENDBRANCH  23  26
ENDBRANCH   7  23
BRANCH   4  34
ATOM     34  O   UNL     1      36.062 -21.609 -15.047  0.00  0.00    -0.377 OA
ATOM     35  H   UNL     1      35.479 -21.169 -14.409  0.00  0.00    +0.211 HD
ENDBRANCH   4  34
TORSDOF 4
ENDMDL
