MODEL 1
REMARK VINA RESULT:     -10.6      0.000      0.000
REMARK  Name = 4890
REMARK  3 active torsions:
REMARK  status: ('A' for Active; 'I' for Inactive)
REMARK    1  A    between atoms: N_3  and  C_20
REMARK    2  A    between atoms: C_10  and  C_14
REMARK    3  A    between atoms: C_20  and  C_21
REMARK                            x       y       z     vdW  Elec       q    Type
REMARK                         _______ _______ _______ _____ _____    ______ ____
ROOT
ATOM      1 CL   UNL     1      31.402 -11.994 -20.029  0.00  0.00    -0.082 Cl
ATOM      2  O   UNL     1      34.569 -16.486 -25.970  0.00  0.00    -0.272 OA
ATOM      3  N   UNL     1      34.208 -15.691 -23.810  0.00  0.00    -0.257 N 
ATOM      4  N   UNL     1      33.334 -13.544 -25.773  0.00  0.00    -0.261 NA
ATOM      5  C   UNL     1      33.571 -14.757 -22.922  0.00  0.00    +0.055 C 
ATOM      6  C   UNL     1      33.960 -15.753 -25.187  0.00  0.00    +0.254 C 
ATOM      7  C   UNL     1      33.168 -13.465 -23.320  0.00  0.00    +0.032 C 
ATOM      8  C   UNL     1      32.829 -14.899 -25.701  0.00  0.00    +0.210 C 
ATOM      9  C   UNL     1      33.340 -15.127 -21.581  0.00  0.00    +0.016 C 
ATOM     10  C   UNL     1      33.491 -12.902 -24.665  0.00  0.00    +0.078 C 
ATOM     11  C   UNL     1      32.491 -12.620 -22.422  0.00  0.00    +0.014 C 
ATOM     12  C   UNL     1      32.685 -14.274 -20.690  0.00  0.00    +0.013 C 
ATOM     13  C   UNL     1      32.249 -13.026 -21.113  0.00  0.00    +0.058 C 
ENDROOT
BRANCH  10  14
ATOM     14  C   UNL     1      34.045 -11.520 -24.754  0.00  0.00    +0.017 C 
ATOM     15  C   UNL     1      34.920 -11.196 -25.784  0.00  0.00    +0.001 C 
ATOM     16  C   UNL     1      33.679 -10.572 -23.806  0.00  0.00    +0.001 C 
ATOM     17  C   UNL     1      35.438  -9.904 -25.866  0.00  0.00    +0.000 C 
ATOM     18  C   UNL     1      34.198  -9.279 -23.889  0.00  0.00    +0.000 C 
ATOM     19  C   UNL     1      35.076  -8.945 -24.920  0.00  0.00    +0.000 C 
ENDBRANCH  10  14
BRANCH   3  20
ATOM     20  C   UNL     1      35.124 -16.674 -23.233  0.00  0.00    +0.098 C 
BRANCH  20  21
ATOM     21  C   UNL     1      34.445 -18.012 -23.029  0.00  0.00    +0.020 C 
ATOM     22  C   UNL     1      35.206 -19.090 -22.348  0.00  0.00    +0.002 C 
ATOM     23  C   UNL     1      34.928 -19.173 -23.820  0.00  0.00    +0.002 C 
ENDBRANCH  20  21
ENDBRANCH   3  20
TORSDOF 3
ENDMDL
MODEL 2
REMARK VINA RESULT:      -8.8      3.358      7.106
REMARK  Name = 4890
REMARK  3 active torsions:
REMARK  status: ('A' for Active; 'I' for Inactive)
REMARK    1  A    between atoms: N_3  and  C_20
REMARK    2  A    between atoms: C_10  and  C_14
REMARK    3  A    between atoms: C_20  and  C_21
REMARK                            x       y       z     vdW  Elec       q    Type
REMARK                         _______ _______ _______ _____ _____    ______ ____
ROOT
ATOM      1 CL   UNL     1      33.422 -14.523 -27.097  0.00  0.00    -0.082 Cl
ATOM      2  O   UNL     1      32.164  -9.050 -21.269  0.00  0.00    -0.272 OA
ATOM      3  N   UNL     1      33.171 -10.068 -23.107  0.00  0.00    -0.257 N 
ATOM      4  N   UNL     1      31.606 -12.181 -21.589  0.00  0.00    -0.261 NA
ATOM      5  C   UNL     1      33.256 -11.174 -24.022  0.00  0.00    +0.055 C 
ATOM      6  C   UNL     1      32.189  -9.946 -22.117  0.00  0.00    +0.254 C 
ATOM      7  C   UNL     1      32.853 -12.484 -23.687  0.00  0.00    +0.032 C 
ATOM      8  C   UNL     1      31.073 -10.960 -22.155  0.00  0.00    +0.210 C 
ATOM      9  C   UNL     1      33.775 -10.962 -25.315  0.00  0.00    +0.016 C 
ATOM     10  C   UNL     1      32.431 -12.866 -22.307  0.00  0.00    +0.078 C 
ATOM     11  C   UNL     1      32.901 -13.512 -24.646  0.00  0.00    +0.014 C 
ATOM     12  C   UNL     1      33.837 -11.993 -26.256  0.00  0.00    +0.013 C 
ATOM     13  C   UNL     1      33.389 -13.264 -25.926  0.00  0.00    +0.058 C 
ENDROOT
BRANCH  10  14
ATOM     14  C   UNL     1      32.997 -14.104 -21.696  0.00  0.00    +0.017 C 
ATOM     15  C   UNL     1      32.173 -14.942 -20.955  0.00  0.00    +0.001 C 
ATOM     16  C   UNL     1      34.342 -14.405 -21.876  0.00  0.00    +0.001 C 
ATOM     17  C   UNL     1      32.703 -16.099 -20.384  0.00  0.00    +0.000 C 
ATOM     18  C   UNL     1      34.871 -15.562 -21.305  0.00  0.00    +0.000 C 
ATOM     19  C   UNL     1      34.051 -16.410 -20.559  0.00  0.00    +0.000 C 
ENDBRANCH  10  14
BRANCH   3  20
ATOM     20  C   UNL     1      34.130  -8.974 -23.259  0.00  0.00    +0.098 C 
BRANCH  20  21
ATOM     21  C   UNL     1      33.594  -7.889 -24.169  0.00  0.00    +0.020 C 
ATOM     22  C   UNL     1      34.489  -6.754 -24.513  0.00  0.00    +0.002 C 
ATOM     23  C   UNL     1      33.329  -6.549 -23.583  0.00  0.00    +0.002 C 
ENDBRANCH  20  21
ENDBRANCH   3  20
TORSDOF 3
ENDMDL
MODEL 3
REMARK VINA RESULT:      -8.4      3.542      7.226
REMARK  Name = 4890
REMARK  3 active torsions:
REMARK  status: ('A' for Active; 'I' for Inactive)
REMARK    1  A    between atoms: N_3  and  C_20
REMARK    2  A    between atoms: C_10  and  C_14
REMARK    3  A    between atoms: C_20  and  C_21
REMARK                            x       y       z     vdW  Elec       q    Type
REMARK                         _______ _______ _______ _____ _____    ______ ____
ROOT
ATOM      1 CL   UNL     1      35.618 -10.830 -26.823  0.00  0.00    -0.082 Cl
ATOM      2  O   UNL     1      30.780  -9.952 -20.395  0.00  0.00    -0.272 OA
ATOM      3  N   UNL     1      32.585  -9.571 -21.819  0.00  0.00    -0.257 N 
ATOM      4  N   UNL     1      31.531 -12.370 -22.346  0.00  0.00    -0.261 NA
ATOM      5  C   UNL     1      33.335  -9.925 -22.993  0.00  0.00    +0.055 C 
ATOM      6  C   UNL     1      31.381 -10.183 -21.448  0.00  0.00    +0.254 C 
ATOM      7  C   UNL     1      33.361 -11.229 -23.528  0.00  0.00    +0.032 C 
ATOM      8  C   UNL     1      30.780 -11.137 -22.449  0.00  0.00    +0.210 C 
ATOM      9  C   UNL     1      34.097  -8.936 -23.648  0.00  0.00    +0.016 C 
ATOM     10  C   UNL     1      32.721 -12.391 -22.842  0.00  0.00    +0.078 C 
ATOM     11  C   UNL     1      34.063 -11.499 -24.717  0.00  0.00    +0.014 C 
ATOM     12  C   UNL     1      34.808  -9.217 -24.819  0.00  0.00    +0.013 C 
ATOM     13  C   UNL     1      34.781 -10.494 -25.359  0.00  0.00    +0.058 C 
ENDROOT
BRANCH  10  14
ATOM     14  C   UNL     1      33.495 -13.659 -22.698  0.00  0.00    +0.017 C 
ATOM     15  C   UNL     1      33.880 -14.088 -21.434  0.00  0.00    +0.001 C 
ATOM     16  C   UNL     1      33.819 -14.397 -23.830  0.00  0.00    +0.001 C 
ATOM     17  C   UNL     1      34.603 -15.273 -21.300  0.00  0.00    +0.000 C 
ATOM     18  C   UNL     1      34.542 -15.582 -23.695  0.00  0.00    +0.000 C 
ATOM     19  C   UNL     1      34.934 -16.021 -22.430  0.00  0.00    +0.000 C 
ENDBRANCH  10  14
BRANCH   3  20
ATOM     20  C   UNL     1      33.075  -8.466 -20.996  0.00  0.00    +0.098 C 
BRANCH  20  21
ATOM     21  C   UNL     1      32.747  -7.124 -21.617  0.00  0.00    +0.020 C 
ATOM     22  C   UNL     1      31.828  -6.217 -20.884  0.00  0.00    +0.002 C 
ATOM     23  C   UNL     1      31.372  -6.908 -22.135  0.00  0.00    +0.002 C 
ENDBRANCH  20  21
ENDBRANCH   3  20
TORSDOF 3
ENDMDL
MODEL 4
REMARK VINA RESULT:      -8.3      3.404      6.822
REMARK  Name = 4890
REMARK  3 active torsions:
REMARK  status: ('A' for Active; 'I' for Inactive)
REMARK    1  A    between atoms: N_3  and  C_20
REMARK    2  A    between atoms: C_10  and  C_14
REMARK    3  A    between atoms: C_20  and  C_21
REMARK                            x       y       z     vdW  Elec       q    Type
REMARK                         _______ _______ _______ _____ _____    ______ ____
ROOT
ATOM      1 CL   UNL     1      31.942 -13.538 -20.162  0.00  0.00    -0.082 Cl
ATOM      2  O   UNL     1      33.731  -7.128 -24.769  0.00  0.00    -0.272 OA
ATOM      3  N   UNL     1      32.474  -8.526 -23.392  0.00  0.00    -0.257 N 
ATOM      4  N   UNL     1      34.665 -10.184 -24.686  0.00  0.00    -0.261 NA
ATOM      5  C   UNL     1      32.339  -9.761 -22.669  0.00  0.00    +0.055 C 
ATOM      6  C   UNL     1      33.638  -8.140 -24.069  0.00  0.00    +0.254 C 
ATOM      7  C   UNL     1      33.006 -10.948 -23.039  0.00  0.00    +0.032 C 
ATOM      8  C   UNL     1      34.852  -9.010 -23.860  0.00  0.00    +0.210 C 
ATOM      9  C   UNL     1      31.495  -9.812 -21.541  0.00  0.00    +0.016 C 
ATOM     10  C   UNL     1      33.804 -11.062 -24.295  0.00  0.00    +0.078 C 
ATOM     11  C   UNL     1      32.884 -12.109 -22.254  0.00  0.00    +0.014 C 
ATOM     12  C   UNL     1      31.364 -10.975 -20.778  0.00  0.00    +0.013 C 
ATOM     13  C   UNL     1      32.067 -12.119 -21.127  0.00  0.00    +0.058 C 
ENDROOT
BRANCH  10  14
ATOM     14  C   UNL     1      33.599 -12.250 -25.175  0.00  0.00    +0.017 C 
ATOM     15  C   UNL     1      33.672 -12.103 -26.554  0.00  0.00    +0.001 C 
ATOM     16  C   UNL     1      33.338 -13.489 -24.604  0.00  0.00    +0.001 C 
ATOM     17  C   UNL     1      33.480 -13.213 -27.376  0.00  0.00    +0.000 C 
ATOM     18  C   UNL     1      33.146 -14.600 -25.427  0.00  0.00    +0.000 C 
ATOM     19  C   UNL     1      33.218 -14.462 -26.813  0.00  0.00    +0.000 C 
ENDBRANCH  10  14
BRANCH   3  20
ATOM     20  C   UNL     1      31.352  -7.588 -23.368  0.00  0.00    +0.098 C 
BRANCH  20  21
ATOM     21  C   UNL     1      31.729  -6.289 -22.688  0.00  0.00    +0.020 C 
ATOM     22  C   UNL     1      31.786  -6.263 -21.205  0.00  0.00    +0.002 C 
ATOM     23  C   UNL     1      30.677  -5.562 -21.932  0.00  0.00    +0.002 C 
ENDBRANCH  20  21
ENDBRANCH   3  20
TORSDOF 3
ENDMDL
MODEL 5
REMARK VINA RESULT:      -8.3      8.725     13.120
REMARK  Name = 4890
REMARK  3 active torsions:
REMARK  status: ('A' for Active; 'I' for Inactive)
REMARK    1  A    between atoms: N_3  and  C_20
REMARK    2  A    between atoms: C_10  and  C_14
REMARK    3  A    between atoms: C_20  and  C_21
REMARK                            x       y       z     vdW  Elec       q    Type
REMARK                         _______ _______ _______ _____ _____    ______ ____
ROOT
ATOM      1 CL   UNL     1      31.395 -23.718 -13.621  0.00  0.00    -0.082 Cl
ATOM      2  O   UNL     1      36.907 -21.646 -19.174  0.00  0.00    -0.272 OA
ATOM      3  N   UNL     1      34.934 -22.525 -18.299  0.00  0.00    -0.257 N 
ATOM      4  N   UNL     1      37.002 -22.436 -16.078  0.00  0.00    -0.261 NA
ATOM      5  C   UNL     1      34.121 -22.859 -17.161  0.00  0.00    +0.055 C 
ATOM      6  C   UNL     1      36.160 -21.853 -18.214  0.00  0.00    +0.254 C 
ATOM      7  C   UNL     1      34.657 -23.153 -15.890  0.00  0.00    +0.032 C 
ATOM      8  C   UNL     1      36.531 -21.311 -16.857  0.00  0.00    +0.210 C 
ATOM      9  C   UNL     1      32.720 -22.912 -17.306  0.00  0.00    +0.016 C 
ATOM     10  C   UNL     1      36.125 -23.278 -15.647  0.00  0.00    +0.078 C 
ATOM     11  C   UNL     1      33.807 -23.410 -14.799  0.00  0.00    +0.014 C 
ATOM     12  C   UNL     1      31.883 -23.187 -16.221  0.00  0.00    +0.013 C 
ATOM     13  C   UNL     1      32.425 -23.424 -14.966  0.00  0.00    +0.058 C 
ENDROOT
BRANCH  10  14
ATOM     14  C   UNL     1      36.631 -24.450 -14.875  0.00  0.00    +0.017 C 
ATOM     15  C   UNL     1      37.357 -24.241 -13.708  0.00  0.00    +0.001 C 
ATOM     16  C   UNL     1      36.371 -25.736 -15.330  0.00  0.00    +0.001 C 
ATOM     17  C   UNL     1      37.830 -25.337 -12.987  0.00  0.00    +0.000 C 
ATOM     18  C   UNL     1      36.844 -26.832 -14.608  0.00  0.00    +0.000 C 
ATOM     19  C   UNL     1      37.573 -26.632 -13.435  0.00  0.00    +0.000 C 
ENDBRANCH  10  14
BRANCH   3  20
ATOM     20  C   UNL     1      34.422 -22.852 -19.630  0.00  0.00    +0.098 C 
BRANCH  20  21
ATOM     21  C   UNL     1      33.503 -21.768 -20.152  0.00  0.00    +0.020 C 
ATOM     22  C   UNL     1      34.102 -20.653 -20.928  0.00  0.00    +0.002 C 
ATOM     23  C   UNL     1      33.590 -20.418 -19.538  0.00  0.00    +0.002 C 
ENDBRANCH  20  21
ENDBRANCH   3  20
TORSDOF 3
ENDMDL
MODEL 6
REMARK VINA RESULT:      -8.3      4.559      6.571
REMARK  Name = 4890
REMARK  3 active torsions:
REMARK  status: ('A' for Active; 'I' for Inactive)
REMARK    1  A    between atoms: N_3  and  C_20
REMARK    2  A    between atoms: C_10  and  C_14
REMARK    3  A    between atoms: C_20  and  C_21
REMARK                            x       y       z     vdW  Elec       q    Type
REMARK                         _______ _______ _______ _____ _____    ______ ____
ROOT
ATOM      1 CL   UNL     1      36.067 -10.409 -26.366  0.00  0.00    -0.082 Cl
ATOM      2  O   UNL     1      31.194  -8.757 -20.119  0.00  0.00    -0.272 OA
ATOM      3  N   UNL     1      32.000  -9.856 -22.009  0.00  0.00    -0.257 N 
ATOM      4  N   UNL     1      33.129  -7.037 -21.993  0.00  0.00    -0.261 NA
ATOM      5  C   UNL     1      32.950  -9.941 -23.084  0.00  0.00    +0.055 C 
ATOM      6  C   UNL     1      32.055  -8.896 -20.991  0.00  0.00    +0.254 C 
ATOM      7  C   UNL     1      33.607  -8.815 -23.624  0.00  0.00    +0.032 C 
ATOM      8  C   UNL     1      33.291  -8.032 -20.955  0.00  0.00    +0.210 C 
ATOM      9  C   UNL     1      33.244 -11.199 -23.648  0.00  0.00    +0.016 C 
ATOM     10  C   UNL     1      33.270  -7.418 -23.218  0.00  0.00    +0.078 C 
ATOM     11  C   UNL     1      34.575  -8.969 -24.633  0.00  0.00    +0.014 C 
ATOM     12  C   UNL     1      34.193 -11.341 -24.664  0.00  0.00    +0.013 C 
ATOM     13  C   UNL     1      34.867 -10.229 -25.148  0.00  0.00    +0.058 C 
ENDROOT
BRANCH  10  14
ATOM     14  C   UNL     1      33.067  -6.388 -24.278  0.00  0.00    +0.017 C 
ATOM     15  C   UNL     1      31.912  -5.616 -24.271  0.00  0.00    +0.001 C 
ATOM     16  C   UNL     1      34.035  -6.212 -25.258  0.00  0.00    +0.001 C 
ATOM     17  C   UNL     1      31.722  -4.653 -25.262  0.00  0.00    +0.000 C 
ATOM     18  C   UNL     1      33.844  -5.249 -26.249  0.00  0.00    +0.000 C 
ATOM     19  C   UNL     1      32.688  -4.469 -26.251  0.00  0.00    +0.000 C 
ENDBRANCH  10  14
BRANCH   3  20
ATOM     20  C   UNL     1      30.947 -10.869 -21.939  0.00  0.00    +0.098 C 
BRANCH  20  21
ATOM     21  C   UNL     1      31.146 -11.795 -20.757  0.00  0.00    +0.020 C 
ATOM     22  C   UNL     1      32.503 -11.891 -20.161  0.00  0.00    +0.002 C 
ATOM     23  C   UNL     1      31.944 -13.031 -20.960  0.00  0.00    +0.002 C 
ENDBRANCH  20  21
ENDBRANCH   3  20
TORSDOF 3
ENDMDL
MODEL 7
REMARK VINA RESULT:      -7.9      3.375      7.874
REMARK  Name = 4890
REMARK  3 active torsions:
REMARK  status: ('A' for Active; 'I' for Inactive)
REMARK    1  A    between atoms: N_3  and  C_20
REMARK    2  A    between atoms: C_10  and  C_14
REMARK    3  A    between atoms: C_20  and  C_21
REMARK                            x       y       z     vdW  Elec       q    Type
REMARK                         _______ _______ _______ _____ _____    ______ ____
ROOT
ATOM      1 CL   UNL     1      34.944 -20.306 -25.875  0.00  0.00    -0.082 Cl
ATOM      2  O   UNL     1      32.744 -14.932 -20.237  0.00  0.00    -0.272 OA
ATOM      3  N   UNL     1      33.879 -15.804 -22.076  0.00  0.00    -0.257 N 
ATOM      4  N   UNL     1      32.873 -18.122 -20.392  0.00  0.00    -0.261 NA
ATOM      5  C   UNL     1      34.168 -16.913 -22.945  0.00  0.00    +0.055 C 
ATOM      6  C   UNL     1      32.932 -15.845 -21.045  0.00  0.00    +0.254 C 
ATOM      7  C   UNL     1      34.074 -18.259 -22.534  0.00  0.00    +0.032 C 
ATOM      8  C   UNL     1      32.064 -17.077 -20.984  0.00  0.00    +0.210 C 
ATOM      9  C   UNL     1      34.578 -16.663 -24.270  0.00  0.00    +0.016 C 
ATOM     10  C   UNL     1      33.799 -18.649 -21.119  0.00  0.00    +0.078 C 
ATOM     11  C   UNL     1      34.308 -19.302 -23.448  0.00  0.00    +0.014 C 
ATOM     12  C   UNL     1      34.828 -17.705 -25.167  0.00  0.00    +0.013 C 
ATOM     13  C   UNL     1      34.681 -19.023 -24.760  0.00  0.00    +0.058 C 
ENDROOT
BRANCH  10  14
ATOM     14  C   UNL     1      34.645 -19.701 -20.483  0.00  0.00    +0.017 C 
ATOM     15  C   UNL     1      34.040 -20.795 -19.877  0.00  0.00    +0.001 C 
ATOM     16  C   UNL     1      36.028 -19.575 -20.506  0.00  0.00    +0.001 C 
ATOM     17  C   UNL     1      34.831 -21.777 -19.283  0.00  0.00    +0.000 C 
ATOM     18  C   UNL     1      36.819 -20.559 -19.911  0.00  0.00    +0.000 C 
ATOM     19  C   UNL     1      36.220 -21.661 -19.300  0.00  0.00    +0.000 C 
ENDBRANCH  10  14
BRANCH   3  20
ATOM     20  C   UNL     1      34.569 -14.538 -22.323  0.00  0.00    +0.098 C 
BRANCH  20  21
ATOM     21  C   UNL     1      33.605 -13.459 -22.769  0.00  0.00    +0.020 C 
ATOM     22  C   UNL     1      32.667 -13.769 -23.878  0.00  0.00    +0.002 C 
ATOM     23  C   UNL     1      33.819 -12.833 -24.099  0.00  0.00    +0.002 C 
ENDBRANCH  20  21
ENDBRANCH   3  20
TORSDOF 3
ENDMDL
MODEL 8
REMARK VINA RESULT:      -7.9      1.111      1.595
REMARK  Name = 4890
REMARK  3 active torsions:
REMARK  status: ('A' for Active; 'I' for Inactive)
REMARK    1  A    between atoms: N_3  and  C_20
REMARK    2  A    between atoms: C_10  and  C_14
REMARK    3  A    between atoms: C_20  and  C_21
REMARK                            x       y       z     vdW  Elec       q    Type
REMARK                         _______ _______ _______ _____ _____    ______ ____
ROOT
ATOM      1 CL   UNL     1      30.441 -10.928 -20.346  0.00  0.00    -0.082 Cl
ATOM      2  O   UNL     1      34.747 -16.536 -24.286  0.00  0.00    -0.272 OA
ATOM      3  N   UNL     1      33.930 -15.293 -22.492  0.00  0.00    -0.257 N 
ATOM      4  N   UNL     1      33.573 -13.655 -25.023  0.00  0.00    -0.261 NA
ATOM      5  C   UNL     1      33.134 -14.203 -21.997  0.00  0.00    +0.055 C 
ATOM      6  C   UNL     1      33.996 -15.664 -23.840  0.00  0.00    +0.254 C 
ATOM      7  C   UNL     1      32.862 -13.042 -22.750  0.00  0.00    +0.032 C 
ATOM      8  C   UNL     1      33.030 -14.973 -24.770  0.00  0.00    +0.210 C 
ATOM      9  C   UNL     1      32.599 -14.275 -20.695  0.00  0.00    +0.016 C 
ATOM     10  C   UNL     1      33.494 -12.781 -24.078  0.00  0.00    +0.078 C 
ATOM     11  C   UNL     1      32.023 -12.038 -22.235  0.00  0.00    +0.014 C 
ATOM     12  C   UNL     1      31.781 -13.264 -20.183  0.00  0.00    +0.013 C 
ATOM     13  C   UNL     1      31.484 -12.151 -20.957  0.00  0.00    +0.058 C 
ENDROOT
BRANCH  10  14
ATOM     14  C   UNL     1      34.088 -11.438 -24.342  0.00  0.00    +0.017 C 
ATOM     15  C   UNL     1      33.922 -10.419 -23.413  0.00  0.00    +0.001 C 
ATOM     16  C   UNL     1      34.802 -11.223 -25.515  0.00  0.00    +0.001 C 
ATOM     17  C   UNL     1      34.477  -9.164 -23.661  0.00  0.00    +0.000 C 
ATOM     18  C   UNL     1      35.357  -9.967 -25.762  0.00  0.00    +0.000 C 
ATOM     19  C   UNL     1      35.195  -8.937 -24.834  0.00  0.00    +0.000 C 
ENDBRANCH  10  14
BRANCH   3  20
ATOM     20  C   UNL     1      34.668 -16.102 -21.522  0.00  0.00    +0.098 C 
BRANCH  20  21
ATOM     21  C   UNL     1      34.518 -17.582 -21.806  0.00  0.00    +0.020 C 
ATOM     22  C   UNL     1      34.312 -18.500 -20.657  0.00  0.00    +0.002 C 
ATOM     23  C   UNL     1      35.619 -18.491 -21.393  0.00  0.00    +0.002 C 
ENDBRANCH  20  21
ENDBRANCH   3  20
TORSDOF 3
ENDMDL
