MODEL 1
REMARK VINA RESULT:      -6.1      0.000      0.000
REMARK  Name = 445779
REMARK  0 active torsions:
REMARK  status: ('A' for Active; 'I' for Inactive)
REMARK                            x       y       z     vdW  Elec       q    Type
REMARK                         _______ _______ _______ _____ _____    ______ ____
ROOT
ATOM      1  N   UNL     1      32.907 -21.821 -19.091  0.00  0.00    -0.340 NA
ATOM      2  N   UNL     1      35.156 -22.392 -18.439  0.00  0.00    -0.186 NA
ATOM      3  N   UNL     1      32.527 -20.183 -20.762  0.00  0.00    -0.332 N 
ATOM      4  C   UNL     1      34.778 -20.728 -20.137  0.00  0.00    +0.042 C 
ATOM      5  C   UNL     1      33.425 -20.938 -19.968  0.00  0.00    +0.186 C 
ATOM      6  C   UNL     1      33.816 -22.504 -18.369  0.00  0.00    +0.066 C 
ATOM      7  C   UNL     1      35.605 -21.490 -19.338  0.00  0.00    +0.110 C 
ATOM      8  C   UNL     1      35.345 -19.753 -21.105  0.00  0.00    +0.037 C 
ATOM      9  C   UNL     1      33.281 -23.491 -17.387  0.00  0.00    +0.129 C 
ATOM     10  H   UNL     1      31.556 -20.311 -20.663  0.00  0.00    +0.145 HD
ATOM     11  H   UNL     1      32.874 -19.530 -21.413  0.00  0.00    +0.145 HD
ENDROOT
TORSDOF 0
ENDMDL
MODEL 2
REMARK VINA RESULT:      -5.8      1.594      2.424
REMARK  Name = 445779
REMARK  0 active torsions:
REMARK  status: ('A' for Active; 'I' for Inactive)
REMARK                            x       y       z     vdW  Elec       q    Type
REMARK                         _______ _______ _______ _____ _____    ______ ____
ROOT
ATOM      1  N   UNL     1      35.107 -21.359 -19.397  0.00  0.00    -0.340 NA
ATOM      2  N   UNL     1      32.744 -21.233 -19.852  0.00  0.00    -0.186 NA
ATOM      3  N   UNL     1      36.600 -19.812 -20.396  0.00  0.00    -0.332 N 
ATOM      4  C   UNL     1      34.253 -19.659 -20.870  0.00  0.00    +0.042 C 
ATOM      5  C   UNL     1      35.283 -20.298 -20.210  0.00  0.00    +0.186 C 
ATOM      6  C   UNL     1      33.830 -21.769 -19.265  0.00  0.00    +0.066 C 
ATOM      7  C   UNL     1      32.992 -20.174 -20.652  0.00  0.00    +0.110 C 
ATOM      8  C   UNL     1      34.452 -18.489 -21.766  0.00  0.00    +0.037 C 
ATOM      9  C   UNL     1      33.596 -22.940 -18.373  0.00  0.00    +0.129 C 
ATOM     10  H   UNL     1      37.355 -20.249 -19.937  0.00  0.00    +0.145 HD
ATOM     11  H   UNL     1      36.762 -19.039 -20.982  0.00  0.00    +0.145 HD
ENDROOT
TORSDOF 0
ENDMDL
MODEL 3
REMARK VINA RESULT:      -5.7      6.318      7.570
REMARK  Name = 445779
REMARK  0 active torsions:
REMARK  status: ('A' for Active; 'I' for Inactive)
REMARK                            x       y       z     vdW  Elec       q    Type
REMARK                         _______ _______ _______ _____ _____    ______ ____
ROOT
ATOM      1  N   UNL     1      38.287 -26.604 -14.733  0.00  0.00    -0.340 NA
ATOM      2  N   UNL     1      39.008 -24.305 -14.741  0.00  0.00    -0.186 NA
ATOM      3  N   UNL     1      35.997 -27.139 -15.033  0.00  0.00    -0.332 N 
ATOM      4  C   UNL     1      36.681 -24.840 -15.046  0.00  0.00    +0.042 C 
ATOM      5  C   UNL     1      37.026 -26.171 -14.933  0.00  0.00    +0.186 C 
ATOM      6  C   UNL     1      39.215 -25.632 -14.648  0.00  0.00    +0.066 C 
ATOM      7  C   UNL     1      37.723 -23.942 -14.941  0.00  0.00    +0.110 C 
ATOM      8  C   UNL     1      35.290 -24.367 -15.266  0.00  0.00    +0.037 C 
ATOM      9  C   UNL     1      40.623 -26.072 -14.427  0.00  0.00    +0.129 C 
ATOM     10  H   UNL     1      36.214 -28.097 -14.956  0.00  0.00    +0.145 HD
ATOM     11  H   UNL     1      35.066 -26.855 -15.180  0.00  0.00    +0.145 HD
ENDROOT
TORSDOF 0
ENDMDL
MODEL 4
REMARK VINA RESULT:      -5.7      1.914      3.895
REMARK  Name = 445779
REMARK  0 active torsions:
REMARK  status: ('A' for Active; 'I' for Inactive)
REMARK                            x       y       z     vdW  Elec       q    Type
REMARK                         _______ _______ _______ _____ _____    ______ ____
ROOT
ATOM      1  N   UNL     1      33.882 -18.987 -21.059  0.00  0.00    -0.340 NA
ATOM      2  N   UNL     1      36.280 -18.917 -20.826  0.00  0.00    -0.186 NA
ATOM      3  N   UNL     1      32.662 -20.869 -20.290  0.00  0.00    -0.332 N 
ATOM      4  C   UNL     1      35.048 -20.831 -20.043  0.00  0.00    +0.042 C 
ATOM      5  C   UNL     1      33.898 -20.202 -20.473  0.00  0.00    +0.186 C 
ATOM      6  C   UNL     1      35.090 -18.410 -21.202  0.00  0.00    +0.066 C 
ATOM      7  C   UNL     1      36.222 -20.135 -20.248  0.00  0.00    +0.110 C 
ATOM      8  C   UNL     1      35.061 -22.170 -19.398  0.00  0.00    +0.037 C 
ATOM      9  C   UNL     1      35.114 -17.065 -21.846  0.00  0.00    +0.129 C 
ATOM     10  H   UNL     1      31.825 -20.444 -20.587  0.00  0.00    +0.145 HD
ATOM     11  H   UNL     1      32.640 -21.757 -19.865  0.00  0.00    +0.145 HD
ENDROOT
TORSDOF 0
ENDMDL
MODEL 5
REMARK VINA RESULT:      -5.6      5.732      7.828
REMARK  Name = 445779
REMARK  0 active torsions:
REMARK  status: ('A' for Active; 'I' for Inactive)
REMARK                            x       y       z     vdW  Elec       q    Type
REMARK                         _______ _______ _______ _____ _____    ______ ____
ROOT
ATOM      1  N   UNL     1      33.833 -15.210 -24.000  0.00  0.00    -0.340 NA
ATOM      2  N   UNL     1      34.014 -16.676 -25.904  0.00  0.00    -0.186 NA
ATOM      3  N   UNL     1      34.739 -15.854 -21.906  0.00  0.00    -0.332 N 
ATOM      4  C   UNL     1      34.937 -17.337 -23.782  0.00  0.00    +0.042 C 
ATOM      5  C   UNL     1      34.491 -16.134 -23.272  0.00  0.00    +0.186 C 
ATOM      6  C   UNL     1      33.631 -15.540 -25.290  0.00  0.00    +0.066 C 
ATOM      7  C   UNL     1      34.667 -17.556 -25.117  0.00  0.00    +0.110 C 
ATOM      8  C   UNL     1      35.662 -18.353 -22.976  0.00  0.00    +0.037 C 
ATOM      9  C   UNL     1      32.906 -14.542 -26.127  0.00  0.00    +0.129 C 
ATOM     10  H   UNL     1      34.433 -15.004 -21.515  0.00  0.00    +0.145 HD
ATOM     11  H   UNL     1      35.219 -16.509 -21.348  0.00  0.00    +0.145 HD
ENDROOT
TORSDOF 0
ENDMDL
MODEL 6
REMARK VINA RESULT:      -5.6      1.498      4.129
REMARK  Name = 445779
REMARK  0 active torsions:
REMARK  status: ('A' for Active; 'I' for Inactive)
REMARK                            x       y       z     vdW  Elec       q    Type
REMARK                         _______ _______ _______ _____ _____    ______ ____
ROOT
ATOM      1  N   UNL     1      35.717 -19.850 -20.513  0.00  0.00    -0.340 NA
ATOM      2  N   UNL     1      33.393 -19.559 -21.079  0.00  0.00    -0.186 NA
ATOM      3  N   UNL     1      36.380 -21.592 -19.048  0.00  0.00    -0.332 N 
ATOM      4  C   UNL     1      34.058 -21.329 -19.591  0.00  0.00    +0.042 C 
ATOM      5  C   UNL     1      35.360 -20.897 -19.742  0.00  0.00    +0.186 C 
ATOM      6  C   UNL     1      34.698 -19.235 -21.144  0.00  0.00    +0.066 C 
ATOM      7  C   UNL     1      33.107 -20.615 -20.290  0.00  0.00    +0.110 C 
ATOM      8  C   UNL     1      33.669 -22.484 -18.740  0.00  0.00    +0.037 C 
ATOM      9  C   UNL     1      35.054 -18.072 -22.007  0.00  0.00    +0.129 C 
ATOM     10  H   UNL     1      37.319 -21.306 -19.137  0.00  0.00    +0.145 HD
ATOM     11  H   UNL     1      36.152 -22.361 -18.478  0.00  0.00    +0.145 HD
ENDROOT
TORSDOF 0
ENDMDL
MODEL 7
REMARK VINA RESULT:      -5.5      4.132      5.723
REMARK  Name = 445779
REMARK  0 active torsions:
REMARK  status: ('A' for Active; 'I' for Inactive)
REMARK                            x       y       z     vdW  Elec       q    Type
REMARK                         _______ _______ _______ _____ _____    ______ ____
ROOT
ATOM      1  N   UNL     1      35.573 -18.130 -22.850  0.00  0.00    -0.340 NA
ATOM      2  N   UNL     1      35.169 -17.201 -20.664  0.00  0.00    -0.186 NA
ATOM      3  N   UNL     1      35.149 -16.840 -24.794  0.00  0.00    -0.332 N 
ATOM      4  C   UNL     1      34.736 -15.885 -22.632  0.00  0.00    +0.042 C 
ATOM      5  C   UNL     1      35.156 -16.964 -23.383  0.00  0.00    +0.186 C 
ATOM      6  C   UNL     1      35.554 -18.180 -21.505  0.00  0.00    +0.066 C 
ATOM      7  C   UNL     1      34.763 -16.062 -21.264  0.00  0.00    +0.110 C 
ATOM      8  C   UNL     1      34.277 -14.601 -23.223  0.00  0.00    +0.037 C 
ATOM      9  C   UNL     1      36.009 -19.455 -20.879  0.00  0.00    +0.129 C 
ATOM     10  H   UNL     1      35.444 -17.594 -25.355  0.00  0.00    +0.145 HD
ATOM     11  H   UNL     1      34.851 -16.001 -25.213  0.00  0.00    +0.145 HD
ENDROOT
TORSDOF 0
ENDMDL
MODEL 8
REMARK VINA RESULT:      -5.4      3.965      5.517
REMARK  Name = 445779
REMARK  0 active torsions:
REMARK  status: ('A' for Active; 'I' for Inactive)
REMARK                            x       y       z     vdW  Elec       q    Type
REMARK                         _______ _______ _______ _____ _____    ______ ____
ROOT
ATOM      1  N   UNL     1      35.195 -17.389 -20.700  0.00  0.00    -0.340 NA
ATOM      2  N   UNL     1      35.474 -18.415 -22.862  0.00  0.00    -0.186 NA
ATOM      3  N   UNL     1      34.508 -15.127 -20.531  0.00  0.00    -0.332 N 
ATOM      4  C   UNL     1      34.776 -16.118 -22.700  0.00  0.00    +0.042 C 
ATOM      5  C   UNL     1      34.838 -16.251 -21.327  0.00  0.00    +0.186 C 
ATOM      6  C   UNL     1      35.496 -18.417 -21.516  0.00  0.00    +0.066 C 
ATOM      7  C   UNL     1      35.107 -17.244 -23.424  0.00  0.00    +0.110 C 
ATOM      8  C   UNL     1      34.381 -14.861 -23.387  0.00  0.00    +0.037 C 
ATOM      9  C   UNL     1      35.896 -19.695 -20.859  0.00  0.00    +0.129 C 
ATOM     10  H   UNL     1      34.543 -15.192 -19.549  0.00  0.00    +0.145 HD
ATOM     11  H   UNL     1      34.242 -14.281 -20.959  0.00  0.00    +0.145 HD
ENDROOT
TORSDOF 0
ENDMDL
MODEL 9
REMARK VINA RESULT:      -5.3      4.572      6.052
REMARK  Name = 445779
REMARK  0 active torsions:
REMARK  status: ('A' for Active; 'I' for Inactive)
REMARK                            x       y       z     vdW  Elec       q    Type
REMARK                         _______ _______ _______ _____ _____    ______ ____
ROOT
ATOM      1  N   UNL     1      34.678 -15.949 -22.965  0.00  0.00    -0.340 NA
ATOM      2  N   UNL     1      34.671 -17.535 -21.151  0.00  0.00    -0.186 NA
ATOM      3  N   UNL     1      34.813 -16.701 -25.210  0.00  0.00    -0.332 N 
ATOM      4  C   UNL     1      34.808 -18.307 -23.427  0.00  0.00    +0.042 C 
ATOM      5  C   UNL     1      34.764 -16.985 -23.823  0.00  0.00    +0.186 C 
ATOM      6  C   UNL     1      34.636 -16.290 -21.663  0.00  0.00    +0.066 C 
ATOM      7  C   UNL     1      34.758 -18.524 -22.066  0.00  0.00    +0.110 C 
ATOM      8  C   UNL     1      34.903 -19.447 -24.376  0.00  0.00    +0.037 C 
ATOM      9  C   UNL     1      34.541 -15.170 -20.684  0.00  0.00    +0.129 C 
ATOM     10  H   UNL     1      34.783 -15.767 -25.521  0.00  0.00    +0.145 HD
ATOM     11  H   UNL     1      34.875 -17.436 -25.861  0.00  0.00    +0.145 HD
ENDROOT
TORSDOF 0
ENDMDL
