MODEL 1
REMARK VINA RESULT:     -10.0      0.000      0.000
REMARK  Name = 5311027
REMARK  15 active torsions:
REMARK  status: ('A' for Active; 'I' for Inactive)
REMARK    1  A    between atoms: C_1  and  C_23
REMARK    2  A    between atoms: C_2  and  C_10
REMARK    3  A    between atoms: C_3  and  O_6
REMARK    4  A    between atoms: C_4  and  O_8
REMARK    5  A    between atoms: C_11  and  C_12
REMARK    6  A    between atoms: C_12  and  O_13
REMARK    7  A    between atoms: C_12  and  C_15
REMARK    8  A    between atoms: C_15  and  C_16
REMARK    9  A    between atoms: C_16  and  C_17
REMARK   10  A    between atoms: C_23  and  C_24
REMARK   11  A    between atoms: C_25  and  C_26
REMARK   12  A    between atoms: C_26  and  C_27
REMARK   13  A    between atoms: C_27  and  C_28
REMARK   14  A    between atoms: C_28  and  C_31
REMARK   15  A    between atoms: N_30  and  C_33
REMARK                            x       y       z     vdW  Elec       q    Type
REMARK                         _______ _______ _______ _____ _____    ______ ____
ROOT
ATOM      1  C   UNL     1      33.273 -13.399 -25.217  0.00  0.00    +0.038 C 
ATOM      2  C   UNL     1      34.190 -14.560 -24.796  0.00  0.00    +0.051 C 
ATOM      3  C   UNL     1      32.971 -13.736 -26.680  0.00  0.00    +0.114 C 
ATOM      4  C   UNL     1      33.582 -15.785 -25.499  0.00  0.00    +0.117 C 
ATOM      5  C   UNL     1      32.723 -15.245 -26.654  0.00  0.00    +0.059 C 
ENDROOT
BRANCH   3   6
ATOM      6  O   UNL     1      34.058 -13.431 -27.546  0.00  0.00    -0.384 OA
ATOM      7  H   UNL     1      34.820 -13.142 -27.019  0.00  0.00    +0.210 HD
ENDBRANCH   3   6
BRANCH   4   8
ATOM      8  O   UNL     1      34.613 -16.615 -26.020  0.00  0.00    -0.384 OA
ATOM      9  H   UNL     1      35.332 -16.061 -26.362  0.00  0.00    +0.210 HD
ENDBRANCH   4   8
BRANCH   2  10
ATOM     10  C   UNL     1      34.278 -14.746 -23.314  0.00  0.00    -0.026 C 
ATOM     11  C   UNL     1      34.516 -15.926 -22.721  0.00  0.00    -0.002 C 
BRANCH  11  12
ATOM     12  C   UNL     1      34.602 -16.108 -21.232  0.00  0.00    +0.132 C 
BRANCH  12  13
ATOM     13  O   UNL     1      33.280 -16.140 -20.699  0.00  0.00    -0.380 OA
ATOM     14  H   UNL     1      32.876 -15.262 -20.782  0.00  0.00    +0.211 HD
ENDBRANCH  12  13
BRANCH  12  15
ATOM     15  C   UNL     1      35.314 -17.423 -20.884  0.00  0.00    +0.038 C 
BRANCH  15  16
ATOM     16  C   UNL     1      34.773 -18.644 -21.643  0.00  0.00    +0.029 C 
BRANCH  16  17
ATOM     17  C   UNL     1      34.531 -19.847 -20.767  0.00  0.00    -0.022 C 
ATOM     18  C   UNL     1      33.235 -20.161 -20.355  0.00  0.00    -0.004 C 
ATOM     19  C   UNL     1      35.602 -20.647 -20.369  0.00  0.00    -0.004 C 
ATOM     20  C   UNL     1      33.012 -21.274 -19.545  0.00  0.00    -0.000 C 
ATOM     21  C   UNL     1      35.378 -21.761 -19.558  0.00  0.00    -0.000 C 
ATOM     22  C   UNL     1      34.082 -22.074 -19.146  0.00  0.00    -0.000 C 
ENDBRANCH  16  17
ENDBRANCH  15  16
ENDBRANCH  12  15
ENDBRANCH  11  12
ENDBRANCH   2  10
BRANCH   1  23
ATOM     23  C   UNL     1      33.904 -12.029 -25.026  0.00  0.00    +0.028 C 
BRANCH  23  24
ATOM     24  C   UNL     1      33.237 -11.270 -23.917  0.00  0.00    -0.031 C 
ATOM     25  C   UNL     1      33.579 -10.024 -23.554  0.00  0.00    -0.031 C 
BRANCH  25  26
ATOM     26  C   UNL     1      34.671  -9.235 -24.214  0.00  0.00    +0.026 C 
BRANCH  26  27
ATOM     27  C   UNL     1      34.809  -7.846 -23.582  0.00  0.00    +0.014 C 
BRANCH  27  28
ATOM     28  C   UNL     1      33.569  -6.981 -23.804  0.00  0.00    +0.085 C 
BRANCH  28  31
ATOM     29  O   UNL     1      31.338  -6.920 -22.863  0.00  0.00    -0.275 OA
ATOM     30  N   UNL     1      33.141  -7.367 -21.468  0.00  0.00    -0.304 N 
ATOM     31  C   UNL     1      32.541  -7.087 -22.688  0.00  0.00    +0.222 C 
ATOM     32  H   UNL     1      34.119  -7.483 -21.442  0.00  0.00    +0.149 HD
BRANCH  30  33
ATOM     33  C   UNL     1      32.399  -7.499 -20.235  0.00  0.00    +0.089 C 
ATOM     34  C   UNL     1      32.057  -8.946 -19.945  0.00  0.00    +0.023 C 
ENDBRANCH  30  33
ENDBRANCH  28  31
ENDBRANCH  27  28
ENDBRANCH  26  27
ENDBRANCH  25  26
ENDBRANCH  23  24
ENDBRANCH   1  23
TORSDOF 15
ENDMDL
MODEL 2
REMARK VINA RESULT:      -9.9      8.491     13.701
REMARK  Name = 5311027
REMARK  15 active torsions:
REMARK  status: ('A' for Active; 'I' for Inactive)
REMARK    1  A    between atoms: C_1  and  C_23
REMARK    2  A    between atoms: C_2  and  C_10
REMARK    3  A    between atoms: C_3  and  O_6
REMARK    4  A    between atoms: C_4  and  O_8
REMARK    5  A    between atoms: C_11  and  C_12
REMARK    6  A    between atoms: C_12  and  O_13
REMARK    7  A    between atoms: C_12  and  C_15
REMARK    8  A    between atoms: C_15  and  C_16
REMARK    9  A    between atoms: C_16  and  C_17
REMARK   10  A    between atoms: C_23  and  C_24
REMARK   11  A    between atoms: C_25  and  C_26
REMARK   12  A    between atoms: C_26  and  C_27
REMARK   13  A    between atoms: C_27  and  C_28
REMARK   14  A    between atoms: C_28  and  C_31
REMARK   15  A    between atoms: N_30  and  C_33
REMARK                            x       y       z     vdW  Elec       q    Type
REMARK                         _______ _______ _______ _____ _____    ______ ____
ROOT
ATOM      1  C   UNL     1      36.663 -24.793 -13.926  0.00  0.00    +0.038 C 
ATOM      2  C   UNL     1      37.729 -24.711 -15.031  0.00  0.00    +0.051 C 
ATOM      3  C   UNL     1      37.161 -25.968 -13.079  0.00  0.00    +0.114 C 
ATOM      4  C   UNL     1      39.047 -25.005 -14.297  0.00  0.00    +0.117 C 
ATOM      5  C   UNL     1      38.669 -25.731 -12.995  0.00  0.00    +0.059 C 
ENDROOT
BRANCH   3   6
ATOM      6  O   UNL     1      36.893 -27.228 -13.682  0.00  0.00    -0.384 OA
ATOM      7  H   UNL     1      36.631 -27.864 -12.999  0.00  0.00    +0.210 HD
ENDBRANCH   3   6
BRANCH   4   8
ATOM      8  O   UNL     1      39.874 -25.847 -15.089  0.00  0.00    -0.384 OA
ATOM      9  H   UNL     1      39.369 -26.626 -15.369  0.00  0.00    +0.210 HD
ENDBRANCH   4   8
BRANCH   2  10
ATOM     10  C   UNL     1      37.759 -23.391 -15.737  0.00  0.00    -0.026 C 
ATOM     11  C   UNL     1      36.664 -22.754 -16.177  0.00  0.00    -0.002 C 
BRANCH  11  12
ATOM     12  C   UNL     1      36.700 -21.429 -16.887  0.00  0.00    +0.132 C 
BRANCH  12  13
ATOM     13  O   UNL     1      37.868 -20.723 -16.477  0.00  0.00    -0.380 OA
ATOM     14  H   UNL     1      38.016 -19.970 -17.070  0.00  0.00    +0.211 HD
ENDBRANCH  12  13
BRANCH  12  15
ATOM     15  C   UNL     1      36.743 -21.628 -18.409  0.00  0.00    +0.038 C 
BRANCH  15  16
ATOM     16  C   UNL     1      35.401 -22.057 -19.020  0.00  0.00    +0.029 C 
BRANCH  16  17
ATOM     17  C   UNL     1      34.737 -20.983 -19.846  0.00  0.00    -0.022 C 
ATOM     18  C   UNL     1      35.512 -20.100 -20.597  0.00  0.00    -0.004 C 
ATOM     19  C   UNL     1      33.346 -20.875 -19.859  0.00  0.00    -0.004 C 
ATOM     20  C   UNL     1      34.897 -19.108 -21.360  0.00  0.00    -0.000 C 
ATOM     21  C   UNL     1      32.731 -19.882 -20.622  0.00  0.00    -0.000 C 
ATOM     22  C   UNL     1      33.507 -18.999 -21.373  0.00  0.00    -0.000 C 
ENDBRANCH  16  17
ENDBRANCH  15  16
ENDBRANCH  12  15
ENDBRANCH  11  12
ENDBRANCH   2  10
BRANCH   1  23
ATOM     23  C   UNL     1      35.251 -24.982 -14.458  0.00  0.00    +0.028 C 
BRANCH  23  24
ATOM     24  C   UNL     1      34.304 -23.982 -13.864  0.00  0.00    -0.031 C 
ATOM     25  C   UNL     1      33.430 -23.262 -14.584  0.00  0.00    -0.031 C 
BRANCH  25  26
ATOM     26  C   UNL     1      33.291 -23.369 -16.074  0.00  0.00    +0.026 C 
BRANCH  26  27
ATOM     27  C   UNL     1      31.819 -23.340 -16.496  0.00  0.00    +0.014 C 
BRANCH  27  28
ATOM     28  C   UNL     1      30.874 -23.245 -15.298  0.00  0.00    +0.085 C 
BRANCH  28  31
ATOM     29  O   UNL     1      29.009 -24.650 -15.940  0.00  0.00    -0.275 OA
ATOM     30  N   UNL     1      28.647 -22.382 -15.593  0.00  0.00    -0.304 N 
ATOM     31  C   UNL     1      29.421 -23.533 -15.641  0.00  0.00    +0.222 C 
ATOM     32  H   UNL     1      29.083 -21.535 -15.340  0.00  0.00    +0.149 HD
BRANCH  30  33
ATOM     33  C   UNL     1      27.235 -22.365 -15.897  0.00  0.00    +0.089 C 
ATOM     34  C   UNL     1      26.983 -21.993 -17.343  0.00  0.00    +0.023 C 
ENDBRANCH  30  33
ENDBRANCH  28  31
ENDBRANCH  27  28
ENDBRANCH  26  27
ENDBRANCH  25  26
ENDBRANCH  23  24
ENDBRANCH   1  23
TORSDOF 15
ENDMDL
MODEL 3
REMARK VINA RESULT:      -9.9      1.195      1.772
REMARK  Name = 5311027
REMARK  15 active torsions:
REMARK  status: ('A' for Active; 'I' for Inactive)
REMARK    1  A    between atoms: C_1  and  C_23
REMARK    2  A    between atoms: C_2  and  C_10
REMARK    3  A    between atoms: C_3  and  O_6
REMARK    4  A    between atoms: C_4  and  O_8
REMARK    5  A    between atoms: C_11  and  C_12
REMARK    6  A    between atoms: C_12  and  O_13
REMARK    7  A    between atoms: C_12  and  C_15
REMARK    8  A    between atoms: C_15  and  C_16
REMARK    9  A    between atoms: C_16  and  C_17
REMARK   10  A    between atoms: C_23  and  C_24
REMARK   11  A    between atoms: C_25  and  C_26
REMARK   12  A    between atoms: C_26  and  C_27
REMARK   13  A    between atoms: C_27  and  C_28
REMARK   14  A    between atoms: C_28  and  C_31
REMARK   15  A    between atoms: N_30  and  C_33
REMARK                            x       y       z     vdW  Elec       q    Type
REMARK                         _______ _______ _______ _____ _____    ______ ____
ROOT
ATOM      1  C   UNL     1      33.235 -13.342 -25.330  0.00  0.00    +0.038 C 
ATOM      2  C   UNL     1      34.180 -14.458 -24.855  0.00  0.00    +0.051 C 
ATOM      3  C   UNL     1      32.914 -13.775 -26.764  0.00  0.00    +0.114 C 
ATOM      4  C   UNL     1      33.582 -15.735 -25.470  0.00  0.00    +0.117 C 
ATOM      5  C   UNL     1      32.693 -15.282 -26.640  0.00  0.00    +0.059 C 
ENDROOT
BRANCH   3   6
ATOM      6  O   UNL     1      33.980 -13.506 -27.667  0.00  0.00    -0.384 OA
ATOM      7  H   UNL     1      34.668 -14.183 -27.565  0.00  0.00    +0.210 HD
ENDBRANCH   3   6
BRANCH   4   8
ATOM      8  O   UNL     1      34.618 -16.578 -25.956  0.00  0.00    -0.384 OA
ATOM      9  H   UNL     1      35.105 -16.119 -26.658  0.00  0.00    +0.210 HD
ENDBRANCH   4   8
BRANCH   2  10
ATOM     10  C   UNL     1      34.296 -14.550 -23.366  0.00  0.00    -0.026 C 
ATOM     11  C   UNL     1      33.567 -15.384 -22.609  0.00  0.00    -0.002 C 
BRANCH  11  12
ATOM     12  C   UNL     1      33.687 -15.471 -21.113  0.00  0.00    +0.132 C 
BRANCH  12  13
ATOM     13  O   UNL     1      32.441 -15.915 -20.581  0.00  0.00    -0.380 OA
ATOM     14  H   UNL     1      32.095 -16.638 -21.128  0.00  0.00    +0.211 HD
ENDBRANCH  12  13
BRANCH  12  15
ATOM     15  C   UNL     1      34.786 -16.467 -20.712  0.00  0.00    +0.038 C 
BRANCH  15  16
ATOM     16  C   UNL     1      34.914 -17.669 -21.660  0.00  0.00    +0.029 C 
BRANCH  16  17
ATOM     17  C   UNL     1      34.630 -18.996 -21.002  0.00  0.00    -0.022 C 
ATOM     18  C   UNL     1      33.314 -19.374 -20.734  0.00  0.00    -0.004 C 
ATOM     19  C   UNL     1      35.683 -19.846 -20.664  0.00  0.00    -0.004 C 
ATOM     20  C   UNL     1      33.052 -20.601 -20.126  0.00  0.00    -0.000 C 
ATOM     21  C   UNL     1      35.421 -21.074 -20.055  0.00  0.00    -0.000 C 
ATOM     22  C   UNL     1      34.105 -21.451 -19.787  0.00  0.00    -0.000 C 
ENDBRANCH  16  17
ENDBRANCH  15  16
ENDBRANCH  12  15
ENDBRANCH  11  12
ENDBRANCH   2  10
BRANCH   1  23
ATOM     23  C   UNL     1      33.844 -11.952 -25.236  0.00  0.00    +0.028 C 
BRANCH  23  24
ATOM     24  C   UNL     1      33.375 -11.232 -24.006  0.00  0.00    -0.031 C 
ATOM     25  C   UNL     1      33.806 -10.013 -23.646  0.00  0.00    -0.031 C 
BRANCH  25  26
ATOM     26  C   UNL     1      34.810  -9.218 -24.429  0.00  0.00    +0.026 C 
BRANCH  26  27
ATOM     27  C   UNL     1      34.646  -7.717 -24.175  0.00  0.00    +0.014 C 
BRANCH  27  28
ATOM     28  C   UNL     1      34.037  -7.423 -22.804  0.00  0.00    +0.085 C 
BRANCH  28  31
ATOM     29  O   UNL     1      32.089  -6.327 -21.871  0.00  0.00    -0.275 OA
ATOM     30  N   UNL     1      32.381  -6.344 -24.176  0.00  0.00    -0.304 N 
ATOM     31  C   UNL     1      32.738  -6.636 -22.867  0.00  0.00    +0.222 C 
ATOM     32  H   UNL     1      32.978  -6.642 -24.901  0.00  0.00    +0.149 HD
BRANCH  30  33
ATOM     33  C   UNL     1      31.178  -5.625 -24.525  0.00  0.00    +0.089 C 
ATOM     34  C   UNL     1      31.478  -4.186 -24.891  0.00  0.00    +0.023 C 
ENDBRANCH  30  33
ENDBRANCH  28  31
ENDBRANCH  27  28
ENDBRANCH  26  27
ENDBRANCH  25  26
ENDBRANCH  23  24
ENDBRANCH   1  23
TORSDOF 15
ENDMDL
MODEL 4
REMARK VINA RESULT:      -9.9      8.146     13.425
REMARK  Name = 5311027
REMARK  15 active torsions:
REMARK  status: ('A' for Active; 'I' for Inactive)
REMARK    1  A    between atoms: C_1  and  C_23
REMARK    2  A    between atoms: C_2  and  C_10
REMARK    3  A    between atoms: C_3  and  O_6
REMARK    4  A    between atoms: C_4  and  O_8
REMARK    5  A    between atoms: C_11  and  C_12
REMARK    6  A    between atoms: C_12  and  O_13
REMARK    7  A    between atoms: C_12  and  C_15
REMARK    8  A    between atoms: C_15  and  C_16
REMARK    9  A    between atoms: C_16  and  C_17
REMARK   10  A    between atoms: C_23  and  C_24
REMARK   11  A    between atoms: C_25  and  C_26
REMARK   12  A    between atoms: C_26  and  C_27
REMARK   13  A    between atoms: C_27  and  C_28
REMARK   14  A    between atoms: C_28  and  C_31
REMARK   15  A    between atoms: N_30  and  C_33
REMARK                            x       y       z     vdW  Elec       q    Type
REMARK                         _______ _______ _______ _____ _____    ______ ____
ROOT
ATOM      1  C   UNL     1      34.689 -23.645 -13.741  0.00  0.00    +0.038 C 
ATOM      2  C   UNL     1      35.350 -24.069 -15.063  0.00  0.00    +0.051 C 
ATOM      3  C   UNL     1      35.761 -24.009 -12.710  0.00  0.00    +0.114 C 
ATOM      4  C   UNL     1      36.826 -23.675 -14.882  0.00  0.00    +0.117 C 
ATOM      5  C   UNL     1      37.060 -23.547 -13.368  0.00  0.00    +0.059 C 
ENDROOT
BRANCH   3   6
ATOM      6  O   UNL     1      35.812 -25.406 -12.447  0.00  0.00    -0.384 OA
ATOM      7  H   UNL     1      35.484 -25.893 -13.219  0.00  0.00    +0.210 HD
ENDBRANCH   3   6
BRANCH   4   8
ATOM      8  O   UNL     1      37.673 -24.687 -15.411  0.00  0.00    -0.384 OA
ATOM      9  H   UNL     1      37.134 -25.437 -15.707  0.00  0.00    +0.210 HD
ENDBRANCH   4   8
BRANCH   2  10
ATOM     10  C   UNL     1      34.740 -23.427 -16.270  0.00  0.00    -0.026 C 
ATOM     11  C   UNL     1      33.534 -23.751 -16.759  0.00  0.00    -0.002 C 
BRANCH  11  12
ATOM     12  C   UNL     1      32.926 -23.104 -17.973  0.00  0.00    +0.132 C 
BRANCH  12  13
ATOM     13  O   UNL     1      31.882 -22.231 -17.550  0.00  0.00    -0.380 OA
ATOM     14  H   UNL     1      32.120 -21.315 -17.764  0.00  0.00    +0.211 HD
ENDBRANCH  12  13
BRANCH  12  15
ATOM     15  C   UNL     1      33.978 -22.291 -18.741  0.00  0.00    +0.038 C 
BRANCH  15  16
ATOM     16  C   UNL     1      33.383 -21.271 -19.723  0.00  0.00    +0.029 C 
BRANCH  16  17
ATOM     17  C   UNL     1      34.403 -20.333 -20.319  0.00  0.00    -0.022 C 
ATOM     18  C   UNL     1      33.985 -19.227 -21.059  0.00  0.00    -0.004 C 
ATOM     19  C   UNL     1      35.764 -20.572 -20.129  0.00  0.00    -0.004 C 
ATOM     20  C   UNL     1      34.929 -18.360 -21.610  0.00  0.00    -0.000 C 
ATOM     21  C   UNL     1      36.708 -19.704 -20.680  0.00  0.00    -0.000 C 
ATOM     22  C   UNL     1      36.290 -18.598 -21.420  0.00  0.00    -0.000 C 
ENDBRANCH  16  17
ENDBRANCH  15  16
ENDBRANCH  12  15
ENDBRANCH  11  12
ENDBRANCH   2  10
BRANCH   1  23
ATOM     23  C   UNL     1      33.349 -24.318 -13.491  0.00  0.00    +0.028 C 
BRANCH  23  24
ATOM     24  C   UNL     1      32.236 -23.314 -13.424  0.00  0.00    -0.031 C 
ATOM     25  C   UNL     1      31.011 -23.525 -13.928  0.00  0.00    -0.031 C 
BRANCH  25  26
ATOM     26  C   UNL     1      30.600 -24.792 -14.620  0.00  0.00    +0.026 C 
BRANCH  26  27
ATOM     27  C   UNL     1      29.138 -24.726 -15.073  0.00  0.00    +0.014 C 
BRANCH  27  28
ATOM     28  C   UNL     1      28.970 -23.947 -16.378  0.00  0.00    +0.085 C 
BRANCH  28  31
ATOM     29  O   UNL     1      28.307 -21.875 -15.314  0.00  0.00    -0.275 OA
ATOM     30  N   UNL     1      27.201 -22.562 -17.238  0.00  0.00    -0.304 N 
ATOM     31  C   UNL     1      28.149 -22.676 -16.231  0.00  0.00    +0.222 C 
ATOM     32  H   UNL     1      27.161 -23.266 -17.926  0.00  0.00    +0.149 HD
BRANCH  30  33
ATOM     33  C   UNL     1      26.271 -21.461 -17.326  0.00  0.00    +0.089 C 
ATOM     34  C   UNL     1      25.818 -21.230 -18.753  0.00  0.00    +0.023 C 
ENDBRANCH  30  33
ENDBRANCH  28  31
ENDBRANCH  27  28
ENDBRANCH  26  27
ENDBRANCH  25  26
ENDBRANCH  23  24
ENDBRANCH   1  23
TORSDOF 15
ENDMDL
MODEL 5
REMARK VINA RESULT:      -9.8      1.926      3.104
REMARK  Name = 5311027
REMARK  15 active torsions:
REMARK  status: ('A' for Active; 'I' for Inactive)
REMARK    1  A    between atoms: C_1  and  C_23
REMARK    2  A    between atoms: C_2  and  C_10
REMARK    3  A    between atoms: C_3  and  O_6
REMARK    4  A    between atoms: C_4  and  O_8
REMARK    5  A    between atoms: C_11  and  C_12
REMARK    6  A    between atoms: C_12  and  O_13
REMARK    7  A    between atoms: C_12  and  C_15
REMARK    8  A    between atoms: C_15  and  C_16
REMARK    9  A    between atoms: C_16  and  C_17
REMARK   10  A    between atoms: C_23  and  C_24
REMARK   11  A    between atoms: C_25  and  C_26
REMARK   12  A    between atoms: C_26  and  C_27
REMARK   13  A    between atoms: C_27  and  C_28
REMARK   14  A    between atoms: C_28  and  C_31
REMARK   15  A    between atoms: N_30  and  C_33
REMARK                            x       y       z     vdW  Elec       q    Type
REMARK                         _______ _______ _______ _____ _____    ______ ____
ROOT
ATOM      1  C   UNL     1      33.421 -14.629 -23.742  0.00  0.00    +0.038 C 
ATOM      2  C   UNL     1      34.206 -15.167 -24.950  0.00  0.00    +0.051 C 
ATOM      3  C   UNL     1      32.675 -13.435 -24.343  0.00  0.00    +0.114 C 
ATOM      4  C   UNL     1      33.227 -15.010 -26.126  0.00  0.00    +0.117 C 
ATOM      5  C   UNL     1      32.189 -13.962 -25.694  0.00  0.00    +0.059 C 
ENDROOT
BRANCH   3   6
ATOM      6  O   UNL     1      33.517 -12.303 -24.530  0.00  0.00    -0.384 OA
ATOM      7  H   UNL     1      34.425 -12.601 -24.697  0.00  0.00    +0.210 HD
ENDBRANCH   3   6
BRANCH   4   8
ATOM      8  O   UNL     1      33.917 -14.550 -27.281  0.00  0.00    -0.384 OA
ATOM      9  H   UNL     1      33.901 -13.580 -27.302  0.00  0.00    +0.210 HD
ENDBRANCH   4   8
BRANCH   2  10
ATOM     10  C   UNL     1      34.665 -16.582 -24.784  0.00  0.00    -0.026 C 
ATOM     11  C   UNL     1      35.227 -17.059 -23.663  0.00  0.00    -0.002 C 
BRANCH  11  12
ATOM     12  C   UNL     1      35.688 -18.481 -23.502  0.00  0.00    +0.132 C 
BRANCH  12  13
ATOM     13  O   UNL     1      36.813 -18.499 -22.627  0.00  0.00    -0.380 OA
ATOM     14  H   UNL     1      37.477 -19.118 -22.968  0.00  0.00    +0.211 HD
ENDBRANCH  12  13
BRANCH  12  15
ATOM     15  C   UNL     1      34.572 -19.349 -22.901  0.00  0.00    +0.038 C 
BRANCH  15  16
ATOM     16  C   UNL     1      34.223 -18.998 -21.447  0.00  0.00    +0.029 C 
BRANCH  16  17
ATOM     17  C   UNL     1      34.334 -20.163 -20.496  0.00  0.00    -0.022 C 
ATOM     18  C   UNL     1      33.182 -20.744 -19.967  0.00  0.00    -0.004 C 
ATOM     19  C   UNL     1      35.590 -20.660 -20.146  0.00  0.00    -0.004 C 
ATOM     20  C   UNL     1      33.285 -21.822 -19.088  0.00  0.00    -0.000 C 
ATOM     21  C   UNL     1      35.693 -21.738 -19.266  0.00  0.00    -0.000 C 
ATOM     22  C   UNL     1      34.540 -22.318 -18.737  0.00  0.00    -0.000 C 
ENDBRANCH  16  17
ENDBRANCH  15  16
ENDBRANCH  12  15
ENDBRANCH  11  12
ENDBRANCH   2  10
BRANCH   1  23
ATOM     23  C   UNL     1      34.304 -14.263 -22.560  0.00  0.00    +0.028 C 
BRANCH  23  24
ATOM     24  C   UNL     1      33.732 -14.771 -21.270  0.00  0.00    -0.031 C 
ATOM     25  C   UNL     1      32.746 -14.156 -20.598  0.00  0.00    -0.031 C 
BRANCH  25  26
ATOM     26  C   UNL     1      32.094 -12.884 -21.053  0.00  0.00    +0.026 C 
BRANCH  26  27
ATOM     27  C   UNL     1      31.905 -11.911 -19.885  0.00  0.00    +0.014 C 
BRANCH  27  28
ATOM     28  C   UNL     1      31.072 -10.691 -20.276  0.00  0.00    +0.085 C 
BRANCH  28  31
ATOM     29  O   UNL     1      32.433  -8.927 -19.327  0.00  0.00    -0.275 OA
ATOM     30  N   UNL     1      31.832  -8.809 -21.567  0.00  0.00    -0.304 N 
ATOM     31  C   UNL     1      31.863  -9.393 -20.309  0.00  0.00    +0.222 C 
ATOM     32  H   UNL     1      31.343  -9.271 -22.287  0.00  0.00    +0.149 HD
BRANCH  30  33
ATOM     33  C   UNL     1      32.484  -7.557 -21.874  0.00  0.00    +0.089 C 
ATOM     34  C   UNL     1      33.780  -7.775 -22.627  0.00  0.00    +0.023 C 
ENDBRANCH  30  33
ENDBRANCH  28  31
ENDBRANCH  27  28
ENDBRANCH  26  27
ENDBRANCH  25  26
ENDBRANCH  23  24
ENDBRANCH   1  23
TORSDOF 15
ENDMDL
MODEL 6
REMARK VINA RESULT:      -9.7      2.566      6.210
REMARK  Name = 5311027
REMARK  15 active torsions:
REMARK  status: ('A' for Active; 'I' for Inactive)
REMARK    1  A    between atoms: C_1  and  C_23
REMARK    2  A    between atoms: C_2  and  C_10
REMARK    3  A    between atoms: C_3  and  O_6
REMARK    4  A    between atoms: C_4  and  O_8
REMARK    5  A    between atoms: C_11  and  C_12
REMARK    6  A    between atoms: C_12  and  O_13
REMARK    7  A    between atoms: C_12  and  C_15
REMARK    8  A    between atoms: C_15  and  C_16
REMARK    9  A    between atoms: C_16  and  C_17
REMARK   10  A    between atoms: C_23  and  C_24
REMARK   11  A    between atoms: C_25  and  C_26
REMARK   12  A    between atoms: C_26  and  C_27
REMARK   13  A    between atoms: C_27  and  C_28
REMARK   14  A    between atoms: C_28  and  C_31
REMARK   15  A    between atoms: N_30  and  C_33
REMARK                            x       y       z     vdW  Elec       q    Type
REMARK                         _______ _______ _______ _____ _____    ______ ____
ROOT
ATOM      1  C   UNL     1      32.698 -10.112 -21.884  0.00  0.00    +0.038 C 
ATOM      2  C   UNL     1      31.562 -10.956 -21.285  0.00  0.00    +0.051 C 
ATOM      3  C   UNL     1      32.543  -8.782 -21.141  0.00  0.00    +0.114 C 
ATOM      4  C   UNL     1      31.556 -10.567 -19.798  0.00  0.00    +0.117 C 
ATOM      5  C   UNL     1      32.272  -9.210 -19.699  0.00  0.00    +0.059 C 
ENDROOT
BRANCH   3   6
ATOM      6  O   UNL     1      31.459  -8.004 -21.635  0.00  0.00    -0.384 OA
ATOM      7  H   UNL     1      31.717  -7.585 -22.472  0.00  0.00    +0.210 HD
ENDBRANCH   3   6
BRANCH   4   8
ATOM      8  O   UNL     1      30.220 -10.436 -19.329  0.00  0.00    -0.384 OA
ATOM      9  H   UNL     1      29.766  -9.745 -19.836  0.00  0.00    +0.210 HD
ENDBRANCH   4   8
BRANCH   2  10
ATOM     10  C   UNL     1      31.743 -12.429 -21.482  0.00  0.00    -0.026 C 
ATOM     11  C   UNL     1      32.434 -13.215 -20.644  0.00  0.00    -0.002 C 
BRANCH  11  12
ATOM     12  C   UNL     1      32.615 -14.694 -20.847  0.00  0.00    +0.132 C 
BRANCH  12  13
ATOM     13  O   UNL     1      32.370 -15.000 -22.217  0.00  0.00    -0.380 OA
ATOM     14  H   UNL     1      32.895 -15.774 -22.475  0.00  0.00    +0.211 HD
ENDBRANCH  12  13
BRANCH  12  15
ATOM     15  C   UNL     1      34.044 -15.123 -20.485  0.00  0.00    +0.038 C 
BRANCH  15  16
ATOM     16  C   UNL     1      34.723 -15.992 -21.555  0.00  0.00    +0.029 C 
BRANCH  16  17
ATOM     17  C   UNL     1      34.686 -17.469 -21.252  0.00  0.00    -0.022 C 
ATOM     18  C   UNL     1      35.873 -18.196 -21.171  0.00  0.00    -0.004 C 
ATOM     19  C   UNL     1      33.462 -18.109 -21.052  0.00  0.00    -0.004 C 
ATOM     20  C   UNL     1      35.837 -19.562 -20.891  0.00  0.00    -0.000 C 
ATOM     21  C   UNL     1      33.426 -19.475 -20.772  0.00  0.00    -0.000 C 
ATOM     22  C   UNL     1      34.615 -20.201 -20.691  0.00  0.00    -0.000 C 
ENDBRANCH  16  17
ENDBRANCH  15  16
ENDBRANCH  12  15
ENDBRANCH  11  12
ENDBRANCH   2  10
BRANCH   1  23
ATOM     23  C   UNL     1      32.620  -9.976 -23.397  0.00  0.00    +0.028 C 
BRANCH  23  24
ATOM     24  C   UNL     1      33.982  -9.801 -24.002  0.00  0.00    -0.031 C 
ATOM     25  C   UNL     1      34.491 -10.614 -24.940  0.00  0.00    -0.031 C 
BRANCH  25  26
ATOM     26  C   UNL     1      33.763 -11.799 -25.501  0.00  0.00    +0.026 C 
BRANCH  26  27
ATOM     27  C   UNL     1      33.810 -12.987 -24.535  0.00  0.00    +0.014 C 
BRANCH  27  28
ATOM     28  C   UNL     1      32.835 -14.096 -24.930  0.00  0.00    +0.085 C 
BRANCH  28  31
ATOM     29  O   UNL     1      33.476 -15.255 -26.958  0.00  0.00    -0.275 OA
ATOM     30  N   UNL     1      34.027 -16.185 -24.902  0.00  0.00    -0.304 N 
ATOM     31  C   UNL     1      33.476 -15.218 -25.731  0.00  0.00    +0.222 C 
ATOM     32  H   UNL     1      33.970 -16.055 -23.927  0.00  0.00    +0.149 HD
BRANCH  30  33
ATOM     33  C   UNL     1      34.680 -17.374 -25.399  0.00  0.00    +0.089 C 
ATOM     34  C   UNL     1      34.285 -18.599 -24.601  0.00  0.00    +0.023 C 
ENDBRANCH  30  33
ENDBRANCH  28  31
ENDBRANCH  27  28
ENDBRANCH  26  27
ENDBRANCH  25  26
ENDBRANCH  23  24
ENDBRANCH   1  23
TORSDOF 15
ENDMDL
MODEL 7
REMARK VINA RESULT:      -9.7      2.664      4.447
REMARK  Name = 5311027
REMARK  15 active torsions:
REMARK  status: ('A' for Active; 'I' for Inactive)
REMARK    1  A    between atoms: C_1  and  C_23
REMARK    2  A    between atoms: C_2  and  C_10
REMARK    3  A    between atoms: C_3  and  O_6
REMARK    4  A    between atoms: C_4  and  O_8
REMARK    5  A    between atoms: C_11  and  C_12
REMARK    6  A    between atoms: C_12  and  O_13
REMARK    7  A    between atoms: C_12  and  C_15
REMARK    8  A    between atoms: C_15  and  C_16
REMARK    9  A    between atoms: C_16  and  C_17
REMARK   10  A    between atoms: C_23  and  C_24
REMARK   11  A    between atoms: C_25  and  C_26
REMARK   12  A    between atoms: C_26  and  C_27
REMARK   13  A    between atoms: C_27  and  C_28
REMARK   14  A    between atoms: C_28  and  C_31
REMARK   15  A    between atoms: N_30  and  C_33
REMARK                            x       y       z     vdW  Elec       q    Type
REMARK                         _______ _______ _______ _____ _____    ______ ____
ROOT
ATOM      1  C   UNL     1      34.054 -16.482 -22.200  0.00  0.00    +0.038 C 
ATOM      2  C   UNL     1      34.990 -17.697 -22.101  0.00  0.00    +0.051 C 
ATOM      3  C   UNL     1      34.258 -16.029 -23.648  0.00  0.00    +0.114 C 
ATOM      4  C   UNL     1      34.835 -18.395 -23.463  0.00  0.00    +0.117 C 
ATOM      5  C   UNL     1      34.274 -17.341 -24.432  0.00  0.00    +0.059 C 
ENDROOT
BRANCH   3   6
ATOM      6  O   UNL     1      35.482 -15.329 -23.834  0.00  0.00    -0.384 OA
ATOM      7  H   UNL     1      35.933 -15.235 -22.980  0.00  0.00    +0.210 HD
ENDBRANCH   3   6
BRANCH   4   8
ATOM      8  O   UNL     1      36.099 -18.848 -23.930  0.00  0.00    -0.384 OA
ATOM      9  H   UNL     1      36.104 -18.848 -24.900  0.00  0.00    +0.210 HD
ENDBRANCH   4   8
BRANCH   2  10
ATOM     10  C   UNL     1      34.668 -18.610 -20.960  0.00  0.00    -0.026 C 
ATOM     11  C   UNL     1      34.229 -19.868 -21.110  0.00  0.00    -0.002 C 
BRANCH  11  12
ATOM     12  C   UNL     1      33.906 -20.781 -19.960  0.00  0.00    +0.132 C 
BRANCH  12  13
ATOM     13  O   UNL     1      32.651 -21.407 -20.213  0.00  0.00    -0.380 OA
ATOM     14  H   UNL     1      32.066 -21.280 -19.448  0.00  0.00    +0.211 HD
ENDBRANCH  12  13
BRANCH  12  15
ATOM     15  C   UNL     1      34.984 -21.865 -19.805  0.00  0.00    +0.038 C 
BRANCH  15  16
ATOM     16  C   UNL     1      36.164 -21.447 -18.916  0.00  0.00    +0.029 C 
BRANCH  16  17
ATOM     17  C   UNL     1      36.126 -22.048 -17.533  0.00  0.00    -0.022 C 
ATOM     18  C   UNL     1      34.977 -22.700 -17.086  0.00  0.00    -0.004 C 
ATOM     19  C   UNL     1      37.242 -21.952 -16.700  0.00  0.00    -0.004 C 
ATOM     20  C   UNL     1      34.943 -23.255 -15.807  0.00  0.00    -0.000 C 
ATOM     21  C   UNL     1      37.208 -22.507 -15.421  0.00  0.00    -0.000 C 
ATOM     22  C   UNL     1      36.058 -23.159 -14.975  0.00  0.00    -0.000 C 
ENDBRANCH  16  17
ENDBRANCH  15  16
ENDBRANCH  12  15
ENDBRANCH  11  12
ENDBRANCH   2  10
BRANCH   1  23
ATOM     23  C   UNL     1      34.356 -15.399 -21.175  0.00  0.00    +0.028 C 
BRANCH  23  24
ATOM     24  C   UNL     1      33.146 -15.072 -20.351  0.00  0.00    -0.031 C 
ATOM     25  C   UNL     1      32.271 -14.104 -20.663  0.00  0.00    -0.031 C 
BRANCH  25  26
ATOM     26  C   UNL     1      32.393 -13.228 -21.875  0.00  0.00    +0.026 C 
BRANCH  26  27
ATOM     27  C   UNL     1      31.646 -11.905 -21.680  0.00  0.00    +0.014 C 
BRANCH  27  28
ATOM     28  C   UNL     1      31.429 -11.574 -20.204  0.00  0.00    +0.085 C 
BRANCH  28  31
ATOM     29  O   UNL     1      32.217  -9.893 -18.648  0.00  0.00    -0.275 OA
ATOM     30  N   UNL     1      32.023  -9.348 -20.897  0.00  0.00    -0.304 N 
ATOM     31  C   UNL     1      31.939 -10.198 -19.804  0.00  0.00    +0.222 C 
ATOM     32  H   UNL     1      31.775  -9.698 -21.784  0.00  0.00    +0.149 HD
BRANCH  30  33
ATOM     33  C   UNL     1      32.457  -7.974 -20.798  0.00  0.00    +0.089 C 
ATOM     34  C   UNL     1      31.816  -7.110 -21.865  0.00  0.00    +0.023 C 
ENDBRANCH  30  33
ENDBRANCH  28  31
ENDBRANCH  27  28
ENDBRANCH  26  27
ENDBRANCH  25  26
ENDBRANCH  23  24
ENDBRANCH   1  23
TORSDOF 15
ENDMDL
MODEL 8
REMARK VINA RESULT:      -9.6      2.004      2.898
REMARK  Name = 5311027
REMARK  15 active torsions:
REMARK  status: ('A' for Active; 'I' for Inactive)
REMARK    1  A    between atoms: C_1  and  C_23
REMARK    2  A    between atoms: C_2  and  C_10
REMARK    3  A    between atoms: C_3  and  O_6
REMARK    4  A    between atoms: C_4  and  O_8
REMARK    5  A    between atoms: C_11  and  C_12
REMARK    6  A    between atoms: C_12  and  O_13
REMARK    7  A    between atoms: C_12  and  C_15
REMARK    8  A    between atoms: C_15  and  C_16
REMARK    9  A    between atoms: C_16  and  C_17
REMARK   10  A    between atoms: C_23  and  C_24
REMARK   11  A    between atoms: C_25  and  C_26
REMARK   12  A    between atoms: C_26  and  C_27
REMARK   13  A    between atoms: C_27  and  C_28
REMARK   14  A    between atoms: C_28  and  C_31
REMARK   15  A    between atoms: N_30  and  C_33
REMARK                            x       y       z     vdW  Elec       q    Type
REMARK                         _______ _______ _______ _____ _____    ______ ____
ROOT
ATOM      1  C   UNL     1      33.391 -13.489 -22.870  0.00  0.00    +0.038 C 
ATOM      2  C   UNL     1      32.954 -14.947 -22.654  0.00  0.00    +0.051 C 
ATOM      3  C   UNL     1      32.607 -12.749 -21.783  0.00  0.00    +0.114 C 
ATOM      4  C   UNL     1      32.871 -15.086 -21.124  0.00  0.00    +0.117 C 
ATOM      5  C   UNL     1      32.743 -13.660 -20.563  0.00  0.00    +0.059 C 
ENDROOT
BRANCH   3   6
ATOM      6  O   UNL     1      31.236 -12.578 -22.120  0.00  0.00    -0.384 OA
ATOM      7  H   UNL     1      31.136 -11.793 -22.681  0.00  0.00    +0.210 HD
ENDBRANCH   3   6
BRANCH   4   8
ATOM      8  O   UNL     1      31.726 -15.847 -20.761  0.00  0.00    -0.384 OA
ATOM      9  H   UNL     1      31.979 -16.776 -20.648  0.00  0.00    +0.210 HD
ENDBRANCH   4   8
BRANCH   2  10
ATOM     10  C   UNL     1      33.886 -15.949 -23.261  0.00  0.00    -0.026 C 
ATOM     11  C   UNL     1      34.442 -16.962 -22.581  0.00  0.00    -0.002 C 
BRANCH  11  12
ATOM     12  C   UNL     1      35.379 -17.964 -23.195  0.00  0.00    +0.132 C 
BRANCH  12  13
ATOM     13  O   UNL     1      36.678 -17.775 -22.639  0.00  0.00    -0.380 OA
ATOM     14  H   UNL     1      37.071 -18.638 -22.436  0.00  0.00    +0.211 HD
ENDBRANCH  12  13
BRANCH  12  15
ATOM     15  C   UNL     1      34.912 -19.397 -22.901  0.00  0.00    +0.038 C 
BRANCH  15  16
ATOM     16  C   UNL     1      33.955 -19.508 -21.705  0.00  0.00    +0.029 C 
BRANCH  16  17
ATOM     17  C   UNL     1      34.463 -20.400 -20.600  0.00  0.00    -0.022 C 
ATOM     18  C   UNL     1      33.567 -21.159 -19.847  0.00  0.00    -0.004 C 
ATOM     19  C   UNL     1      35.831 -20.467 -20.332  0.00  0.00    -0.004 C 
ATOM     20  C   UNL     1      34.038 -21.984 -18.826  0.00  0.00    -0.000 C 
ATOM     21  C   UNL     1      36.302 -21.293 -19.310  0.00  0.00    -0.000 C 
ATOM     22  C   UNL     1      35.404 -22.051 -18.557  0.00  0.00    -0.000 C 
ENDBRANCH  16  17
ENDBRANCH  15  16
ENDBRANCH  12  15
ENDBRANCH  11  12
ENDBRANCH   2  10
BRANCH   1  23
ATOM     23  C   UNL     1      33.117 -12.976 -24.275  0.00  0.00    +0.028 C 
BRANCH  23  24
ATOM     24  C   UNL     1      34.228 -12.094 -24.762  0.00  0.00    -0.031 C 
ATOM     25  C   UNL     1      34.232 -10.758 -24.631  0.00  0.00    -0.031 C 
BRANCH  25  26
ATOM     26  C   UNL     1      33.125  -9.981 -23.980  0.00  0.00    +0.026 C 
BRANCH  26  27
ATOM     27  C   UNL     1      33.676  -8.790 -23.190  0.00  0.00    +0.014 C 
BRANCH  27  28
ATOM     28  C   UNL     1      32.583  -7.794 -22.805  0.00  0.00    +0.085 C 
BRANCH  28  31
ATOM     29  O   UNL     1      32.296  -6.701 -20.663  0.00  0.00    -0.275 OA
ATOM     30  N   UNL     1      32.078  -9.010 -20.791  0.00  0.00    -0.304 N 
ATOM     31  C   UNL     1      32.300  -7.743 -21.312  0.00  0.00    +0.222 C 
ATOM     32  H   UNL     1      32.104  -9.780 -21.405  0.00  0.00    +0.149 HD
BRANCH  30  33
ATOM     33  C   UNL     1      31.808  -9.254 -19.393  0.00  0.00    +0.089 C 
ATOM     34  C   UNL     1      31.228 -10.635 -19.172  0.00  0.00    +0.023 C 
ENDBRANCH  30  33
ENDBRANCH  28  31
ENDBRANCH  27  28
ENDBRANCH  26  27
ENDBRANCH  25  26
ENDBRANCH  23  24
ENDBRANCH   1  23
TORSDOF 15
ENDMDL
MODEL 9
REMARK VINA RESULT:      -9.6      7.124     13.113
REMARK  Name = 5311027
REMARK  15 active torsions:
REMARK  status: ('A' for Active; 'I' for Inactive)
REMARK    1  A    between atoms: C_1  and  C_23
REMARK    2  A    between atoms: C_2  and  C_10
REMARK    3  A    between atoms: C_3  and  O_6
REMARK    4  A    between atoms: C_4  and  O_8
REMARK    5  A    between atoms: C_11  and  C_12
REMARK    6  A    between atoms: C_12  and  O_13
REMARK    7  A    between atoms: C_12  and  C_15
REMARK    8  A    between atoms: C_15  and  C_16
REMARK    9  A    between atoms: C_16  and  C_17
REMARK   10  A    between atoms: C_23  and  C_24
REMARK   11  A    between atoms: C_25  and  C_26
REMARK   12  A    between atoms: C_26  and  C_27
REMARK   13  A    between atoms: C_27  and  C_28
REMARK   14  A    between atoms: C_28  and  C_31
REMARK   15  A    between atoms: N_30  and  C_33
REMARK                            x       y       z     vdW  Elec       q    Type
REMARK                         _______ _______ _______ _____ _____    ______ ____
ROOT
ATOM      1  C   UNL     1      34.690 -22.908 -14.882  0.00  0.00    +0.038 C 
ATOM      2  C   UNL     1      35.760 -23.116 -15.965  0.00  0.00    +0.051 C 
ATOM      3  C   UNL     1      35.224 -23.761 -13.728  0.00  0.00    +0.114 C 
ATOM      4  C   UNL     1      37.083 -23.132 -15.181  0.00  0.00    +0.117 C 
ATOM      5  C   UNL     1      36.721 -23.455 -13.722  0.00  0.00    +0.059 C 
ENDROOT
BRANCH   3   6
ATOM      6  O   UNL     1      35.007 -25.152 -13.931  0.00  0.00    -0.384 OA
ATOM      7  H   UNL     1      35.654 -25.659 -13.416  0.00  0.00    +0.210 HD
ENDBRANCH   3   6
BRANCH   4   8
ATOM      8  O   UNL     1      37.946 -24.139 -15.692  0.00  0.00    -0.384 OA
ATOM      9  H   UNL     1      37.651 -25.008 -15.379  0.00  0.00    +0.210 HD
ENDBRANCH   4   8
BRANCH   2  10
ATOM     10  C   UNL     1      35.748 -22.063 -17.029  0.00  0.00    -0.026 C 
ATOM     11  C   UNL     1      35.354 -22.282 -18.292  0.00  0.00    -0.002 C 
BRANCH  11  12
ATOM     12  C   UNL     1      35.344 -21.221 -19.358  0.00  0.00    +0.132 C 
BRANCH  12  13
ATOM     13  O   UNL     1      36.470 -21.419 -20.209  0.00  0.00    -0.380 OA
ATOM     14  H   UNL     1      37.040 -20.635 -20.181  0.00  0.00    +0.211 HD
ENDBRANCH  12  13
BRANCH  12  15
ATOM     15  C   UNL     1      34.061 -21.303 -20.197  0.00  0.00    +0.038 C 
BRANCH  15  16
ATOM     16  C   UNL     1      33.372 -19.948 -20.418  0.00  0.00    +0.029 C 
BRANCH  16  17
ATOM     17  C   UNL     1      34.105 -19.042 -21.375  0.00  0.00    -0.022 C 
ATOM     18  C   UNL     1      34.602 -19.550 -22.575  0.00  0.00    -0.004 C 
ATOM     19  C   UNL     1      34.283 -17.694 -21.061  0.00  0.00    -0.004 C 
ATOM     20  C   UNL     1      35.279 -18.711 -23.460  0.00  0.00    -0.000 C 
ATOM     21  C   UNL     1      34.961 -16.855 -21.946  0.00  0.00    -0.000 C 
ATOM     22  C   UNL     1      35.458 -17.364 -23.146  0.00  0.00    -0.000 C 
ENDBRANCH  16  17
ENDBRANCH  15  16
ENDBRANCH  12  15
ENDBRANCH  11  12
ENDBRANCH   2  10
BRANCH   1  23
ATOM     23  C   UNL     1      33.290 -23.298 -15.330  0.00  0.00    +0.028 C 
BRANCH  23  24
ATOM     24  C   UNL     1      32.255 -22.860 -14.335  0.00  0.00    -0.031 C 
ATOM     25  C   UNL     1      31.218 -23.621 -13.955  0.00  0.00    -0.031 C 
BRANCH  25  26
ATOM     26  C   UNL     1      30.963 -25.005 -14.477  0.00  0.00    +0.026 C 
BRANCH  26  27
ATOM     27  C   UNL     1      29.676 -25.055 -15.306  0.00  0.00    +0.014 C 
BRANCH  27  28
ATOM     28  C   UNL     1      29.565 -23.882 -16.279  0.00  0.00    +0.085 C 
BRANCH  28  31
ATOM     29  O   UNL     1      27.555 -24.273 -17.571  0.00  0.00    -0.275 OA
ATOM     30  N   UNL     1      27.623 -22.473 -16.104  0.00  0.00    -0.304 N 
ATOM     31  C   UNL     1      28.143 -23.595 -16.733  0.00  0.00    +0.222 C 
ATOM     32  H   UNL     1      28.184 -22.003 -15.445  0.00  0.00    +0.149 HD
BRANCH  30  33
ATOM     33  C   UNL     1      26.298 -21.963 -16.367  0.00  0.00    +0.089 C 
ATOM     34  C   UNL     1      26.230 -21.260 -17.707  0.00  0.00    +0.023 C 
ENDBRANCH  30  33
ENDBRANCH  28  31
ENDBRANCH  27  28
ENDBRANCH  26  27
ENDBRANCH  25  26
ENDBRANCH  23  24
ENDBRANCH   1  23
TORSDOF 15
ENDMDL
