MODEL 1
REMARK VINA RESULT:      -7.9      0.000      0.000
REMARK  Name = 30819
REMARK  9 active torsions:
REMARK  status: ('A' for Active; 'I' for Inactive)
REMARK    1  A    between atoms: C_1  and  C_14
REMARK    2  A    between atoms: C_4  and  O_7
REMARK    3  A    between atoms: O_7  and  P_8
REMARK    4  A    between atoms: P_8  and  O_10
REMARK    5  A    between atoms: P_8  and  O_12
REMARK    6  A    between atoms: C_14  and  CA_15
REMARK    7  A    between atoms: CA_15  and  N_16
REMARK    8  A    between atoms: CA_15  and  C_21
REMARK    9  A    between atoms: C_21  and  O_22
REMARK                            x       y       z     vdW  Elec       q    Type
REMARK                         _______ _______ _______ _____ _____    ______ ____
ROOT
ATOM      1  C   UNL     1      34.851 -19.431 -21.584  0.00  0.00    -0.024 C 
ATOM      2  C   UNL     1      33.474 -19.384 -21.450  0.00  0.00    -0.001 C 
ATOM      3  C   UNL     1      35.627 -20.251 -20.782  0.00  0.00    -0.001 C 
ATOM      4  C   UNL     1      33.621 -21.012 -19.671  0.00  0.00    +0.149 C 
ATOM      5  C   UNL     1      32.854 -20.180 -20.487  0.00  0.00    +0.037 C 
ATOM      6  C   UNL     1      35.008 -21.047 -19.818  0.00  0.00    +0.037 C 
ENDROOT
BRANCH   4   7
ATOM      7  O   UNL     1      33.016 -21.788 -18.731  0.00  0.00    -0.403 OA
BRANCH   7   8
ATOM      8  P   UNL     1      33.703 -23.043 -17.973  0.00  0.00    +0.528 P 
ATOM      9  O   UNL     1      35.019 -22.749 -17.313  0.00  0.00    -0.216 OA
BRANCH   8  10
ATOM     10  O   UNL     1      32.538 -23.603 -17.000  0.00  0.00    -0.293 OA
ATOM     11  H   UNL     1      32.247 -22.895 -16.404  0.00  0.00    +0.223 HD
ENDBRANCH   8  10
BRANCH   8  12
ATOM     12  O   UNL     1      33.774 -24.166 -19.136  0.00  0.00    -0.293 OA
ATOM     13  H   UNL     1      34.504 -23.961 -19.741  0.00  0.00    +0.223 HD
ENDBRANCH   8  12
ENDBRANCH   7   8
ENDBRANCH   4   7
BRANCH   1  14
ATOM     14  C   UNL     1      35.522 -18.568 -22.628  0.00  0.00    +0.015 C 
BRANCH  14  15
ATOM     15  CA  UNL     1      34.616 -18.275 -23.833  0.00  0.00    +0.040 C 
BRANCH  15  16
ATOM     16  N   UNL     1      34.733 -19.351 -24.814  0.00  0.00    +0.389 N 
ATOM     17  H1  UNL     1      34.934 -20.228 -24.333  0.00  0.00    -0.088 HD
ATOM     18  H2  UNL     1      35.491 -19.138 -25.463  0.00  0.00    -0.088 HD
ATOM     19  H3  UNL     1      33.859 -19.438 -25.330  0.00  0.00    -0.088 HD
ENDBRANCH  15  16
BRANCH  15  21
ATOM     20  OXT UNL     1      34.810 -16.760 -25.731  0.00  0.00    -0.253 OA
ATOM     21  C   UNL     1      35.011 -16.993 -24.546  0.00  0.00    +0.293 C 
BRANCH  21  22
ATOM     22  O   UNL     1      35.592 -16.094 -23.709  0.00  0.00    -0.482 OA
ATOM     23  H   UNL     1      35.854 -15.254 -24.031  0.00  0.00    +0.295 HD
ENDBRANCH  21  22
ENDBRANCH  15  21
ENDBRANCH  14  15
ENDBRANCH   1  14
TORSDOF 9
ENDMDL
MODEL 2
REMARK VINA RESULT:      -7.8      1.936      2.731
REMARK  Name = 30819
REMARK  9 active torsions:
REMARK  status: ('A' for Active; 'I' for Inactive)
REMARK    1  A    between atoms: C_1  and  C_14
REMARK    2  A    between atoms: C_4  and  O_7
REMARK    3  A    between atoms: O_7  and  P_8
REMARK    4  A    between atoms: P_8  and  O_10
REMARK    5  A    between atoms: P_8  and  O_12
REMARK    6  A    between atoms: C_14  and  CA_15
REMARK    7  A    between atoms: CA_15  and  N_16
REMARK    8  A    between atoms: CA_15  and  C_21
REMARK    9  A    between atoms: C_21  and  O_22
REMARK                            x       y       z     vdW  Elec       q    Type
REMARK                         _______ _______ _______ _____ _____    ______ ____
ROOT
ATOM      1  C   UNL     1      34.490 -20.346 -20.560  0.00  0.00    -0.024 C 
ATOM      2  C   UNL     1      35.796 -20.643 -20.211  0.00  0.00    -0.001 C 
ATOM      3  C   UNL     1      33.418 -20.931 -19.907  0.00  0.00    -0.001 C 
ATOM      4  C   UNL     1      34.969 -22.147 -18.511  0.00  0.00    +0.149 C 
ATOM      5  C   UNL     1      36.038 -21.550 -19.179  0.00  0.00    +0.037 C 
ATOM      6  C   UNL     1      33.658 -21.837 -18.875  0.00  0.00    +0.037 C 
ENDROOT
BRANCH   4   7
ATOM      7  O   UNL     1      35.205 -23.032 -17.504  0.00  0.00    -0.403 OA
BRANCH   7   8
ATOM      8  P   UNL     1      36.033 -22.708 -16.151  0.00  0.00    +0.528 P 
ATOM      9  O   UNL     1      37.005 -21.569 -16.252  0.00  0.00    -0.216 OA
BRANCH   8  10
ATOM     10  O   UNL     1      34.889 -22.557 -15.016  0.00  0.00    -0.293 OA
ATOM     11  H   UNL     1      35.305 -22.356 -14.163  0.00  0.00    +0.223 HD
ENDBRANCH   8  10
BRANCH   8  12
ATOM     12  O   UNL     1      36.708 -24.135 -15.795  0.00  0.00    -0.293 OA
ATOM     13  H   UNL     1      36.977 -24.578 -16.614  0.00  0.00    +0.223 HD
ENDBRANCH   8  12
ENDBRANCH   7   8
ENDBRANCH   4   7
BRANCH   1  14
ATOM     14  C   UNL     1      34.228 -19.363 -21.678  0.00  0.00    +0.015 C 
BRANCH  14  15
ATOM     15  CA  UNL     1      35.352 -18.328 -21.838  0.00  0.00    +0.040 C 
BRANCH  15  16
ATOM     16  N   UNL     1      35.162 -17.240 -20.881  0.00  0.00    +0.389 N 
ATOM     17  H1  UNL     1      34.498 -16.565 -21.261  0.00  0.00    -0.088 HD
ATOM     18  H2  UNL     1      36.055 -16.778 -20.710  0.00  0.00    -0.088 HD
ATOM     19  H3  UNL     1      34.801 -17.617 -20.006  0.00  0.00    -0.088 HD
ENDBRANCH  15  16
BRANCH  15  21
ATOM     20  OXT UNL     1      35.062 -18.278 -24.256  0.00  0.00    -0.253 OA
ATOM     21  C   UNL     1      35.354 -17.696 -23.219  0.00  0.00    +0.293 C 
BRANCH  21  22
ATOM     22  O   UNL     1      35.687 -16.379 -23.184  0.00  0.00    -0.482 OA
ATOM     23  H   UNL     1      35.101 -15.738 -23.536  0.00  0.00    +0.295 HD
ENDBRANCH  21  22
ENDBRANCH  15  21
ENDBRANCH  14  15
ENDBRANCH   1  14
TORSDOF 9
ENDMDL
MODEL 3
REMARK VINA RESULT:      -7.8      7.120      8.666
REMARK  Name = 30819
REMARK  9 active torsions:
REMARK  status: ('A' for Active; 'I' for Inactive)
REMARK    1  A    between atoms: C_1  and  C_14
REMARK    2  A    between atoms: C_4  and  O_7
REMARK    3  A    between atoms: O_7  and  P_8
REMARK    4  A    between atoms: P_8  and  O_10
REMARK    5  A    between atoms: P_8  and  O_12
REMARK    6  A    between atoms: C_14  and  CA_15
REMARK    7  A    between atoms: CA_15  and  N_16
REMARK    8  A    between atoms: CA_15  and  C_21
REMARK    9  A    between atoms: C_21  and  O_22
REMARK                            x       y       z     vdW  Elec       q    Type
REMARK                         _______ _______ _______ _____ _____    ______ ____
ROOT
ATOM      1  C   UNL     1      33.698 -23.319 -15.523  0.00  0.00    -0.024 C 
ATOM      2  C   UNL     1      32.630 -23.177 -14.654  0.00  0.00    -0.001 C 
ATOM      3  C   UNL     1      33.537 -23.193 -16.892  0.00  0.00    -0.001 C 
ATOM      4  C   UNL     1      31.183 -22.771 -16.546  0.00  0.00    +0.149 C 
ATOM      5  C   UNL     1      31.363 -22.902 -15.169  0.00  0.00    +0.037 C 
ATOM      6  C   UNL     1      32.271 -22.917 -17.408  0.00  0.00    +0.037 C 
ENDROOT
BRANCH   4   7
ATOM      7  O   UNL     1      29.947 -22.502 -17.048  0.00  0.00    -0.403 OA
BRANCH   7   8
ATOM      8  P   UNL     1      28.570 -23.200 -16.560  0.00  0.00    +0.528 P 
ATOM      9  O   UNL     1      28.725 -24.557 -15.938  0.00  0.00    -0.216 OA
BRANCH   8  10
ATOM     10  O   UNL     1      27.867 -22.077 -15.631  0.00  0.00    -0.293 OA
ATOM     11  H   UNL     1      28.165 -22.184 -14.713  0.00  0.00    +0.223 HD
ENDBRANCH   8  10
BRANCH   8  12
ATOM     12  O   UNL     1      27.665 -23.177 -17.901  0.00  0.00    -0.293 OA
ATOM     13  H   UNL     1      28.214 -23.405 -18.667  0.00  0.00    +0.223 HD
ENDBRANCH   8  12
ENDBRANCH   7   8
ENDBRANCH   4   7
BRANCH   1  14
ATOM     14  C   UNL     1      35.071 -23.618 -14.964  0.00  0.00    +0.015 C 
BRANCH  14  15
ATOM     15  CA  UNL     1      35.233 -25.083 -14.530  0.00  0.00    +0.040 C 
BRANCH  15  16
ATOM     16  N   UNL     1      35.606 -25.142 -13.119  0.00  0.00    +0.389 N 
ATOM     17  H1  UNL     1      35.416 -24.241 -12.679  0.00  0.00    -0.088 HD
ATOM     18  H2  UNL     1      36.600 -25.357 -13.039  0.00  0.00    -0.088 HD
ATOM     19  H3  UNL     1      35.063 -25.869 -12.654  0.00  0.00    -0.088 HD
ENDBRANCH  15  16
BRANCH  15  21
ATOM     20  OXT UNL     1      36.263 -26.929 -15.739  0.00  0.00    -0.253 OA
ATOM     21  C   UNL     1      36.335 -25.788 -15.301  0.00  0.00    +0.293 C 
BRANCH  21  22
ATOM     22  O   UNL     1      37.422 -24.996 -15.489  0.00  0.00    -0.482 OA
ATOM     23  H   UNL     1      37.481 -24.168 -15.053  0.00  0.00    +0.295 HD
ENDBRANCH  21  22
ENDBRANCH  15  21
ENDBRANCH  14  15
ENDBRANCH   1  14
TORSDOF 9
ENDMDL
MODEL 4
REMARK VINA RESULT:      -7.8      0.120      1.606
REMARK  Name = 30819
REMARK  9 active torsions:
REMARK  status: ('A' for Active; 'I' for Inactive)
REMARK    1  A    between atoms: C_1  and  C_14
REMARK    2  A    between atoms: C_4  and  O_7
REMARK    3  A    between atoms: O_7  and  P_8
REMARK    4  A    between atoms: P_8  and  O_10
REMARK    5  A    between atoms: P_8  and  O_12
REMARK    6  A    between atoms: C_14  and  CA_15
REMARK    7  A    between atoms: CA_15  and  N_16
REMARK    8  A    between atoms: CA_15  and  C_21
REMARK    9  A    between atoms: C_21  and  O_22
REMARK                            x       y       z     vdW  Elec       q    Type
REMARK                         _______ _______ _______ _____ _____    ______ ____
ROOT
ATOM      1  C   UNL     1      34.789 -19.337 -21.581  0.00  0.00    -0.024 C 
ATOM      2  C   UNL     1      35.564 -20.203 -20.828  0.00  0.00    -0.001 C 
ATOM      3  C   UNL     1      33.417 -19.261 -21.409  0.00  0.00    -0.001 C 
ATOM      4  C   UNL     1      33.568 -20.951 -19.689  0.00  0.00    +0.149 C 
ATOM      5  C   UNL     1      34.949 -21.017 -19.876  0.00  0.00    +0.037 C 
ATOM      6  C   UNL     1      32.802 -20.073 -20.457  0.00  0.00    +0.037 C 
ENDROOT
BRANCH   4   7
ATOM      7  O   UNL     1      32.969 -21.745 -18.760  0.00  0.00    -0.403 OA
BRANCH   7   8
ATOM      8  P   UNL     1      33.584 -23.123 -18.174  0.00  0.00    +0.528 P 
ATOM      9  O   UNL     1      33.793 -24.212 -19.185  0.00  0.00    -0.216 OA
BRANCH   8  10
ATOM     10  O   UNL     1      34.904 -22.653 -17.365  0.00  0.00    -0.293 OA
ATOM     11  H   UNL     1      35.686 -22.767 -17.928  0.00  0.00    +0.223 HD
ENDBRANCH   8  10
BRANCH   8  12
ATOM     12  O   UNL     1      32.548 -23.499 -16.989  0.00  0.00    -0.293 OA
ATOM     13  H   UNL     1      32.915 -24.220 -16.455  0.00  0.00    +0.223 HD
ENDBRANCH   8  12
ENDBRANCH   7   8
ENDBRANCH   4   7
BRANCH   1  14
ATOM     14  C   UNL     1      35.456 -18.456 -22.613  0.00  0.00    +0.015 C 
BRANCH  14  15
ATOM     15  CA  UNL     1      34.582 -18.227 -23.856  0.00  0.00    +0.040 C 
BRANCH  15  16
ATOM     16  N   UNL     1      34.715 -19.358 -24.770  0.00  0.00    +0.389 N 
ATOM     17  H1  UNL     1      33.947 -20.011 -24.617  0.00  0.00    -0.088 HD
ATOM     18  H2  UNL     1      35.603 -19.832 -24.598  0.00  0.00    -0.088 HD
ATOM     19  H3  UNL     1      34.691 -19.023 -25.732  0.00  0.00    -0.088 HD
ENDBRANCH  15  16
BRANCH  15  21
ATOM     20  OXT UNL     1      34.753 -16.784 -25.810  0.00  0.00    -0.253 OA
ATOM     21  C   UNL     1      35.004 -16.991 -24.630  0.00  0.00    +0.293 C 
BRANCH  21  22
ATOM     22  O   UNL     1      35.676 -16.100 -23.855  0.00  0.00    -0.482 OA
ATOM     23  H   UNL     1      35.277 -15.284 -23.625  0.00  0.00    +0.295 HD
ENDBRANCH  21  22
ENDBRANCH  15  21
ENDBRANCH  14  15
ENDBRANCH   1  14
TORSDOF 9
ENDMDL
MODEL 5
REMARK VINA RESULT:      -7.7      7.210      8.531
REMARK  Name = 30819
REMARK  9 active torsions:
REMARK  status: ('A' for Active; 'I' for Inactive)
REMARK    1  A    between atoms: C_1  and  C_14
REMARK    2  A    between atoms: C_4  and  O_7
REMARK    3  A    between atoms: O_7  and  P_8
REMARK    4  A    between atoms: P_8  and  O_10
REMARK    5  A    between atoms: P_8  and  O_12
REMARK    6  A    between atoms: C_14  and  CA_15
REMARK    7  A    between atoms: CA_15  and  N_16
REMARK    8  A    between atoms: CA_15  and  C_21
REMARK    9  A    between atoms: C_21  and  O_22
REMARK                            x       y       z     vdW  Elec       q    Type
REMARK                         _______ _______ _______ _____ _____    ______ ____
ROOT
ATOM      1  C   UNL     1      33.429 -23.447 -15.060  0.00  0.00    -0.024 C 
ATOM      2  C   UNL     1      33.385 -23.407 -16.443  0.00  0.00    -0.001 C 
ATOM      3  C   UNL     1      32.307 -23.177 -14.294  0.00  0.00    -0.001 C 
ATOM      4  C   UNL     1      31.046 -22.815 -16.322  0.00  0.00    +0.149 C 
ATOM      5  C   UNL     1      32.185 -23.088 -17.079  0.00  0.00    +0.037 C 
ATOM      6  C   UNL     1      31.107 -22.859 -14.929  0.00  0.00    +0.037 C 
ENDROOT
BRANCH   4   7
ATOM      7  O   UNL     1      29.875 -22.503 -16.943  0.00  0.00    -0.403 OA
BRANCH   7   8
ATOM      8  P   UNL     1      28.425 -23.111 -16.558  0.00  0.00    +0.528 P 
ATOM      9  O   UNL     1      28.451 -24.439 -15.861  0.00  0.00    -0.216 OA
BRANCH   8  10
ATOM     10  O   UNL     1      27.695 -21.911 -15.756  0.00  0.00    -0.293 OA
ATOM     11  H   UNL     1      26.799 -22.188 -15.504  0.00  0.00    +0.223 HD
ENDBRANCH   8  10
BRANCH   8  12
ATOM     12  O   UNL     1      27.652 -23.117 -17.981  0.00  0.00    -0.293 OA
ATOM     13  H   UNL     1      26.793 -23.555 -17.881  0.00  0.00    +0.223 HD
ENDBRANCH   8  12
ENDBRANCH   7   8
ENDBRANCH   4   7
BRANCH   1  14
ATOM     14  C   UNL     1      34.730 -23.792 -14.372  0.00  0.00    +0.015 C 
BRANCH  14  15
ATOM     15  CA  UNL     1      35.697 -24.569 -15.277  0.00  0.00    +0.040 C 
BRANCH  15  16
ATOM     16  N   UNL     1      35.579 -26.001 -15.014  0.00  0.00    +0.389 N 
ATOM     17  H1  UNL     1      34.651 -26.203 -14.642  0.00  0.00    -0.088 HD
ATOM     18  H2  UNL     1      36.286 -26.281 -14.333  0.00  0.00    -0.088 HD
ATOM     19  H3  UNL     1      35.719 -26.519 -15.881  0.00  0.00    -0.088 HD
ENDBRANCH  15  16
BRANCH  15  21
ATOM     20  OXT UNL     1      37.521 -23.138 -14.530  0.00  0.00    -0.253 OA
ATOM     21  C   UNL     1      37.147 -24.197 -15.017  0.00  0.00    +0.293 C 
BRANCH  21  22
ATOM     22  O   UNL     1      38.004 -25.195 -15.354  0.00  0.00    -0.482 OA
ATOM     23  H   UNL     1      38.072 -25.474 -16.246  0.00  0.00    +0.295 HD
ENDBRANCH  21  22
ENDBRANCH  15  21
ENDBRANCH  14  15
ENDBRANCH   1  14
TORSDOF 9
ENDMDL
MODEL 6
REMARK VINA RESULT:      -7.7      1.453      2.125
REMARK  Name = 30819
REMARK  9 active torsions:
REMARK  status: ('A' for Active; 'I' for Inactive)
REMARK    1  A    between atoms: C_1  and  C_14
REMARK    2  A    between atoms: C_4  and  O_7
REMARK    3  A    between atoms: O_7  and  P_8
REMARK    4  A    between atoms: P_8  and  O_10
REMARK    5  A    between atoms: P_8  and  O_12
REMARK    6  A    between atoms: C_14  and  CA_15
REMARK    7  A    between atoms: CA_15  and  N_16
REMARK    8  A    between atoms: CA_15  and  C_21
REMARK    9  A    between atoms: C_21  and  O_22
REMARK                            x       y       z     vdW  Elec       q    Type
REMARK                         _______ _______ _______ _____ _____    ______ ____
ROOT
ATOM      1  C   UNL     1      34.929 -19.179 -21.292  0.00  0.00    -0.024 C 
ATOM      2  C   UNL     1      35.642 -20.156 -20.620  0.00  0.00    -0.001 C 
ATOM      3  C   UNL     1      33.549 -19.104 -21.207  0.00  0.00    -0.001 C 
ATOM      4  C   UNL     1      33.566 -21.025 -19.742  0.00  0.00    +0.149 C 
ATOM      5  C   UNL     1      34.956 -21.086 -19.839  0.00  0.00    +0.037 C 
ATOM      6  C   UNL     1      32.862 -20.034 -20.426  0.00  0.00    +0.037 C 
ENDROOT
BRANCH   4   7
ATOM      7  O   UNL     1      32.896 -21.933 -18.980  0.00  0.00    -0.403 OA
BRANCH   7   8
ATOM      8  P   UNL     1      33.590 -23.049 -18.034  0.00  0.00    +0.528 P 
ATOM      9  O   UNL     1      34.887 -22.637 -17.402  0.00  0.00    -0.216 OA
BRANCH   8  10
ATOM     10  O   UNL     1      32.415 -23.482 -17.009  0.00  0.00    -0.293 OA
ATOM     11  H   UNL     1      32.698 -23.301 -16.099  0.00  0.00    +0.223 HD
ENDBRANCH   8  10
BRANCH   8  12
ATOM     12  O   UNL     1      33.701 -24.330 -19.017  0.00  0.00    -0.293 OA
ATOM     13  H   UNL     1      32.890 -24.407 -19.542  0.00  0.00    +0.223 HD
ENDBRANCH   8  12
ENDBRANCH   7   8
ENDBRANCH   4   7
BRANCH   1  14
ATOM     14  C   UNL     1      35.673 -18.171 -22.139  0.00  0.00    +0.015 C 
BRANCH  14  15
ATOM     15  CA  UNL     1      34.769 -17.042 -22.657  0.00  0.00    +0.040 C 
BRANCH  15  16
ATOM     16  N   UNL     1      35.216 -16.619 -23.981  0.00  0.00    +0.389 N 
ATOM     17  H1  UNL     1      35.245 -17.426 -24.604  0.00  0.00    -0.088 HD
ATOM     18  H2  UNL     1      36.148 -16.210 -23.911  0.00  0.00    -0.088 HD
ATOM     19  H3  UNL     1      34.568 -15.925 -24.353  0.00  0.00    -0.088 HD
ENDBRANCH  15  16
BRANCH  15  21
ATOM     20  OXT UNL     1      34.941 -15.835 -20.548  0.00  0.00    -0.253 OA
ATOM     21  C   UNL     1      34.823 -15.813 -21.766  0.00  0.00    +0.293 C 
BRANCH  21  22
ATOM     22  O   UNL     1      34.760 -14.657 -22.477  0.00  0.00    -0.482 OA
ATOM     23  H   UNL     1      35.203 -14.588 -23.301  0.00  0.00    +0.295 HD
ENDBRANCH  21  22
ENDBRANCH  15  21
ENDBRANCH  14  15
ENDBRANCH   1  14
TORSDOF 9
ENDMDL
MODEL 7
REMARK VINA RESULT:      -7.6      3.410      7.681
REMARK  Name = 30819
REMARK  9 active torsions:
REMARK  status: ('A' for Active; 'I' for Inactive)
REMARK    1  A    between atoms: C_1  and  C_14
REMARK    2  A    between atoms: C_4  and  O_7
REMARK    3  A    between atoms: O_7  and  P_8
REMARK    4  A    between atoms: P_8  and  O_10
REMARK    5  A    between atoms: P_8  and  O_12
REMARK    6  A    between atoms: C_14  and  CA_15
REMARK    7  A    between atoms: CA_15  and  N_16
REMARK    8  A    between atoms: CA_15  and  C_21
REMARK    9  A    between atoms: C_21  and  O_22
REMARK                            x       y       z     vdW  Elec       q    Type
REMARK                         _______ _______ _______ _____ _____    ______ ____
ROOT
ATOM      1  C   UNL     1      34.914 -18.394 -22.474  0.00  0.00    -0.024 C 
ATOM      2  C   UNL     1      35.047 -17.019 -22.378  0.00  0.00    -0.001 C 
ATOM      3  C   UNL     1      34.637 -19.009 -23.683  0.00  0.00    -0.001 C 
ATOM      4  C   UNL     1      34.623 -16.842 -24.749  0.00  0.00    +0.149 C 
ATOM      5  C   UNL     1      34.901 -16.237 -23.523  0.00  0.00    +0.037 C 
ATOM      6  C   UNL     1      34.491 -18.229 -24.829  0.00  0.00    +0.037 C 
ENDROOT
BRANCH   4   7
ATOM      7  O   UNL     1      34.479 -16.079 -25.867  0.00  0.00    -0.403 OA
BRANCH   7   8
ATOM      8  P   UNL     1      33.254 -15.058 -26.149  0.00  0.00    +0.528 P 
ATOM      9  O   UNL     1      32.767 -14.296 -24.951  0.00  0.00    -0.216 OA
BRANCH   8  10
ATOM     10  O   UNL     1      33.768 -14.159 -27.392  0.00  0.00    -0.293 OA
ATOM     11  H   UNL     1      33.120 -14.204 -28.113  0.00  0.00    +0.223 HD
ENDBRANCH   8  10
BRANCH   8  12
ATOM     12  O   UNL     1      32.142 -16.016 -26.831  0.00  0.00    -0.293 OA
ATOM     13  H   UNL     1      31.486 -15.472 -27.293  0.00  0.00    +0.223 HD
ENDBRANCH   8  12
ENDBRANCH   7   8
ENDBRANCH   4   7
BRANCH   1  14
ATOM     14  C   UNL     1      35.073 -19.241 -21.232  0.00  0.00    +0.015 C 
BRANCH  14  15
ATOM     15  CA  UNL     1      33.879 -20.178 -20.991  0.00  0.00    +0.040 C 
BRANCH  15  16
ATOM     16  N   UNL     1      32.708 -19.397 -20.602  0.00  0.00    +0.389 N 
ATOM     17  H1  UNL     1      31.916 -20.022 -20.454  0.00  0.00    -0.088 HD
ATOM     18  H2  UNL     1      32.482 -18.732 -21.342  0.00  0.00    -0.088 HD
ATOM     19  H3  UNL     1      32.907 -18.890 -19.740  0.00  0.00    -0.088 HD
ENDBRANCH  15  16
BRANCH  15  21
ATOM     20  OXT UNL     1      35.211 -21.286 -19.280  0.00  0.00    -0.253 OA
ATOM     21  C   UNL     1      34.142 -21.158 -19.861  0.00  0.00    +0.293 C 
BRANCH  21  22
ATOM     22  O   UNL     1      33.035 -21.873 -19.530  0.00  0.00    -0.482 OA
ATOM     23  H   UNL     1      32.661 -21.788 -18.675  0.00  0.00    +0.295 HD
ENDBRANCH  21  22
ENDBRANCH  15  21
ENDBRANCH  14  15
ENDBRANCH   1  14
TORSDOF 9
ENDMDL
MODEL 8
REMARK VINA RESULT:      -7.5      7.903      9.079
REMARK  Name = 30819
REMARK  9 active torsions:
REMARK  status: ('A' for Active; 'I' for Inactive)
REMARK    1  A    between atoms: C_1  and  C_14
REMARK    2  A    between atoms: C_4  and  O_7
REMARK    3  A    between atoms: O_7  and  P_8
REMARK    4  A    between atoms: P_8  and  O_10
REMARK    5  A    between atoms: P_8  and  O_12
REMARK    6  A    between atoms: C_14  and  CA_15
REMARK    7  A    between atoms: CA_15  and  N_16
REMARK    8  A    between atoms: CA_15  and  C_21
REMARK    9  A    between atoms: C_21  and  O_22
REMARK                            x       y       z     vdW  Elec       q    Type
REMARK                         _______ _______ _______ _____ _____    ______ ____
ROOT
ATOM      1  C   UNL     1      32.740 -23.397 -14.799  0.00  0.00    -0.024 C 
ATOM      2  C   UNL     1      33.578 -23.266 -15.894  0.00  0.00    -0.001 C 
ATOM      3  C   UNL     1      33.173 -23.990 -13.625  0.00  0.00    -0.001 C 
ATOM      4  C   UNL     1      35.339 -24.341 -14.637  0.00  0.00    +0.149 C 
ATOM      5  C   UNL     1      34.887 -23.741 -15.812  0.00  0.00    +0.037 C 
ATOM      6  C   UNL     1      34.482 -24.466 -13.543  0.00  0.00    +0.037 C 
ENDROOT
BRANCH   4   7
ATOM      7  O   UNL     1      36.616 -24.805 -14.558  0.00  0.00    -0.403 OA
BRANCH   7   8
ATOM      8  P   UNL     1      37.086 -26.309 -14.930  0.00  0.00    +0.528 P 
ATOM      9  O   UNL     1      36.260 -26.999 -15.976  0.00  0.00    -0.216 OA
BRANCH   8  10
ATOM     10  O   UNL     1      38.661 -26.158 -15.266  0.00  0.00    -0.293 OA
ATOM     11  H   UNL     1      39.174 -26.212 -14.445  0.00  0.00    +0.223 HD
ENDBRANCH   8  10
BRANCH   8  12
ATOM     12  O   UNL     1      37.094 -27.046 -13.489  0.00  0.00    -0.293 OA
ATOM     13  H   UNL     1      36.365 -26.706 -12.948  0.00  0.00    +0.223 HD
ENDBRANCH   8  12
ENDBRANCH   7   8
ENDBRANCH   4   7
BRANCH   1  14
ATOM     14  C   UNL     1      31.322 -22.881 -14.888  0.00  0.00    +0.015 C 
BRANCH  14  15
ATOM     15  CA  UNL     1      30.455 -23.683 -15.870  0.00  0.00    +0.040 C 
BRANCH  15  16
ATOM     16  N   UNL     1      29.809 -22.775 -16.815  0.00  0.00    +0.389 N 
ATOM     17  H1  UNL     1      28.879 -23.127 -17.042  0.00  0.00    -0.088 HD
ATOM     18  H2  UNL     1      30.368 -22.716 -17.666  0.00  0.00    -0.088 HD
ATOM     19  H3  UNL     1      29.730 -21.849 -16.396  0.00  0.00    -0.088 HD
ENDBRANCH  15  16
BRANCH  15  21
ATOM     20  OXT UNL     1      28.147 -24.240 -15.330  0.00  0.00    -0.253 OA
ATOM     21  C   UNL     1      29.343 -24.440 -15.165  0.00  0.00    +0.293 C 
BRANCH  21  22
ATOM     22  O   UNL     1      29.820 -25.406 -14.338  0.00  0.00    -0.482 OA
ATOM     23  H   UNL     1      29.353 -26.214 -14.242  0.00  0.00    +0.295 HD
ENDBRANCH  21  22
ENDBRANCH  15  21
ENDBRANCH  14  15
ENDBRANCH   1  14
TORSDOF 9
ENDMDL
MODEL 9
REMARK VINA RESULT:      -7.5      3.321      6.825
REMARK  Name = 30819
REMARK  9 active torsions:
REMARK  status: ('A' for Active; 'I' for Inactive)
REMARK    1  A    between atoms: C_1  and  C_14
REMARK    2  A    between atoms: C_4  and  O_7
REMARK    3  A    between atoms: O_7  and  P_8
REMARK    4  A    between atoms: P_8  and  O_10
REMARK    5  A    between atoms: P_8  and  O_12
REMARK    6  A    between atoms: C_14  and  CA_15
REMARK    7  A    between atoms: CA_15  and  N_16
REMARK    8  A    between atoms: CA_15  and  C_21
REMARK    9  A    between atoms: C_21  and  O_22
REMARK                            x       y       z     vdW  Elec       q    Type
REMARK                         _______ _______ _______ _____ _____    ______ ____
ROOT
ATOM      1  C   UNL     1      35.451 -20.378 -20.449  0.00  0.00    -0.024 C 
ATOM      2  C   UNL     1      34.144 -19.979 -20.676  0.00  0.00    -0.001 C 
ATOM      3  C   UNL     1      36.523 -19.597 -20.848  0.00  0.00    -0.001 C 
ATOM      4  C   UNL     1      34.972 -17.967 -21.726  0.00  0.00    +0.149 C 
ATOM      5  C   UNL     1      33.903 -18.765 -21.319  0.00  0.00    +0.037 C 
ATOM      6  C   UNL     1      36.283 -18.383 -21.491  0.00  0.00    +0.037 C 
ENDROOT
BRANCH   4   7
ATOM      7  O   UNL     1      34.735 -16.783 -22.354  0.00  0.00    -0.403 OA
BRANCH   7   8
ATOM      8  P   UNL     1      34.140 -15.454 -21.647  0.00  0.00    +0.528 P 
ATOM      9  O   UNL     1      32.643 -15.374 -21.590  0.00  0.00    -0.216 OA
BRANCH   8  10
ATOM     10  O   UNL     1      34.901 -15.392 -20.220  0.00  0.00    -0.293 OA
ATOM     11  H   UNL     1      35.728 -15.897 -20.273  0.00  0.00    +0.223 HD
ENDBRANCH   8  10
BRANCH   8  12
ATOM     12  O   UNL     1      34.844 -14.260 -22.483  0.00  0.00    -0.293 OA
ATOM     13  H   UNL     1      34.509 -13.405 -22.171  0.00  0.00    +0.223 HD
ENDBRANCH   8  12
ENDBRANCH   7   8
ENDBRANCH   4   7
BRANCH   1  14
ATOM     14  C   UNL     1      35.712 -21.693 -19.752  0.00  0.00    +0.015 C 
BRANCH  14  15
ATOM     15  CA  UNL     1      34.890 -21.861 -18.465  0.00  0.00    +0.040 C 
BRANCH  15  16
ATOM     16  N   UNL     1      35.717 -22.467 -17.425  0.00  0.00    +0.389 N 
ATOM     17  H1  UNL     1      35.505 -22.034 -16.526  0.00  0.00    -0.088 HD
ATOM     18  H2  UNL     1      36.703 -22.322 -17.647  0.00  0.00    -0.088 HD
ATOM     19  H3  UNL     1      35.524 -23.466 -17.375  0.00  0.00    -0.088 HD
ENDBRANCH  15  16
BRANCH  15  21
ATOM     20  OXT UNL     1      32.576 -22.581 -18.223  0.00  0.00    -0.253 OA
ATOM     21  C   UNL     1      33.699 -22.783 -18.665  0.00  0.00    +0.293 C 
BRANCH  21  22
ATOM     22  O   UNL     1      34.005 -23.864 -19.429  0.00  0.00    -0.482 OA
ATOM     23  H   UNL     1      33.805 -24.727 -19.124  0.00  0.00    +0.295 HD
ENDBRANCH  21  22
ENDBRANCH  15  21
ENDBRANCH  14  15
ENDBRANCH   1  14
TORSDOF 9
ENDMDL
