MODEL 1
REMARK VINA RESULT:      -5.3      0.000      0.000
REMARK  Name = 5833
REMARK  2 active torsions:
REMARK  status: ('A' for Active; 'I' for Inactive)
REMARK    1  A    between atoms: C_14  and  S_26
REMARK    2  A    between atoms: S_26  and  C_28
REMARK                            x       y       z     vdW  Elec       q    Type
REMARK                         _______ _______ _______ _____ _____    ______ ____
ROOT
ATOM      1  O   UNL     1      33.717 -17.493 -21.716  0.00  0.00    -0.456 OA
ATOM      2  O   UNL     1      34.868 -19.457 -21.443  0.00  0.00    -0.250 OA
ATOM      3  O   UNL     1      32.928  -7.211 -19.941  0.00  0.00    -0.291 OA
ATOM      4  C   UNL     1      33.021 -15.104 -21.594  0.00  0.00    +0.034 C 
ATOM      5  C   UNL     1      33.269 -13.949 -22.589  0.00  0.00    +0.004 C 
ATOM      6  C   UNL     1      32.304 -12.765 -22.400  0.00  0.00    +0.011 C 
ATOM      7  C   UNL     1      34.042 -16.154 -22.124  0.00  0.00    +0.136 C 
ATOM      8  C   UNL     1      32.408 -12.220 -20.924  0.00  0.00    +0.004 C 
ATOM      9  C   UNL     1      33.247 -14.550 -20.179  0.00  0.00    +0.003 C 
ATOM     10  C   UNL     1      33.276 -14.651 -23.945  0.00  0.00    +0.004 C 
ATOM     11  C   UNL     1      31.390 -11.044 -20.665  0.00  0.00    +0.016 C 
ATOM     12  C   UNL     1      32.321 -13.360 -19.873  0.00  0.00    +0.000 C 
ATOM     13  C   UNL     1      33.905 -16.028 -23.669  0.00  0.00    +0.040 C 
ATOM     14  C   UNL     1      32.449 -11.640 -23.465  0.00  0.00    +0.059 C 
ATOM     15  C   UNL     1      31.589 -15.709 -21.669  0.00  0.00    +0.003 C 
ATOM     16  C   UNL     1      35.492 -16.007 -21.674  0.00  0.00    +0.052 C 
ATOM     17  C   UNL     1      31.650  -9.994 -21.752  0.00  0.00    -0.041 C 
ATOM     18  C   UNL     1      31.482 -10.476 -23.175  0.00  0.00    +0.033 C 
ATOM     19  C   UNL     1      31.539 -10.402 -19.254  0.00  0.00    +0.012 C 
ATOM     20  C   UNL     1      29.918 -11.528 -20.737  0.00  0.00    +0.004 C 
ATOM     21  C   UNL     1      36.053 -17.395 -21.900  0.00  0.00    +0.113 C 
ATOM     22  C   UNL     1      34.851 -18.254 -21.651  0.00  0.00    +0.317 C 
ATOM     23  C   UNL     1      32.723  -9.462 -19.136  0.00  0.00    +0.069 C 
ATOM     24  C   UNL     1      32.128  -8.760 -21.520  0.00  0.00    +0.029 C 
ATOM     25  C   UNL     1      32.590  -8.370 -20.167  0.00  0.00    +0.173 C 
ENDROOT
BRANCH  14  26
ATOM     26  S   UNL     1      34.157 -10.973 -23.637  0.00  0.00    -0.078 S 
BRANCH  26  28
ATOM     27  O   UNL     1      33.672 -11.895 -26.073  0.00  0.00    -0.285 OA
ATOM     28  C   UNL     1      34.370 -11.176 -25.370  0.00  0.00    +0.199 C 
ATOM     29  C   UNL     1      35.514 -10.366 -25.910  0.00  0.00    +0.085 C 
ENDBRANCH  26  28
ENDBRANCH  14  26
TORSDOF 2
ENDMDL
MODEL 2
REMARK VINA RESULT:      -4.7     10.216     13.953
REMARK  Name = 5833
REMARK  2 active torsions:
REMARK  status: ('A' for Active; 'I' for Inactive)
REMARK    1  A    between atoms: C_14  and  S_26
REMARK    2  A    between atoms: S_26  and  C_28
REMARK                            x       y       z     vdW  Elec       q    Type
REMARK                         _______ _______ _______ _____ _____    ______ ____
ROOT
ATOM      1  O   UNL     1      30.016 -24.213 -14.237  0.00  0.00    -0.456 OA
ATOM      2  O   UNL     1      27.881 -25.032 -14.414  0.00  0.00    -0.250 OA
ATOM      3  O   UNL     1      40.310 -25.590 -15.515  0.00  0.00    -0.291 OA
ATOM      4  C   UNL     1      32.496 -23.997 -14.305  0.00  0.00    +0.034 C 
ATOM      5  C   UNL     1      33.407 -23.383 -15.391  0.00  0.00    +0.004 C 
ATOM      6  C   UNL     1      34.809 -23.017 -14.873  0.00  0.00    +0.011 C 
ATOM      7  C   UNL     1      31.162 -24.126 -15.099  0.00  0.00    +0.136 C 
ATOM      8  C   UNL     1      35.506 -24.293 -14.263  0.00  0.00    +0.004 C 
ATOM      9  C   UNL     1      33.162 -25.297 -13.827  0.00  0.00    +0.003 C 
ATOM     10  C   UNL     1      32.549 -22.261 -15.973  0.00  0.00    +0.004 C 
ATOM     11  C   UNL     1      36.923 -23.952 -13.663  0.00  0.00    +0.016 C 
ATOM     12  C   UNL     1      34.576 -25.048 -13.274  0.00  0.00    +0.000 C 
ATOM     13  C   UNL     1      31.109 -22.800 -15.912  0.00  0.00    +0.040 C 
ATOM     14  C   UNL     1      35.707 -22.283 -15.910  0.00  0.00    +0.059 C 
ATOM     15  C   UNL     1      32.265 -23.074 -13.074  0.00  0.00    +0.003 C 
ATOM     16  C   UNL     1      31.001 -25.346 -16.000  0.00  0.00    +0.052 C 
ATOM     17  C   UNL     1      37.718 -23.266 -14.780  0.00  0.00    -0.041 C 
ATOM     18  C   UNL     1      37.105 -21.997 -15.328  0.00  0.00    +0.033 C 
ATOM     19  C   UNL     1      37.692 -25.206 -13.151  0.00  0.00    +0.012 C 
ATOM     20  C   UNL     1      36.817 -23.012 -12.433  0.00  0.00    +0.004 C 
ATOM     21  C   UNL     1      29.499 -25.437 -16.171  0.00  0.00    +0.113 C 
ATOM     22  C   UNL     1      29.010 -24.900 -14.860  0.00  0.00    +0.317 C 
ATOM     23  C   UNL     1      38.312 -26.033 -14.262  0.00  0.00    +0.069 C 
ATOM     24  C   UNL     1      38.812 -23.782 -15.364  0.00  0.00    +0.029 C 
ATOM     25  C   UNL     1      39.253 -25.162 -15.057  0.00  0.00    +0.173 C 
ENDROOT
BRANCH  14  26
ATOM     26  S   UNL     1      35.896 -23.171 -17.513  0.00  0.00    -0.078 S 
BRANCH  26  28
ATOM     27  O   UNL     1      36.455 -20.926 -18.805  0.00  0.00    -0.285 OA
ATOM     28  C   UNL     1      35.646 -21.826 -18.617  0.00  0.00    +0.199 C 
ATOM     29  C   UNL     1      34.317 -21.892 -19.316  0.00  0.00    +0.085 C 
ENDBRANCH  26  28
ENDBRANCH  14  26
TORSDOF 2
ENDMDL
