MODEL 1
REMARK VINA RESULT:      -9.6      0.000      0.000
REMARK  Name = 448974
REMARK  7 active torsions:
REMARK  status: ('A' for Active; 'I' for Inactive)
REMARK    1  A    between atoms: N_2  and  C_14
REMARK    2  A    between atoms: C_6  and  C_18
REMARK    3  A    between atoms: C_14  and  C_15
REMARK    4  A    between atoms: C_15  and  C_16
REMARK    5  A    between atoms: C_18  and  C_19
REMARK    6  A    between atoms: C_20  and  O_25
REMARK    7  A    between atoms: C_22  and  O_27
REMARK                            x       y       z     vdW  Elec       q    Type
REMARK                         _______ _______ _______ _____ _____    ______ ____
ROOT
ATOM      1  F   UNL     1      33.476  -6.797 -22.884  0.00  0.00    -0.098 F 
ATOM      2  N   UNL     1      32.283 -11.321 -22.623  0.00  0.00    -0.238 N 
ATOM      3  N   UNL     1      33.866 -12.014 -24.010  0.00  0.00    -0.383 NA
ATOM      4  N   UNL     1      32.729  -8.935 -22.608  0.00  0.00    -0.299 NA
ATOM      5  N   UNL     1      34.621  -8.392 -24.051  0.00  0.00    -0.300 NA
ATOM      6  C   UNL     1      32.856 -12.384 -23.252  0.00  0.00    +0.170 C 
ATOM      7  C   UNL     1      32.956 -10.201 -22.991  0.00  0.00    +0.237 C 
ATOM      8  C   UNL     1      33.941 -10.651 -23.856  0.00  0.00    +0.222 C 
ATOM      9  C   UNL     1      34.792  -9.692 -24.394  0.00  0.00    +0.225 C 
ATOM     10  C   UNL     1      33.614  -8.100 -23.192  0.00  0.00    +0.300 C 
ATOM     11  N   UNL     1      35.821 -10.060 -25.279  0.00  0.00    -0.330 N 
ATOM     12  H   UNL     1      36.417  -9.372 -25.654  0.00  0.00    +0.145 HD
ATOM     13  H   UNL     1      35.943 -11.006 -25.525  0.00  0.00    +0.145 HD
ENDROOT
BRANCH   2  14
ATOM     14  C   UNL     1      31.145 -11.369 -21.710  0.00  0.00    +0.100 C 
BRANCH  14  15
ATOM     15  C   UNL     1      31.555 -11.806 -20.305  0.00  0.00    +0.022 C 
BRANCH  15  16
ATOM     16  C   UNL     1      31.125 -10.779 -19.260  0.00  0.00    +0.002 C 
ATOM     17  C   UNL     1      31.861  -9.461 -19.436  0.00  0.00    +0.000 C 
ENDBRANCH  15  16
ENDBRANCH  14  15
ENDBRANCH   2  14
BRANCH   6  18
ATOM     18  C   UNL     1      32.370 -13.768 -23.073  0.00  0.00    +0.105 C 
BRANCH  18  19
ATOM     19  C   UNL     1      33.301 -14.836 -23.630  0.00  0.00    +0.023 C 
ATOM     20  C   UNL     1      33.311 -15.095 -24.986  0.00  0.00    +0.135 C 
ATOM     21  C   UNL     1      34.114 -15.519 -22.747  0.00  0.00    +0.036 C 
ATOM     22  C   UNL     1      34.973 -16.502 -23.241  0.00  0.00    +0.139 C 
ATOM     23  C   UNL     1      34.169 -16.077 -25.479  0.00  0.00    +0.040 C 
ATOM     24  C   UNL     1      35.001 -16.781 -24.608  0.00  0.00    +0.040 C 
BRANCH  20  25
ATOM     25  O   UNL     1      32.505 -14.419 -25.852  0.00  0.00    -0.472 OA
ATOM     26  C   UNL     1      33.127 -13.841 -26.998  0.00  0.00    +0.252 C 
ENDBRANCH  20  25
BRANCH  22  27
ATOM     27  O   UNL     1      35.784 -17.188 -22.390  0.00  0.00    -0.471 OA
ATOM     28  C   UNL     1      35.215 -17.614 -21.153  0.00  0.00    +0.252 C 
ENDBRANCH  22  27
ENDBRANCH  18  19
ENDBRANCH   6  18
TORSDOF 7
ENDMDL
MODEL 2
REMARK VINA RESULT:      -9.2     11.054     14.268
REMARK  Name = 448974
REMARK  7 active torsions:
REMARK  status: ('A' for Active; 'I' for Inactive)
REMARK    1  A    between atoms: N_2  and  C_14
REMARK    2  A    between atoms: C_6  and  C_18
REMARK    3  A    between atoms: C_14  and  C_15
REMARK    4  A    between atoms: C_15  and  C_16
REMARK    5  A    between atoms: C_18  and  C_19
REMARK    6  A    between atoms: C_20  and  O_25
REMARK    7  A    between atoms: C_22  and  O_27
REMARK                            x       y       z     vdW  Elec       q    Type
REMARK                         _______ _______ _______ _____ _____    ______ ____
ROOT
ATOM      1  F   UNL     1      32.703 -21.082 -20.475  0.00  0.00    -0.098 F 
ATOM      2  N   UNL     1      33.248 -23.476 -16.484  0.00  0.00    -0.238 N 
ATOM      3  N   UNL     1      35.445 -23.210 -16.403  0.00  0.00    -0.383 NA
ATOM      4  N   UNL     1      32.737 -22.277 -18.531  0.00  0.00    -0.299 NA
ATOM      5  N   UNL     1      34.765 -21.362 -19.535  0.00  0.00    -0.300 NA
ATOM      6  C   UNL     1      34.398 -23.733 -15.802  0.00  0.00    +0.170 C 
ATOM      7  C   UNL     1      33.563 -22.747 -17.584  0.00  0.00    +0.237 C 
ATOM      8  C   UNL     1      34.939 -22.590 -17.519  0.00  0.00    +0.222 C 
ATOM      9  C   UNL     1      35.539 -21.867 -18.544  0.00  0.00    +0.225 C 
ATOM     10  C   UNL     1      33.432 -21.595 -19.468  0.00  0.00    +0.300 C 
ATOM     11  N   UNL     1      36.929 -21.657 -18.556  0.00  0.00    -0.330 N 
ATOM     12  H   UNL     1      37.344 -21.144 -19.287  0.00  0.00    +0.145 HD
ATOM     13  H   UNL     1      37.489 -22.024 -17.833  0.00  0.00    +0.145 HD
ENDROOT
BRANCH   2  14
ATOM     14  C   UNL     1      31.905 -23.904 -16.104  0.00  0.00    +0.100 C 
BRANCH  14  15
ATOM     15  C   UNL     1      31.203 -22.873 -15.220  0.00  0.00    +0.022 C 
BRANCH  15  16
ATOM     16  C   UNL     1      30.762 -23.492 -13.895  0.00  0.00    +0.002 C 
ATOM     17  C   UNL     1      30.836 -25.010 -13.936  0.00  0.00    +0.000 C 
ENDBRANCH  15  16
ENDBRANCH  14  15
ENDBRANCH   2  14
BRANCH   6  18
ATOM     18  C   UNL     1      34.419 -24.508 -14.545  0.00  0.00    +0.105 C 
BRANCH  18  19
ATOM     19  C   UNL     1      35.814 -24.801 -14.011  0.00  0.00    +0.023 C 
ATOM     20  C   UNL     1      36.105 -24.549 -12.685  0.00  0.00    +0.135 C 
ATOM     21  C   UNL     1      36.753 -25.315 -14.884  0.00  0.00    +0.036 C 
ATOM     22  C   UNL     1      38.037 -25.588 -14.410  0.00  0.00    +0.139 C 
ATOM     23  C   UNL     1      37.389 -24.823 -12.213  0.00  0.00    +0.040 C 
ATOM     24  C   UNL     1      38.355 -25.342 -13.074  0.00  0.00    +0.040 C 
BRANCH  20  25
ATOM     25  O   UNL     1      35.175 -24.041 -11.830  0.00  0.00    -0.472 OA
ATOM     26  C   UNL     1      35.343 -24.330 -10.443  0.00  0.00    +0.252 C 
ENDBRANCH  20  25
BRANCH  22  27
ATOM     27  O   UNL     1      38.979 -26.096 -15.251  0.00  0.00    -0.471 OA
ATOM     28  C   UNL     1      40.329 -25.687 -15.036  0.00  0.00    +0.252 C 
ENDBRANCH  22  27
ENDBRANCH  18  19
ENDBRANCH   6  18
TORSDOF 7
ENDMDL
MODEL 3
REMARK VINA RESULT:      -9.2      1.306      2.301
REMARK  Name = 448974
REMARK  7 active torsions:
REMARK  status: ('A' for Active; 'I' for Inactive)
REMARK    1  A    between atoms: N_2  and  C_14
REMARK    2  A    between atoms: C_6  and  C_18
REMARK    3  A    between atoms: C_14  and  C_15
REMARK    4  A    between atoms: C_15  and  C_16
REMARK    5  A    between atoms: C_18  and  C_19
REMARK    6  A    between atoms: C_20  and  O_25
REMARK    7  A    between atoms: C_22  and  O_27
REMARK                            x       y       z     vdW  Elec       q    Type
REMARK                         _______ _______ _______ _____ _____    ______ ____
ROOT
ATOM      1  F   UNL     1      33.747  -6.866 -23.162  0.00  0.00    -0.098 F 
ATOM      2  N   UNL     1      32.319 -11.318 -22.838  0.00  0.00    -0.238 N 
ATOM      3  N   UNL     1      33.854 -12.110 -24.225  0.00  0.00    -0.383 NA
ATOM      4  N   UNL     1      32.890  -8.959 -22.855  0.00  0.00    -0.299 NA
ATOM      5  N   UNL     1      34.799  -8.534 -24.315  0.00  0.00    -0.300 NA
ATOM      6  C   UNL     1      32.830 -12.417 -23.457  0.00  0.00    +0.170 C 
ATOM      7  C   UNL     1      33.047 -10.240 -23.223  0.00  0.00    +0.237 C 
ATOM      8  C   UNL     1      34.001 -10.751 -24.089  0.00  0.00    +0.222 C 
ATOM      9  C   UNL     1      34.899  -9.845 -24.643  0.00  0.00    +0.225 C 
ATOM     10  C   UNL     1      33.815  -8.178 -23.455  0.00  0.00    +0.300 C 
ATOM     11  N   UNL     1      35.901 -10.278 -25.530  0.00  0.00    -0.330 N 
ATOM     12  H   UNL     1      36.531  -9.627 -25.916  0.00  0.00    +0.145 HD
ATOM     13  H   UNL     1      35.972 -11.232 -25.764  0.00  0.00    +0.145 HD
ENDROOT
BRANCH   2  14
ATOM     14  C   UNL     1      31.185 -11.294 -21.918  0.00  0.00    +0.100 C 
BRANCH  14  15
ATOM     15  C   UNL     1      31.606 -11.603 -20.482  0.00  0.00    +0.022 C 
BRANCH  15  16
ATOM     16  C   UNL     1      31.073 -10.549 -19.513  0.00  0.00    +0.002 C 
ATOM     17  C   UNL     1      31.928  -9.292 -19.532  0.00  0.00    +0.000 C 
ENDBRANCH  15  16
ENDBRANCH  14  15
ENDBRANCH   2  14
BRANCH   6  18
ATOM     18  C   UNL     1      32.273 -13.771 -23.259  0.00  0.00    +0.105 C 
BRANCH  18  19
ATOM     19  C   UNL     1      33.319 -14.873 -23.171  0.00  0.00    +0.023 C 
ATOM     20  C   UNL     1      33.932 -15.139 -21.963  0.00  0.00    +0.135 C 
ATOM     21  C   UNL     1      33.622 -15.579 -24.319  0.00  0.00    +0.036 C 
ATOM     22  C   UNL     1      34.579 -16.593 -24.256  0.00  0.00    +0.139 C 
ATOM     23  C   UNL     1      34.889 -16.153 -21.901  0.00  0.00    +0.040 C 
ATOM     24  C   UNL     1      35.213 -16.880 -23.046  0.00  0.00    +0.040 C 
BRANCH  20  25
ATOM     25  O   UNL     1      33.630 -14.438 -20.835  0.00  0.00    -0.472 OA
ATOM     26  C   UNL     1      32.651 -15.003 -19.965  0.00  0.00    +0.252 C 
ENDBRANCH  20  25
BRANCH  22  27
ATOM     27  O   UNL     1      34.894 -17.303 -25.373  0.00  0.00    -0.471 OA
ATOM     28  C   UNL     1      34.496 -18.673 -25.406  0.00  0.00    +0.252 C 
ENDBRANCH  22  27
ENDBRANCH  18  19
ENDBRANCH   6  18
TORSDOF 7
ENDMDL
MODEL 4
REMARK VINA RESULT:      -9.0      8.878     12.224
REMARK  Name = 448974
REMARK  7 active torsions:
REMARK  status: ('A' for Active; 'I' for Inactive)
REMARK    1  A    between atoms: N_2  and  C_14
REMARK    2  A    between atoms: C_6  and  C_18
REMARK    3  A    between atoms: C_14  and  C_15
REMARK    4  A    between atoms: C_15  and  C_16
REMARK    5  A    between atoms: C_18  and  C_19
REMARK    6  A    between atoms: C_20  and  O_25
REMARK    7  A    between atoms: C_22  and  O_27
REMARK                            x       y       z     vdW  Elec       q    Type
REMARK                         _______ _______ _______ _____ _____    ______ ____
ROOT
ATOM      1  F   UNL     1      36.746 -18.661 -21.477  0.00  0.00    -0.098 F 
ATOM      2  N   UNL     1      35.313 -21.981 -18.497  0.00  0.00    -0.238 N 
ATOM      3  N   UNL     1      33.185 -21.874 -19.105  0.00  0.00    -0.383 NA
ATOM      4  N   UNL     1      36.270 -20.297 -19.960  0.00  0.00    -0.299 NA
ATOM      5  N   UNL     1      34.553 -19.291 -21.372  0.00  0.00    -0.300 NA
ATOM      6  C   UNL     1      34.054 -22.464 -18.311  0.00  0.00    +0.170 C 
ATOM      7  C   UNL     1      35.261 -21.029 -19.463  0.00  0.00    +0.237 C 
ATOM      8  C   UNL     1      33.926 -20.975 -19.832  0.00  0.00    +0.222 C 
ATOM      9  C   UNL     1      33.584 -20.063 -20.824  0.00  0.00    +0.225 C 
ATOM     10  C   UNL     1      35.817 -19.453 -20.911  0.00  0.00    +0.300 C 
ATOM     11  N   UNL     1      32.252 -19.943 -21.261  0.00  0.00    -0.330 N 
ATOM     12  H   UNL     1      32.022 -19.294 -21.965  0.00  0.00    +0.145 HD
ATOM     13  H   UNL     1      31.551 -20.508 -20.862  0.00  0.00    +0.145 HD
ENDROOT
BRANCH   2  14
ATOM     14  C   UNL     1      36.515 -22.409 -17.788  0.00  0.00    +0.100 C 
BRANCH  14  15
ATOM     15  C   UNL     1      36.681 -21.686 -16.453  0.00  0.00    +0.022 C 
BRANCH  15  16
ATOM     16  C   UNL     1      37.528 -22.507 -15.482  0.00  0.00    +0.002 C 
ATOM     17  C   UNL     1      37.049 -23.948 -15.406  0.00  0.00    +0.000 C 
ENDBRANCH  15  16
ENDBRANCH  14  15
ENDBRANCH   2  14
BRANCH   6  18
ATOM     18  C   UNL     1      33.746 -23.523 -17.327  0.00  0.00    +0.105 C 
BRANCH  18  19
ATOM     19  C   UNL     1      32.540 -23.230 -16.447  0.00  0.00    +0.023 C 
ATOM     20  C   UNL     1      32.685 -23.208 -15.074  0.00  0.00    +0.135 C 
ATOM     21  C   UNL     1      31.325 -22.995 -17.060  0.00  0.00    +0.036 C 
ATOM     22  C   UNL     1      30.209 -22.725 -16.267  0.00  0.00    +0.139 C 
ATOM     23  C   UNL     1      31.568 -22.939 -14.282  0.00  0.00    +0.040 C 
ATOM     24  C   UNL     1      30.330 -22.698 -14.878  0.00  0.00    +0.040 C 
BRANCH  20  25
ATOM     25  O   UNL     1      33.885 -23.443 -14.475  0.00  0.00    -0.472 OA
ATOM     26  C   UNL     1      33.876 -24.251 -13.300  0.00  0.00    +0.252 C 
ENDBRANCH  20  25
BRANCH  22  27
ATOM     27  O   UNL     1      29.001 -22.489 -16.849  0.00  0.00    -0.471 OA
ATOM     28  C   UNL     1      27.861 -22.467 -15.992  0.00  0.00    +0.252 C 
ENDBRANCH  22  27
ENDBRANCH  18  19
ENDBRANCH   6  18
TORSDOF 7
ENDMDL
MODEL 5
REMARK VINA RESULT:      -8.7     10.700     13.899
REMARK  Name = 448974
REMARK  7 active torsions:
REMARK  status: ('A' for Active; 'I' for Inactive)
REMARK    1  A    between atoms: N_2  and  C_14
REMARK    2  A    between atoms: C_6  and  C_18
REMARK    3  A    between atoms: C_14  and  C_15
REMARK    4  A    between atoms: C_15  and  C_16
REMARK    5  A    between atoms: C_18  and  C_19
REMARK    6  A    between atoms: C_20  and  O_25
REMARK    7  A    between atoms: C_22  and  O_27
REMARK                            x       y       z     vdW  Elec       q    Type
REMARK                         _______ _______ _______ _____ _____    ______ ____
ROOT
ATOM      1  F   UNL     1      32.628 -20.829 -20.741  0.00  0.00    -0.098 F 
ATOM      2  N   UNL     1      33.172 -23.265 -16.775  0.00  0.00    -0.238 N 
ATOM      3  N   UNL     1      35.376 -23.056 -16.726  0.00  0.00    -0.383 NA
ATOM      4  N   UNL     1      32.661 -22.038 -18.806  0.00  0.00    -0.299 NA
ATOM      5  N   UNL     1      34.697 -21.169 -19.835  0.00  0.00    -0.300 NA
ATOM      6  C   UNL     1      34.325 -23.556 -16.113  0.00  0.00    +0.170 C 
ATOM      7  C   UNL     1      33.489 -22.536 -17.875  0.00  0.00    +0.237 C 
ATOM      8  C   UNL     1      34.869 -22.415 -17.830  0.00  0.00    +0.222 C 
ATOM      9  C   UNL     1      35.472 -21.701 -18.860  0.00  0.00    +0.225 C 
ATOM     10  C   UNL     1      33.359 -21.369 -19.749  0.00  0.00    +0.300 C 
ATOM     11  N   UNL     1      36.867 -21.527 -18.892  0.00  0.00    -0.330 N 
ATOM     12  H   UNL     1      37.283 -21.020 -19.626  0.00  0.00    +0.145 HD
ATOM     13  H   UNL     1      37.428 -21.913 -18.180  0.00  0.00    +0.145 HD
ENDROOT
BRANCH   2  14
ATOM     14  C   UNL     1      31.824 -23.660 -16.376  0.00  0.00    +0.100 C 
BRANCH  14  15
ATOM     15  C   UNL     1      31.285 -22.795 -15.239  0.00  0.00    +0.022 C 
BRANCH  15  16
ATOM     16  C   UNL     1      30.264 -23.561 -14.399  0.00  0.00    +0.002 C 
ATOM     17  C   UNL     1      30.865 -24.827 -13.809  0.00  0.00    +0.000 C 
ENDBRANCH  15  16
ENDBRANCH  14  15
ENDBRANCH   2  14
BRANCH   6  18
ATOM     18  C   UNL     1      34.346 -24.341 -14.861  0.00  0.00    +0.105 C 
BRANCH  18  19
ATOM     19  C   UNL     1      35.705 -24.399 -14.179  0.00  0.00    +0.023 C 
ATOM     20  C   UNL     1      36.673 -25.260 -14.658  0.00  0.00    +0.135 C 
ATOM     21  C   UNL     1      35.927 -23.579 -13.091  0.00  0.00    +0.036 C 
ATOM     22  C   UNL     1      37.169 -23.621 -12.455  0.00  0.00    +0.139 C 
ATOM     23  C   UNL     1      37.914 -25.302 -14.022  0.00  0.00    +0.040 C 
ATOM     24  C   UNL     1      38.162 -24.482 -12.920  0.00  0.00    +0.040 C 
BRANCH  20  25
ATOM     25  O   UNL     1      36.447 -26.068 -15.731  0.00  0.00    -0.472 OA
ATOM     26  C   UNL     1      36.950 -27.401 -15.656  0.00  0.00    +0.252 C 
ENDBRANCH  20  25
BRANCH  22  27
ATOM     27  O   UNL     1      37.411 -22.821 -11.381  0.00  0.00    -0.471 OA
ATOM     28  C   UNL     1      36.561 -22.984 -10.246  0.00  0.00    +0.252 C 
ENDBRANCH  22  27
ENDBRANCH  18  19
ENDBRANCH   6  18
TORSDOF 7
ENDMDL
MODEL 6
REMARK VINA RESULT:      -8.5      1.777      3.738
REMARK  Name = 448974
REMARK  7 active torsions:
REMARK  status: ('A' for Active; 'I' for Inactive)
REMARK    1  A    between atoms: N_2  and  C_14
REMARK    2  A    between atoms: C_6  and  C_18
REMARK    3  A    between atoms: C_14  and  C_15
REMARK    4  A    between atoms: C_15  and  C_16
REMARK    5  A    between atoms: C_18  and  C_19
REMARK    6  A    between atoms: C_20  and  O_25
REMARK    7  A    between atoms: C_22  and  O_27
REMARK                            x       y       z     vdW  Elec       q    Type
REMARK                         _______ _______ _______ _____ _____    ______ ____
ROOT
ATOM      1  F   UNL     1      32.773  -6.807 -19.929  0.00  0.00    -0.098 F 
ATOM      2  N   UNL     1      32.304 -10.558 -22.698  0.00  0.00    -0.238 N 
ATOM      3  N   UNL     1      31.567 -11.890 -21.089  0.00  0.00    -0.383 NA
ATOM      4  N   UNL     1      32.618  -8.499 -21.453  0.00  0.00    -0.299 NA
ATOM      5  N   UNL     1      32.014  -8.799 -19.107  0.00  0.00    -0.300 NA
ATOM      6  C   UNL     1      31.873 -11.806 -22.366  0.00  0.00    +0.170 C 
ATOM      7  C   UNL     1      32.277  -9.791 -21.580  0.00  0.00    +0.237 C 
ATOM      8  C   UNL     1      31.815 -10.637 -20.584  0.00  0.00    +0.222 C 
ATOM      9  C   UNL     1      31.688 -10.098 -19.309  0.00  0.00    +0.225 C 
ATOM     10  C   UNL     1      32.453  -8.091 -20.176  0.00  0.00    +0.300 C 
ATOM     11  N   UNL     1      31.225 -10.885 -18.239  0.00  0.00    -0.330 N 
ATOM     12  H   UNL     1      31.139 -10.493 -17.340  0.00  0.00    +0.145 HD
ATOM     13  H   UNL     1      30.986 -11.829 -18.390  0.00  0.00    +0.145 HD
ENDROOT
BRANCH   2  14
ATOM     14  C   UNL     1      32.722 -10.114 -24.025  0.00  0.00    +0.100 C 
BRANCH  14  15
ATOM     15  C   UNL     1      34.240 -10.168 -24.196  0.00  0.00    +0.022 C 
BRANCH  15  16
ATOM     16  C   UNL     1      34.629 -11.035 -25.392  0.00  0.00    +0.002 C 
ATOM     17  C   UNL     1      35.672 -10.349 -26.261  0.00  0.00    +0.000 C 
ENDBRANCH  15  16
ENDBRANCH  14  15
ENDBRANCH   2  14
BRANCH   6  18
ATOM     18  C   UNL     1      31.775 -12.901 -23.354  0.00  0.00    +0.105 C 
BRANCH  18  19
ATOM     19  C   UNL     1      32.915 -13.907 -23.291  0.00  0.00    +0.023 C 
ATOM     20  C   UNL     1      33.473 -14.381 -24.462  0.00  0.00    +0.135 C 
ATOM     21  C   UNL     1      33.358 -14.317 -22.049  0.00  0.00    +0.036 C 
ATOM     22  C   UNL     1      34.403 -15.238 -21.974  0.00  0.00    +0.139 C 
ATOM     23  C   UNL     1      34.517 -15.303 -24.386  0.00  0.00    +0.040 C 
ATOM     24  C   UNL     1      34.983 -15.732 -23.143  0.00  0.00    +0.040 C 
BRANCH  20  25
ATOM     25  O   UNL     1      33.031 -13.974 -25.684  0.00  0.00    -0.472 OA
ATOM     26  C   UNL     1      32.635 -14.992 -26.602  0.00  0.00    +0.252 C 
ENDBRANCH  20  25
BRANCH  22  27
ATOM     27  O   UNL     1      34.857 -15.656 -20.761  0.00  0.00    -0.471 OA
ATOM     28  C   UNL     1      35.116 -17.051 -20.611  0.00  0.00    +0.252 C 
ENDBRANCH  22  27
ENDBRANCH  18  19
ENDBRANCH   6  18
TORSDOF 7
ENDMDL
MODEL 7
REMARK VINA RESULT:      -8.4     12.054     15.429
REMARK  Name = 448974
REMARK  7 active torsions:
REMARK  status: ('A' for Active; 'I' for Inactive)
REMARK    1  A    between atoms: N_2  and  C_14
REMARK    2  A    between atoms: C_6  and  C_18
REMARK    3  A    between atoms: C_14  and  C_15
REMARK    4  A    between atoms: C_15  and  C_16
REMARK    5  A    between atoms: C_18  and  C_19
REMARK    6  A    between atoms: C_20  and  O_25
REMARK    7  A    between atoms: C_22  and  O_27
REMARK                            x       y       z     vdW  Elec       q    Type
REMARK                         _______ _______ _______ _____ _____    ______ ____
ROOT
ATOM      1  F   UNL     1      40.542 -25.103 -14.533  0.00  0.00    -0.098 F 
ATOM      2  N   UNL     1      36.394 -23.277 -15.725  0.00  0.00    -0.238 N 
ATOM      3  N   UNL     1      35.268 -25.163 -15.440  0.00  0.00    -0.383 NA
ATOM      4  N   UNL     1      38.632 -24.011 -15.142  0.00  0.00    -0.299 NA
ATOM      5  N   UNL     1      38.644 -26.375 -14.535  0.00  0.00    -0.300 NA
ATOM      6  C   UNL     1      35.182 -23.895 -15.780  0.00  0.00    +0.170 C 
ATOM      7  C   UNL     1      37.316 -24.190 -15.329  0.00  0.00    +0.237 C 
ATOM      8  C   UNL     1      36.597 -25.363 -15.155  0.00  0.00    +0.222 C 
ATOM      9  C   UNL     1      37.310 -26.483 -14.743  0.00  0.00    +0.225 C 
ATOM     10  C   UNL     1      39.214 -25.164 -14.745  0.00  0.00    +0.300 C 
ATOM     11  N   UNL     1      36.660 -27.713 -14.541  0.00  0.00    -0.330 N 
ATOM     12  H   UNL     1      37.175 -28.500 -14.249  0.00  0.00    +0.145 HD
ATOM     13  H   UNL     1      35.689 -27.788 -14.691  0.00  0.00    +0.145 HD
ENDROOT
BRANCH   2  14
ATOM     14  C   UNL     1      36.663 -21.876 -16.035  0.00  0.00    +0.100 C 
BRANCH  14  15
ATOM     15  C   UNL     1      37.218 -21.697 -17.447  0.00  0.00    +0.022 C 
BRANCH  15  16
ATOM     16  C   UNL     1      36.095 -21.674 -18.482  0.00  0.00    +0.002 C 
ATOM     17  C   UNL     1      36.521 -20.955 -19.752  0.00  0.00    +0.000 C 
ENDBRANCH  15  16
ENDBRANCH  14  15
ENDBRANCH   2  14
BRANCH   6  18
ATOM     18  C   UNL     1      33.947 -23.187 -16.176  0.00  0.00    +0.105 C 
BRANCH  18  19
ATOM     19  C   UNL     1      32.704 -23.618 -15.411  0.00  0.00    +0.023 C 
ATOM     20  C   UNL     1      32.732 -23.660 -14.031  0.00  0.00    +0.135 C 
ATOM     21  C   UNL     1      31.576 -23.956 -16.132  0.00  0.00    +0.036 C 
ATOM     22  C   UNL     1      30.428 -24.353 -15.445  0.00  0.00    +0.139 C 
ATOM     23  C   UNL     1      31.584 -24.058 -13.345  0.00  0.00    +0.040 C 
ATOM     24  C   UNL     1      30.432 -24.404 -14.051  0.00  0.00    +0.040 C 
BRANCH  20  25
ATOM     25  O   UNL     1      33.848 -23.327 -13.324  0.00  0.00    -0.472 OA
ATOM     26  C   UNL     1      34.320 -24.277 -12.372  0.00  0.00    +0.252 C 
ENDBRANCH  20  25
BRANCH  22  27
ATOM     27  O   UNL     1      29.305 -24.690 -16.135  0.00  0.00    -0.471 OA
ATOM     28  C   UNL     1      28.467 -23.622 -16.574  0.00  0.00    +0.252 C 
ENDBRANCH  22  27
ENDBRANCH  18  19
ENDBRANCH   6  18
TORSDOF 7
ENDMDL
MODEL 8
REMARK VINA RESULT:      -8.4      3.670      6.154
REMARK  Name = 448974
REMARK  7 active torsions:
REMARK  status: ('A' for Active; 'I' for Inactive)
REMARK    1  A    between atoms: N_2  and  C_14
REMARK    2  A    between atoms: C_6  and  C_18
REMARK    3  A    between atoms: C_14  and  C_15
REMARK    4  A    between atoms: C_15  and  C_16
REMARK    5  A    between atoms: C_18  and  C_19
REMARK    6  A    between atoms: C_20  and  O_25
REMARK    7  A    between atoms: C_22  and  O_27
REMARK                            x       y       z     vdW  Elec       q    Type
REMARK                         _______ _______ _______ _____ _____    ______ ____
ROOT
ATOM      1  F   UNL     1      35.971 -18.320 -20.637  0.00  0.00    -0.098 F 
ATOM      2  N   UNL     1      33.784 -14.552 -22.363  0.00  0.00    -0.238 N 
ATOM      3  N   UNL     1      33.664 -15.335 -24.431  0.00  0.00    -0.383 NA
ATOM      4  N   UNL     1      34.912 -16.398 -21.262  0.00  0.00    -0.299 NA
ATOM      5  N   UNL     1      35.385 -18.197 -22.841  0.00  0.00    -0.300 NA
ATOM      6  C   UNL     1      33.374 -14.323 -23.640  0.00  0.00    +0.170 C 
ATOM      7  C   UNL     1      34.370 -15.776 -22.320  0.00  0.00    +0.237 C 
ATOM      8  C   UNL     1      34.286 -16.251 -23.619  0.00  0.00    +0.222 C 
ATOM      9  C   UNL     1      34.822 -17.511 -23.864  0.00  0.00    +0.225 C 
ATOM     10  C   UNL     1      35.396 -17.606 -21.622  0.00  0.00    +0.300 C 
ATOM     11  N   UNL     1      34.778 -18.071 -25.153  0.00  0.00    -0.330 N 
ATOM     12  H   UNL     1      35.160 -18.964 -25.315  0.00  0.00    +0.145 HD
ATOM     13  H   UNL     1      34.365 -17.570 -25.894  0.00  0.00    +0.145 HD
ENDROOT
BRANCH   2  14
ATOM     14  C   UNL     1      33.624 -13.646 -21.230  0.00  0.00    +0.100 C 
BRANCH  14  15
ATOM     15  C   UNL     1      32.165 -13.525 -20.793  0.00  0.00    +0.022 C 
BRANCH  15  16
ATOM     16  C   UNL     1      31.875 -12.142 -20.213  0.00  0.00    +0.002 C 
ATOM     17  C   UNL     1      30.933 -11.350 -21.105  0.00  0.00    +0.000 C 
ENDBRANCH  15  16
ENDBRANCH  14  15
ENDBRANCH   2  14
BRANCH   6  18
ATOM     18  C   UNL     1      32.690 -13.078 -24.044  0.00  0.00    +0.105 C 
BRANCH  18  19
ATOM     19  C   UNL     1      33.613 -12.011 -24.616  0.00  0.00    +0.023 C 
ATOM     20  C   UNL     1      34.100 -12.147 -25.901  0.00  0.00    +0.135 C 
ATOM     21  C   UNL     1      33.937 -10.931 -23.819  0.00  0.00    +0.036 C 
ATOM     22  C   UNL     1      34.782  -9.944 -24.329  0.00  0.00    +0.139 C 
ATOM     23  C   UNL     1      34.945 -11.160 -26.410  0.00  0.00    +0.040 C 
ATOM     24  C   UNL     1      35.286 -10.059 -25.625  0.00  0.00    +0.040 C 
BRANCH  20  25
ATOM     25  O   UNL     1      33.778 -13.216 -26.682  0.00  0.00    -0.472 OA
ATOM     26  C   UNL     1      32.613 -13.096 -27.496  0.00  0.00    +0.252 C 
ENDBRANCH  20  25
BRANCH  22  27
ATOM     27  O   UNL     1      35.114  -8.870 -23.563  0.00  0.00    -0.471 OA
ATOM     28  C   UNL     1      34.206  -7.770 -23.558  0.00  0.00    +0.252 C 
ENDBRANCH  22  27
ENDBRANCH  18  19
ENDBRANCH   6  18
TORSDOF 7
ENDMDL
MODEL 9
REMARK VINA RESULT:      -8.3      3.642      6.829
REMARK  Name = 448974
REMARK  7 active torsions:
REMARK  status: ('A' for Active; 'I' for Inactive)
REMARK    1  A    between atoms: N_2  and  C_14
REMARK    2  A    between atoms: C_6  and  C_18
REMARK    3  A    between atoms: C_14  and  C_15
REMARK    4  A    between atoms: C_15  and  C_16
REMARK    5  A    between atoms: C_18  and  C_19
REMARK    6  A    between atoms: C_20  and  O_25
REMARK    7  A    between atoms: C_22  and  O_27
REMARK                            x       y       z     vdW  Elec       q    Type
REMARK                         _______ _______ _______ _____ _____    ______ ____
ROOT
ATOM      1  F   UNL     1      35.214 -17.549 -25.580  0.00  0.00    -0.098 F 
ATOM      2  N   UNL     1      33.370 -14.477 -22.559  0.00  0.00    -0.238 N 
ATOM      3  N   UNL     1      32.182 -13.401 -24.087  0.00  0.00    -0.383 NA
ATOM      4  N   UNL     1      34.435 -16.164 -23.942  0.00  0.00    -0.299 NA
ATOM      5  N   UNL     1      33.758 -15.933 -26.275  0.00  0.00    -0.300 NA
ATOM      6  C   UNL     1      32.500 -13.462 -22.811  0.00  0.00    +0.170 C 
ATOM      7  C   UNL     1      33.632 -15.110 -23.731  0.00  0.00    +0.237 C 
ATOM      8  C   UNL     1      32.883 -14.425 -24.675  0.00  0.00    +0.222 C 
ATOM      9  C   UNL     1      32.966 -14.872 -25.989  0.00  0.00    +0.225 C 
ATOM     10  C   UNL     1      34.434 -16.504 -25.249  0.00  0.00    +0.300 C 
ATOM     11  N   UNL     1      32.238 -14.237 -27.011  0.00  0.00    -0.330 N 
ATOM     12  H   UNL     1      32.304 -14.562 -27.938  0.00  0.00    +0.145 HD
ATOM     13  H   UNL     1      31.661 -13.467 -26.798  0.00  0.00    +0.145 HD
ENDROOT
BRANCH   2  14
ATOM     14  C   UNL     1      33.929 -14.833 -21.258  0.00  0.00    +0.100 C 
BRANCH  14  15
ATOM     15  C   UNL     1      33.634 -16.285 -20.884  0.00  0.00    +0.022 C 
BRANCH  15  16
ATOM     16  C   UNL     1      34.911 -17.122 -20.874  0.00  0.00    +0.002 C 
ATOM     17  C   UNL     1      34.620 -18.588 -21.154  0.00  0.00    +0.000 C 
ENDBRANCH  15  16
ENDBRANCH  14  15
ENDBRANCH   2  14
BRANCH   6  18
ATOM     18  C   UNL     1      31.997 -12.564 -21.750  0.00  0.00    +0.105 C 
BRANCH  18  19
ATOM     19  C   UNL     1      32.259 -11.087 -22.002  0.00  0.00    +0.023 C 
ATOM     20  C   UNL     1      31.681 -10.140 -21.180  0.00  0.00    +0.135 C 
ATOM     21  C   UNL     1      33.077 -10.738 -23.060  0.00  0.00    +0.036 C 
ATOM     22  C   UNL     1      33.327  -9.387 -23.304  0.00  0.00    +0.139 C 
ATOM     23  C   UNL     1      31.931  -8.790 -21.425  0.00  0.00    +0.040 C 
ATOM     24  C   UNL     1      32.754  -8.413 -22.486  0.00  0.00    +0.040 C 
BRANCH  20  25
ATOM     25  O   UNL     1      30.874 -10.490 -20.139  0.00  0.00    -0.472 OA
ATOM     26  C   UNL     1      31.431 -10.400 -18.829  0.00  0.00    +0.252 C 
ENDBRANCH  20  25
BRANCH  22  27
ATOM     27  O   UNL     1      34.130  -9.020 -24.339  0.00  0.00    -0.471 OA
ATOM     28  C   UNL     1      35.112  -9.964 -24.765  0.00  0.00    +0.252 C 
ENDBRANCH  22  27
ENDBRANCH  18  19
ENDBRANCH   6  18
TORSDOF 7
ENDMDL
