MODEL 1
REMARK VINA RESULT:      -9.6      0.000      0.000
REMARK  Name = 8515
REMARK  0 active torsions:
REMARK  status: ('A' for Active; 'I' for Inactive)
REMARK                            x       y       z     vdW  Elec       q    Type
REMARK                         _______ _______ _______ _____ _____    ______ ____
ROOT
ATOM      1  O   UNL     1      34.125 -17.675 -25.836  0.00  0.00    -0.287 OA
ATOM      2  N   UNL     1      34.954 -16.268 -20.389  0.00  0.00    -0.276 N 
ATOM      3  N   UNL     1      34.596 -15.135 -21.052  0.00  0.00    -0.173 NA
ATOM      4  C   UNL     1      34.670 -16.926 -22.423  0.00  0.00    +0.039 A 
ATOM      5  C   UNL     1      34.425 -15.556 -22.309  0.00  0.00    +0.102 A 
ATOM      6  C   UNL     1      34.605 -17.746 -23.539  0.00  0.00    +0.042 C 
ATOM      7  C   UNL     1      34.038 -14.822 -23.501  0.00  0.00    +0.022 C 
ATOM      8  C   UNL     1      35.014 -17.388 -21.176  0.00  0.00    +0.075 A 
ATOM      9  C   UNL     1      33.933 -15.554 -24.722  0.00  0.00    +0.040 C 
ATOM     10  C   UNL     1      34.214 -17.049 -24.789  0.00  0.00    +0.196 C 
ATOM     11  C   UNL     1      34.903 -19.096 -23.375  0.00  0.00    +0.003 C 
ATOM     12  C   UNL     1      35.320 -18.731 -20.965  0.00  0.00    +0.019 C 
ATOM     13  C   UNL     1      33.772 -13.452 -23.479  0.00  0.00    +0.002 C 
ATOM     14  C   UNL     1      33.564 -14.888 -25.893  0.00  0.00    +0.003 C 
ATOM     15  C   UNL     1      35.255 -19.573 -22.098  0.00  0.00    +0.002 C 
ATOM     16  C   UNL     1      33.406 -12.805 -24.660  0.00  0.00    +0.000 C 
ATOM     17  C   UNL     1      33.301 -13.518 -25.857  0.00  0.00    +0.000 C 
ATOM     18  H   UNL     1      35.152 -16.281 -19.425  0.00  0.00    +0.189 HD
ENDROOT
TORSDOF 0
ENDMDL
MODEL 2
REMARK VINA RESULT:      -9.6      2.261      2.975
REMARK  Name = 8515
REMARK  0 active torsions:
REMARK  status: ('A' for Active; 'I' for Inactive)
REMARK                            x       y       z     vdW  Elec       q    Type
REMARK                         _______ _______ _______ _____ _____    ______ ____
ROOT
ATOM      1  O   UNL     1      34.594 -14.489 -21.323  0.00  0.00    -0.287 OA
ATOM      2  N   UNL     1      34.500 -18.987 -24.800  0.00  0.00    -0.276 N 
ATOM      3  N   UNL     1      34.134 -17.900 -25.531  0.00  0.00    -0.173 NA
ATOM      4  C   UNL     1      34.574 -17.362 -23.385  0.00  0.00    +0.039 A 
ATOM      5  C   UNL     1      34.183 -16.902 -24.644  0.00  0.00    +0.102 A 
ATOM      6  C   UNL     1      34.747 -16.661 -22.201  0.00  0.00    +0.042 C 
ATOM      7  C   UNL     1      33.903 -15.487 -24.805  0.00  0.00    +0.022 C 
ATOM      8  C   UNL     1      34.779 -18.717 -23.486  0.00  0.00    +0.075 A 
ATOM      9  C   UNL     1      34.045 -14.650 -23.657  0.00  0.00    +0.040 C 
ATOM     10  C   UNL     1      34.474 -15.206 -22.307  0.00  0.00    +0.196 C 
ATOM     11  C   UNL     1      35.147 -17.372 -21.074  0.00  0.00    +0.003 C 
ATOM     12  C   UNL     1      35.181 -19.469 -22.384  0.00  0.00    +0.019 C 
ATOM     13  C   UNL     1      33.508 -14.940 -26.027  0.00  0.00    +0.002 C 
ATOM     14  C   UNL     1      33.786 -13.281 -23.767  0.00  0.00    +0.003 C 
ATOM     15  C   UNL     1      35.359 -18.760 -21.175  0.00  0.00    +0.002 C 
ATOM     16  C   UNL     1      33.253 -13.571 -26.116  0.00  0.00    +0.000 C 
ATOM     17  C   UNL     1      33.392 -12.748 -24.995  0.00  0.00    +0.000 C 
ATOM     18  H   UNL     1      34.559 -19.893 -25.183  0.00  0.00    +0.189 HD
ENDROOT
TORSDOF 0
ENDMDL
MODEL 3
REMARK VINA RESULT:      -9.4      0.735      4.546
REMARK  Name = 8515
REMARK  0 active torsions:
REMARK  status: ('A' for Active; 'I' for Inactive)
REMARK                            x       y       z     vdW  Elec       q    Type
REMARK                         _______ _______ _______ _____ _____    ______ ____
ROOT
ATOM      1  O   UNL     1      34.066 -18.118 -25.823  0.00  0.00    -0.287 OA
ATOM      2  N   UNL     1      34.112 -13.400 -22.649  0.00  0.00    -0.276 N 
ATOM      3  N   UNL     1      34.515 -14.429 -21.855  0.00  0.00    -0.173 NA
ATOM      4  C   UNL     1      34.054 -15.116 -23.954  0.00  0.00    +0.039 A 
ATOM      5  C   UNL     1      34.474 -15.484 -22.674  0.00  0.00    +0.102 A 
ATOM      6  C   UNL     1      33.878 -15.897 -25.086  0.00  0.00    +0.042 C 
ATOM      7  C   UNL     1      34.790 -16.879 -22.426  0.00  0.00    +0.022 C 
ATOM      8  C   UNL     1      33.819 -13.763 -23.938  0.00  0.00    +0.075 A 
ATOM      9  C   UNL     1      34.650 -17.792 -23.514  0.00  0.00    +0.040 C 
ATOM     10  C   UNL     1      34.187 -17.335 -24.891  0.00  0.00    +0.196 C 
ATOM     11  C   UNL     1      33.444 -15.271 -26.250  0.00  0.00    +0.003 C 
ATOM     12  C   UNL     1      33.384 -13.093 -25.081  0.00  0.00    +0.019 C 
ATOM     13  C   UNL     1      35.217 -17.336 -21.179  0.00  0.00    +0.002 C 
ATOM     14  C   UNL     1      34.944 -19.144 -23.321  0.00  0.00    +0.003 C 
ATOM     15  C   UNL     1      33.203 -13.884 -26.237  0.00  0.00    +0.002 C 
ATOM     16  C   UNL     1      35.506 -18.690 -21.004  0.00  0.00    +0.000 C 
ATOM     17  C   UNL     1      35.370 -19.587 -22.067  0.00  0.00    +0.000 C 
ATOM     18  H   UNL     1      34.038 -12.473 -22.325  0.00  0.00    +0.189 HD
ENDROOT
TORSDOF 0
ENDMDL
MODEL 4
REMARK VINA RESULT:      -9.3      2.359      5.389
REMARK  Name = 8515
REMARK  0 active torsions:
REMARK  status: ('A' for Active; 'I' for Inactive)
REMARK                            x       y       z     vdW  Elec       q    Type
REMARK                         _______ _______ _______ _____ _____    ______ ____
ROOT
ATOM      1  O   UNL     1      34.823 -14.980 -20.561  0.00  0.00    -0.287 OA
ATOM      2  N   UNL     1      33.478 -15.406 -26.070  0.00  0.00    -0.276 N 
ATOM      3  N   UNL     1      33.856 -16.642 -25.646  0.00  0.00    -0.173 NA
ATOM      4  C   UNL     1      33.958 -15.117 -23.987  0.00  0.00    +0.039 A 
ATOM      5  C   UNL     1      34.151 -16.449 -24.357  0.00  0.00    +0.102 A 
ATOM      6  C   UNL     1      34.146 -14.504 -22.758  0.00  0.00    +0.042 C 
ATOM      7  C   UNL     1      34.615 -17.385 -23.349  0.00  0.00    +0.022 C 
ATOM      8  C   UNL     1      33.522 -14.439 -25.100  0.00  0.00    +0.075 A 
ATOM      9  C   UNL     1      34.848 -16.879 -22.035  0.00  0.00    +0.040 C 
ATOM     10  C   UNL     1      34.622 -15.414 -21.687  0.00  0.00    +0.196 C 
ATOM     11  C   UNL     1      33.877 -13.142 -22.660  0.00  0.00    +0.003 C 
ATOM     12  C   UNL     1      33.239 -13.075 -25.047  0.00  0.00    +0.019 C 
ATOM     13  C   UNL     1      34.834 -18.735 -23.629  0.00  0.00    +0.002 C 
ATOM     14  C   UNL     1      35.295 -17.744 -21.034  0.00  0.00    +0.003 C 
ATOM     15  C   UNL     1      33.429 -12.445 -23.798  0.00  0.00    +0.002 C 
ATOM     16  C   UNL     1      35.281 -19.583 -22.616  0.00  0.00    +0.000 C 
ATOM     17  C   UNL     1      35.510 -19.092 -21.328  0.00  0.00    +0.000 C 
ATOM     18  H   UNL     1      33.197 -15.222 -26.995  0.00  0.00    +0.189 HD
ENDROOT
TORSDOF 0
ENDMDL
MODEL 5
REMARK VINA RESULT:      -9.1      7.025     10.262
REMARK  Name = 8515
REMARK  0 active torsions:
REMARK  status: ('A' for Active; 'I' for Inactive)
REMARK                            x       y       z     vdW  Elec       q    Type
REMARK                         _______ _______ _______ _____ _____    ______ ____
ROOT
ATOM      1  O   UNL     1      37.563 -22.398 -15.933  0.00  0.00    -0.287 OA
ATOM      2  N   UNL     1      32.902 -22.227 -19.187  0.00  0.00    -0.276 N 
ATOM      3  N   UNL     1      32.554 -22.808 -18.008  0.00  0.00    -0.173 NA
ATOM      4  C   UNL     1      34.735 -22.234 -18.051  0.00  0.00    +0.039 A 
ATOM      5  C   UNL     1      33.696 -22.807 -17.314  0.00  0.00    +0.102 A 
ATOM      6  C   UNL     1      36.064 -22.040 -17.704  0.00  0.00    +0.042 C 
ATOM      7  C   UNL     1      33.985 -23.291 -15.976  0.00  0.00    +0.022 C 
ATOM      8  C   UNL     1      34.220 -21.857 -19.267  0.00  0.00    +0.075 A 
ATOM      9  C   UNL     1      35.321 -23.151 -15.497  0.00  0.00    +0.040 C 
ATOM     10  C   UNL     1      36.416 -22.518 -16.344  0.00  0.00    +0.196 C 
ATOM     11  C   UNL     1      36.901 -21.436 -18.637  0.00  0.00    +0.003 C 
ATOM     12  C   UNL     1      35.021 -21.249 -20.232  0.00  0.00    +0.019 C 
ATOM     13  C   UNL     1      33.008 -23.877 -15.170  0.00  0.00    +0.002 C 
ATOM     14  C   UNL     1      35.643 -23.603 -14.214  0.00  0.00    +0.003 C 
ATOM     15  C   UNL     1      36.375 -21.049 -19.884  0.00  0.00    +0.002 C 
ATOM     16  C   UNL     1      33.349 -24.324 -13.893  0.00  0.00    +0.000 C 
ATOM     17  C   UNL     1      34.657 -24.187 -13.419  0.00  0.00    +0.000 C 
ATOM     18  H   UNL     1      32.262 -22.083 -19.921  0.00  0.00    +0.189 HD
ENDROOT
TORSDOF 0
ENDMDL
MODEL 6
REMARK VINA RESULT:      -8.9      2.795      3.953
REMARK  Name = 8515
REMARK  0 active torsions:
REMARK  status: ('A' for Active; 'I' for Inactive)
REMARK                            x       y       z     vdW  Elec       q    Type
REMARK                         _______ _______ _______ _____ _____    ______ ____
ROOT
ATOM      1  O   UNL     1      34.219 -15.894 -20.243  0.00  0.00    -0.287 OA
ATOM      2  N   UNL     1      33.457 -15.218 -25.838  0.00  0.00    -0.276 N 
ATOM      3  N   UNL     1      32.839 -14.179 -25.215  0.00  0.00    -0.173 NA
ATOM      4  C   UNL     1      33.814 -15.584 -23.743  0.00  0.00    +0.039 A 
ATOM      5  C   UNL     1      33.066 -14.418 -23.919  0.00  0.00    +0.102 A 
ATOM      6  C   UNL     1      34.261 -16.180 -22.573  0.00  0.00    +0.042 C 
ATOM      7  C   UNL     1      32.666 -13.670 -22.742  0.00  0.00    +0.022 C 
ATOM      8  C   UNL     1      34.067 -16.104 -24.989  0.00  0.00    +0.075 A 
ATOM      9  C   UNL     1      33.064 -14.179 -21.469  0.00  0.00    +0.040 C 
ATOM     10  C   UNL     1      33.879 -15.458 -21.335  0.00  0.00    +0.196 C 
ATOM     11  C   UNL     1      34.997 -17.356 -22.680  0.00  0.00    +0.003 C 
ATOM     12  C   UNL     1      34.801 -17.279 -25.143  0.00  0.00    +0.019 C 
ATOM     13  C   UNL     1      31.919 -12.494 -22.824  0.00  0.00    +0.002 C 
ATOM     14  C   UNL     1      32.701 -13.491 -20.308  0.00  0.00    +0.003 C 
ATOM     15  C   UNL     1      35.259 -17.891 -23.956  0.00  0.00    +0.002 C 
ATOM     16  C   UNL     1      31.565 -11.822 -21.654  0.00  0.00    +0.000 C 
ATOM     17  C   UNL     1      31.953 -12.316 -20.406  0.00  0.00    +0.000 C 
ATOM     18  H   UNL     1      33.465 -15.325 -26.817  0.00  0.00    +0.189 HD
ENDROOT
TORSDOF 0
ENDMDL
MODEL 7
REMARK VINA RESULT:      -8.9      2.016      3.051
REMARK  Name = 8515
REMARK  0 active torsions:
REMARK  status: ('A' for Active; 'I' for Inactive)
REMARK                            x       y       z     vdW  Elec       q    Type
REMARK                         _______ _______ _______ _____ _____    ______ ____
ROOT
ATOM      1  O   UNL     1      32.744 -13.828 -25.231  0.00  0.00    -0.287 OA
ATOM      2  N   UNL     1      34.868 -17.424 -21.371  0.00  0.00    -0.276 N 
ATOM      3  N   UNL     1      34.277 -16.403 -20.694  0.00  0.00    -0.173 NA
ATOM      4  C   UNL     1      34.109 -16.141 -22.928  0.00  0.00    +0.039 A 
ATOM      5  C   UNL     1      33.812 -15.616 -21.669  0.00  0.00    +0.102 A 
ATOM      6  C   UNL     1      33.809 -15.642 -24.187  0.00  0.00    +0.042 C 
ATOM      7  C   UNL     1      33.081 -14.364 -21.597  0.00  0.00    +0.022 C 
ATOM      8  C   UNL     1      34.795 -17.314 -22.735  0.00  0.00    +0.075 A 
ATOM      9  C   UNL     1      32.711 -13.744 -22.828  0.00  0.00    +0.040 C 
ATOM     10  C   UNL     1      33.061 -14.361 -24.175  0.00  0.00    +0.196 C 
ATOM     11  C   UNL     1      34.227 -16.373 -25.295  0.00  0.00    +0.003 C 
ATOM     12  C   UNL     1      35.232 -18.079 -23.815  0.00  0.00    +0.019 C 
ATOM     13  C   UNL     1      32.742 -13.767 -20.382  0.00  0.00    +0.002 C 
ATOM     14  C   UNL     1      32.006 -12.537 -22.807  0.00  0.00    +0.003 C 
ATOM     15  C   UNL     1      34.930 -17.577 -25.100  0.00  0.00    +0.002 C 
ATOM     16  C   UNL     1      32.038 -12.562 -20.381  0.00  0.00    +0.000 C 
ATOM     17  C   UNL     1      31.673 -11.952 -21.584  0.00  0.00    +0.000 C 
ATOM     18  H   UNL     1      35.312 -18.178 -20.918  0.00  0.00    +0.189 HD
ENDROOT
TORSDOF 0
ENDMDL
MODEL 8
REMARK VINA RESULT:      -8.9      1.036      4.512
REMARK  Name = 8515
REMARK  0 active torsions:
REMARK  status: ('A' for Active; 'I' for Inactive)
REMARK                            x       y       z     vdW  Elec       q    Type
REMARK                         _______ _______ _______ _____ _____    ______ ____
ROOT
ATOM      1  O   UNL     1      34.490 -16.418 -25.806  0.00  0.00    -0.287 OA
ATOM      2  N   UNL     1      33.002 -14.069 -20.846  0.00  0.00    -0.276 N 
ATOM      3  N   UNL     1      33.411 -15.340 -20.587  0.00  0.00    -0.173 NA
ATOM      4  C   UNL     1      33.535 -14.846 -22.785  0.00  0.00    +0.039 A 
ATOM      5  C   UNL     1      33.737 -15.810 -21.795  0.00  0.00    +0.102 A 
ATOM      6  C   UNL     1      33.747 -14.925 -24.153  0.00  0.00    +0.042 C 
ATOM      7  C   UNL     1      34.247 -17.110 -22.192  0.00  0.00    +0.022 C 
ATOM      8  C   UNL     1      33.056 -13.716 -22.169  0.00  0.00    +0.075 A 
ATOM      9  C   UNL     1      34.508 -17.322 -23.579  0.00  0.00    +0.040 C 
ATOM     10  C   UNL     1      34.267 -16.235 -24.617  0.00  0.00    +0.196 C 
ATOM     11  C   UNL     1      33.458 -13.803 -24.924  0.00  0.00    +0.003 C 
ATOM     12  C   UNL     1      32.755 -12.569 -22.901  0.00  0.00    +0.019 C 
ATOM     13  C   UNL     1      34.480 -18.132 -21.270  0.00  0.00    +0.002 C 
ATOM     14  C   UNL     1      34.999 -18.559 -24.005  0.00  0.00    +0.003 C 
ATOM     15  C   UNL     1      32.969 -12.643 -24.295  0.00  0.00    +0.002 C 
ATOM     16  C   UNL     1      34.969 -19.360 -21.716  0.00  0.00    +0.000 C 
ATOM     17  C   UNL     1      35.227 -19.572 -23.073  0.00  0.00    +0.000 C 
ATOM     18  H   UNL     1      32.692 -13.455 -20.141  0.00  0.00    +0.189 HD
ENDROOT
TORSDOF 0
ENDMDL
MODEL 9
REMARK VINA RESULT:      -8.8      8.401     10.941
REMARK  Name = 8515
REMARK  0 active torsions:
REMARK  status: ('A' for Active; 'I' for Inactive)
REMARK                            x       y       z     vdW  Elec       q    Type
REMARK                         _______ _______ _______ _____ _____    ______ ____
ROOT
ATOM      1  O   UNL     1      37.863 -22.135 -15.837  0.00  0.00    -0.287 OA
ATOM      2  N   UNL     1      33.261 -24.587 -13.568  0.00  0.00    -0.276 N 
ATOM      3  N   UNL     1      32.946 -24.230 -14.842  0.00  0.00    -0.173 NA
ATOM      4  C   UNL     1      35.069 -23.678 -14.314  0.00  0.00    +0.039 A 
ATOM      5  C   UNL     1      34.072 -23.668 -15.292  0.00  0.00    +0.102 A 
ATOM      6  C   UNL     1      36.369 -23.199 -14.372  0.00  0.00    +0.042 C 
ATOM      7  C   UNL     1      34.379 -23.087 -16.586  0.00  0.00    +0.022 C 
ATOM      8  C   UNL     1      34.542 -24.274 -13.194  0.00  0.00    +0.075 A 
ATOM      9  C   UNL     1      35.691 -22.556 -16.777  0.00  0.00    +0.040 C 
ATOM     10  C   UNL     1      36.739 -22.591 -15.674  0.00  0.00    +0.196 C 
ATOM     11  C   UNL     1      37.165 -23.335 -13.239  0.00  0.00    +0.003 C 
ATOM     12  C   UNL     1      35.303 -24.431 -12.037  0.00  0.00    +0.019 C 
ATOM     13  C   UNL     1      33.445 -23.035 -17.621  0.00  0.00    +0.002 C 
ATOM     14  C   UNL     1      36.030 -21.986 -18.007  0.00  0.00    +0.003 C 
ATOM     15  C   UNL     1      36.629 -23.946 -12.090  0.00  0.00    +0.002 C 
ATOM     16  C   UNL     1      33.803 -22.462 -18.842  0.00  0.00    +0.000 C 
ATOM     17  C   UNL     1      35.086 -21.942 -19.033  0.00  0.00    +0.000 C 
ATOM     18  H   UNL     1      32.623 -25.032 -12.965  0.00  0.00    +0.189 HD
ENDROOT
TORSDOF 0
ENDMDL
