MODEL 1
REMARK VINA RESULT:      -6.6      0.000      0.000
REMARK  Name = 1017
REMARK  4 active torsions:
REMARK  status: ('A' for Active; 'I' for Inactive)
REMARK    1  A    between atoms: C_1  and  C_8
REMARK    2  A    between atoms: C_2  and  C_12
REMARK    3  A    between atoms: C_8  and  O_9
REMARK    4  A    between atoms: C_12  and  O_13
REMARK                            x       y       z     vdW  Elec       q    Type
REMARK                         _______ _______ _______ _____ _____    ______ ____
ROOT
ATOM      1  C   UNL     1      37.345 -25.294 -14.773  0.00  0.00    +0.082 C 
ATOM      2  C   UNL     1      38.454 -24.546 -15.168  0.00  0.00    +0.082 C 
ATOM      3  C   UNL     1      36.060 -24.781 -14.945  0.00  0.00    +0.007 C 
ATOM      4  C   UNL     1      38.277 -23.284 -15.735  0.00  0.00    +0.007 C 
ATOM      5  C   UNL     1      35.883 -23.519 -15.513  0.00  0.00    +0.000 C 
ATOM      6  C   UNL     1      36.991 -22.770 -15.908  0.00  0.00    +0.000 C 
ENDROOT
BRANCH   1   8
ATOM      7  O   UNL     1      38.107 -27.561 -14.686  0.00  0.00    -0.245 OA
ATOM      8  C   UNL     1      37.497 -26.616 -14.178  0.00  0.00    +0.338 C 
BRANCH   8   9
ATOM      9  O   UNL     1      36.884 -26.713 -12.968  0.00  0.00    -0.477 OA
ATOM     10  H   UNL     1      36.549 -27.538 -12.678  0.00  0.00    +0.295 HD
ENDBRANCH   8   9
ENDBRANCH   1   8
BRANCH   2  12
ATOM     11  O   UNL     1      40.535 -24.841 -14.027  0.00  0.00    -0.245 OA
ATOM     12  C   UNL     1      39.809 -25.054 -15.001  0.00  0.00    +0.338 C 
BRANCH  12  13
ATOM     13  O   UNL     1      40.211 -25.813 -16.057  0.00  0.00    -0.477 OA
ATOM     14  H   UNL     1      40.781 -25.449 -16.705  0.00  0.00    +0.295 HD
ENDBRANCH  12  13
ENDBRANCH   2  12
TORSDOF 4
ENDMDL
MODEL 2
REMARK VINA RESULT:      -6.6      0.002      3.035
REMARK  Name = 1017
REMARK  4 active torsions:
REMARK  status: ('A' for Active; 'I' for Inactive)
REMARK    1  A    between atoms: C_1  and  C_8
REMARK    2  A    between atoms: C_2  and  C_12
REMARK    3  A    between atoms: C_8  and  O_9
REMARK    4  A    between atoms: C_12  and  O_13
REMARK                            x       y       z     vdW  Elec       q    Type
REMARK                         _______ _______ _______ _____ _____    ______ ____
ROOT
ATOM      1  C   UNL     1      38.455 -24.545 -15.168  0.00  0.00    +0.082 C 
ATOM      2  C   UNL     1      37.347 -25.294 -14.773  0.00  0.00    +0.082 C 
ATOM      3  C   UNL     1      38.279 -23.283 -15.734  0.00  0.00    +0.007 C 
ATOM      4  C   UNL     1      36.062 -24.780 -14.945  0.00  0.00    +0.007 C 
ATOM      5  C   UNL     1      36.993 -22.769 -15.905  0.00  0.00    +0.000 C 
ATOM      6  C   UNL     1      35.884 -23.517 -15.511  0.00  0.00    +0.000 C 
ENDROOT
BRANCH   1   8
ATOM      7  O   UNL     1      40.538 -24.841 -14.027  0.00  0.00    -0.245 OA
ATOM      8  C   UNL     1      39.811 -25.054 -15.001  0.00  0.00    +0.338 C 
BRANCH   8   9
ATOM      9  O   UNL     1      40.211 -25.814 -16.056  0.00  0.00    -0.477 OA
ATOM     10  H   UNL     1      40.382 -26.727 -15.937  0.00  0.00    +0.295 HD
ENDBRANCH   8   9
ENDBRANCH   1   8
BRANCH   2  12
ATOM     11  O   UNL     1      38.109 -27.560 -14.687  0.00  0.00    -0.245 OA
ATOM     12  C   UNL     1      37.498 -26.616 -14.179  0.00  0.00    +0.338 C 
BRANCH  12  13
ATOM     13  O   UNL     1      36.884 -26.713 -12.969  0.00  0.00    -0.477 OA
ATOM     14  H   UNL     1      37.384 -26.916 -12.204  0.00  0.00    +0.295 HD
ENDBRANCH  12  13
ENDBRANCH   2  12
TORSDOF 4
ENDMDL
MODEL 3
REMARK VINA RESULT:      -6.5      5.999      7.040
REMARK  Name = 1017
REMARK  4 active torsions:
REMARK  status: ('A' for Active; 'I' for Inactive)
REMARK    1  A    between atoms: C_1  and  C_8
REMARK    2  A    between atoms: C_2  and  C_12
REMARK    3  A    between atoms: C_8  and  O_9
REMARK    4  A    between atoms: C_12  and  O_13
REMARK                            x       y       z     vdW  Elec       q    Type
REMARK                         _______ _______ _______ _____ _____    ______ ____
ROOT
ATOM      1  C   UNL     1      34.075 -21.473 -19.596  0.00  0.00    +0.082 C 
ATOM      2  C   UNL     1      35.218 -20.757 -19.952  0.00  0.00    +0.082 C 
ATOM      3  C   UNL     1      32.818 -21.026 -19.999  0.00  0.00    +0.007 C 
ATOM      4  C   UNL     1      35.103 -19.593 -20.711  0.00  0.00    +0.007 C 
ATOM      5  C   UNL     1      32.702 -19.862 -20.760  0.00  0.00    +0.000 C 
ATOM      6  C   UNL     1      33.844 -19.145 -21.116  0.00  0.00    +0.000 C 
ENDROOT
BRANCH   1   8
ATOM      7  O   UNL     1      34.423 -22.744 -17.598  0.00  0.00    -0.245 OA
ATOM      8  C   UNL     1      34.164 -22.693 -18.804  0.00  0.00    +0.338 C 
BRANCH   8   9
ATOM      9  O   UNL     1      33.924 -23.809 -19.544  0.00  0.00    -0.477 OA
ATOM     10  H   UNL     1      33.509 -24.552 -19.150  0.00  0.00    +0.295 HD
ENDBRANCH   8   9
ENDBRANCH   1   8
BRANCH   2  12
ATOM     11  O   UNL     1      37.348 -21.800 -20.264  0.00  0.00    -0.245 OA
ATOM     12  C   UNL     1      36.546 -21.198 -19.545  0.00  0.00    +0.338 C 
BRANCH  12  13
ATOM     13  O   UNL     1      36.827 -20.871 -18.255  0.00  0.00    -0.477 OA
ATOM     14  H   UNL     1      37.426 -21.393 -17.759  0.00  0.00    +0.295 HD
ENDBRANCH  12  13
ENDBRANCH   2  12
TORSDOF 4
ENDMDL
MODEL 4
REMARK VINA RESULT:      -6.4      9.770     11.234
REMARK  Name = 1017
REMARK  4 active torsions:
REMARK  status: ('A' for Active; 'I' for Inactive)
REMARK    1  A    between atoms: C_1  and  C_8
REMARK    2  A    between atoms: C_2  and  C_12
REMARK    3  A    between atoms: C_8  and  O_9
REMARK    4  A    between atoms: C_12  and  O_13
REMARK                            x       y       z     vdW  Elec       q    Type
REMARK                         _______ _______ _______ _____ _____    ______ ____
ROOT
ATOM      1  C   UNL     1      34.491 -17.162 -22.328  0.00  0.00    +0.082 C 
ATOM      2  C   UNL     1      34.618 -18.551 -22.317  0.00  0.00    +0.082 C 
ATOM      3  C   UNL     1      34.534 -16.467 -23.536  0.00  0.00    +0.007 C 
ATOM      4  C   UNL     1      34.787 -19.245 -23.515  0.00  0.00    +0.007 C 
ATOM      5  C   UNL     1      34.702 -17.161 -24.735  0.00  0.00    +0.000 C 
ATOM      6  C   UNL     1      34.829 -18.550 -24.725  0.00  0.00    +0.000 C 
ENDROOT
BRANCH   1   8
ATOM      7  O   UNL     1      35.178 -16.239 -20.230  0.00  0.00    -0.245 OA
ATOM      8  C   UNL     1      34.312 -16.409 -21.093  0.00  0.00    +0.338 C 
BRANCH   8   9
ATOM      9  O   UNL     1      33.060 -15.892 -20.979  0.00  0.00    -0.477 OA
ATOM     10  H   UNL     1      32.645 -15.500 -21.722  0.00  0.00    +0.295 HD
ENDBRANCH   8   9
ENDBRANCH   1   8
BRANCH   2  12
ATOM     11  O   UNL     1      33.581 -19.865 -20.609  0.00  0.00    -0.245 OA
ATOM     12  C   UNL     1      34.578 -19.306 -21.071  0.00  0.00    +0.338 C 
BRANCH  12  13
ATOM     13  O   UNL     1      35.787 -19.338 -20.447  0.00  0.00    -0.477 OA
ATOM     14  H   UNL     1      36.054 -18.621 -19.907  0.00  0.00    +0.295 HD
ENDBRANCH  12  13
ENDBRANCH   2  12
TORSDOF 4
ENDMDL
MODEL 5
REMARK VINA RESULT:      -6.4      9.772     11.096
REMARK  Name = 1017
REMARK  4 active torsions:
REMARK  status: ('A' for Active; 'I' for Inactive)
REMARK    1  A    between atoms: C_1  and  C_8
REMARK    2  A    between atoms: C_2  and  C_12
REMARK    3  A    between atoms: C_8  and  O_9
REMARK    4  A    between atoms: C_12  and  O_13
REMARK                            x       y       z     vdW  Elec       q    Type
REMARK                         _______ _______ _______ _____ _____    ______ ____
ROOT
ATOM      1  C   UNL     1      34.621 -18.538 -22.316  0.00  0.00    +0.082 C 
ATOM      2  C   UNL     1      34.493 -17.149 -22.319  0.00  0.00    +0.082 C 
ATOM      3  C   UNL     1      34.793 -19.226 -23.517  0.00  0.00    +0.007 C 
ATOM      4  C   UNL     1      34.538 -16.448 -23.524  0.00  0.00    +0.007 C 
ATOM      5  C   UNL     1      34.839 -18.524 -24.722  0.00  0.00    +0.000 C 
ATOM      6  C   UNL     1      34.711 -17.135 -24.726  0.00  0.00    +0.000 C 
ENDROOT
BRANCH   1   8
ATOM      7  O   UNL     1      33.580 -19.857 -20.612  0.00  0.00    -0.245 OA
ATOM      8  C   UNL     1      34.579 -19.299 -21.074  0.00  0.00    +0.338 C 
BRANCH   8   9
ATOM      9  O   UNL     1      35.787 -19.338 -20.449  0.00  0.00    -0.477 OA
ATOM     10  H   UNL     1      36.426 -18.675 -20.625  0.00  0.00    +0.295 HD
ENDBRANCH   8   9
ENDBRANCH   1   8
BRANCH   2  12
ATOM     11  O   UNL     1      35.178 -16.230 -20.220  0.00  0.00    -0.245 OA
ATOM     12  C   UNL     1      34.312 -16.402 -21.081  0.00  0.00    +0.338 C 
BRANCH  12  13
ATOM     13  O   UNL     1      33.055 -15.894 -20.963  0.00  0.00    -0.477 OA
ATOM     14  H   UNL     1      32.488 -16.202 -20.284  0.00  0.00    +0.295 HD
ENDBRANCH  12  13
ENDBRANCH   2  12
TORSDOF 4
ENDMDL
MODEL 6
REMARK VINA RESULT:      -6.3      2.375      3.693
REMARK  Name = 1017
REMARK  4 active torsions:
REMARK  status: ('A' for Active; 'I' for Inactive)
REMARK    1  A    between atoms: C_1  and  C_8
REMARK    2  A    between atoms: C_2  and  C_12
REMARK    3  A    between atoms: C_8  and  O_9
REMARK    4  A    between atoms: C_12  and  O_13
REMARK                            x       y       z     vdW  Elec       q    Type
REMARK                         _______ _______ _______ _____ _____    ______ ____
ROOT
ATOM      1  C   UNL     1      37.775 -24.859 -13.587  0.00  0.00    +0.082 C 
ATOM      2  C   UNL     1      36.400 -24.876 -13.820  0.00  0.00    +0.082 C 
ATOM      3  C   UNL     1      38.275 -24.327 -12.399  0.00  0.00    +0.007 C 
ATOM      4  C   UNL     1      35.524 -24.361 -12.864  0.00  0.00    +0.007 C 
ATOM      5  C   UNL     1      37.399 -23.813 -11.442  0.00  0.00    +0.000 C 
ATOM      6  C   UNL     1      36.024 -23.829 -11.675  0.00  0.00    +0.000 C 
ENDROOT
BRANCH   1   8
ATOM      7  O   UNL     1      39.022 -26.579 -14.689  0.00  0.00    -0.245 OA
ATOM      8  C   UNL     1      38.714 -25.390 -14.567  0.00  0.00    +0.338 C 
BRANCH   8   9
ATOM      9  O   UNL     1      39.237 -24.419 -15.362  0.00  0.00    -0.477 OA
ATOM     10  H   UNL     1      38.832 -23.574 -15.398  0.00  0.00    +0.295 HD
ENDBRANCH   8   9
ENDBRANCH   1   8
BRANCH   2  12
ATOM     11  O   UNL     1      35.392 -24.759 -15.986  0.00  0.00    -0.245 OA
ATOM     12  C   UNL     1      35.846 -25.424 -15.052  0.00  0.00    +0.338 C 
BRANCH  12  13
ATOM     13  O   UNL     1      35.881 -26.784 -15.074  0.00  0.00    -0.477 OA
ATOM     14  H   UNL     1      36.689 -27.234 -14.923  0.00  0.00    +0.295 HD
ENDBRANCH  12  13
ENDBRANCH   2  12
TORSDOF 4
ENDMDL
MODEL 7
REMARK VINA RESULT:      -6.3      2.381      2.833
REMARK  Name = 1017
REMARK  4 active torsions:
REMARK  status: ('A' for Active; 'I' for Inactive)
REMARK    1  A    between atoms: C_1  and  C_8
REMARK    2  A    between atoms: C_2  and  C_12
REMARK    3  A    between atoms: C_8  and  O_9
REMARK    4  A    between atoms: C_12  and  O_13
REMARK                            x       y       z     vdW  Elec       q    Type
REMARK                         _______ _______ _______ _____ _____    ______ ____
ROOT
ATOM      1  C   UNL     1      36.382 -24.882 -13.813  0.00  0.00    +0.082 C 
ATOM      2  C   UNL     1      37.756 -24.848 -13.579  0.00  0.00    +0.082 C 
ATOM      3  C   UNL     1      35.499 -24.383 -12.856  0.00  0.00    +0.007 C 
ATOM      4  C   UNL     1      38.248 -24.313 -12.388  0.00  0.00    +0.007 C 
ATOM      5  C   UNL     1      35.990 -23.848 -11.665  0.00  0.00    +0.000 C 
ATOM      6  C   UNL     1      37.364 -23.814 -11.431  0.00  0.00    +0.000 C 
ENDROOT
BRANCH   1   8
ATOM      7  O   UNL     1      35.384 -24.772 -15.986  0.00  0.00    -0.245 OA
ATOM      8  C   UNL     1      35.838 -25.433 -15.048  0.00  0.00    +0.338 C 
BRANCH   8   9
ATOM      9  O   UNL     1      35.882 -26.793 -15.071  0.00  0.00    -0.477 OA
ATOM     10  H   UNL     1      36.538 -27.231 -15.576  0.00  0.00    +0.295 HD
ENDBRANCH   8   9
ENDBRANCH   1   8
BRANCH   2  12
ATOM     11  O   UNL     1      39.021 -26.546 -14.691  0.00  0.00    -0.245 OA
ATOM     12  C   UNL     1      38.705 -25.362 -14.559  0.00  0.00    +0.338 C 
BRANCH  12  13
ATOM     13  O   UNL     1      39.225 -24.377 -15.341  0.00  0.00    -0.477 OA
ATOM     14  H   UNL     1      38.797 -23.546 -15.394  0.00  0.00    +0.295 HD
ENDBRANCH  12  13
ENDBRANCH   2  12
TORSDOF 4
ENDMDL
MODEL 8
REMARK VINA RESULT:      -6.2      5.972      7.500
REMARK  Name = 1017
REMARK  4 active torsions:
REMARK  status: ('A' for Active; 'I' for Inactive)
REMARK    1  A    between atoms: C_1  and  C_8
REMARK    2  A    between atoms: C_2  and  C_12
REMARK    3  A    between atoms: C_8  and  O_9
REMARK    4  A    between atoms: C_12  and  O_13
REMARK                            x       y       z     vdW  Elec       q    Type
REMARK                         _______ _______ _______ _____ _____    ______ ____
ROOT
ATOM      1  C   UNL     1      35.174 -20.840 -19.841  0.00  0.00    +0.082 C 
ATOM      2  C   UNL     1      33.958 -21.474 -19.582  0.00  0.00    +0.082 C 
ATOM      3  C   UNL     1      35.205 -19.679 -20.612  0.00  0.00    +0.007 C 
ATOM      4  C   UNL     1      32.774 -20.945 -20.096  0.00  0.00    +0.007 C 
ATOM      5  C   UNL     1      34.021 -19.150 -21.125  0.00  0.00    +0.000 C 
ATOM      6  C   UNL     1      32.805 -19.782 -20.867  0.00  0.00    +0.000 C 
ENDROOT
BRANCH   1   8
ATOM      7  O   UNL     1      36.755 -21.384 -18.128  0.00  0.00    -0.245 OA
ATOM      8  C   UNL     1      36.428 -21.368 -19.318  0.00  0.00    +0.338 C 
BRANCH   8   9
ATOM      9  O   UNL     1      37.231 -21.860 -20.300  0.00  0.00    -0.477 OA
ATOM     10  H   UNL     1      38.064 -22.228 -20.082  0.00  0.00    +0.295 HD
ENDBRANCH   8   9
ENDBRANCH   1   8
BRANCH   2  12
ATOM     11  O   UNL     1      33.758 -22.727 -17.555  0.00  0.00    -0.245 OA
ATOM     12  C   UNL     1      33.892 -22.689 -18.781  0.00  0.00    +0.338 C 
BRANCH  12  13
ATOM     13  O   UNL     1      33.995 -23.814 -19.538  0.00  0.00    -0.477 OA
ATOM     14  H   UNL     1      33.326 -24.024 -20.159  0.00  0.00    +0.295 HD
ENDBRANCH  12  13
ENDBRANCH   2  12
TORSDOF 4
ENDMDL
MODEL 9
REMARK VINA RESULT:      -6.2     13.382     14.838
REMARK  Name = 1017
REMARK  4 active torsions:
REMARK  status: ('A' for Active; 'I' for Inactive)
REMARK    1  A    between atoms: C_1  and  C_8
REMARK    2  A    between atoms: C_2  and  C_12
REMARK    3  A    between atoms: C_8  and  O_9
REMARK    4  A    between atoms: C_12  and  O_13
REMARK                            x       y       z     vdW  Elec       q    Type
REMARK                         _______ _______ _______ _____ _____    ______ ____
ROOT
ATOM      1  C   UNL     1      33.963 -15.067 -23.777  0.00  0.00    +0.082 C 
ATOM      2  C   UNL     1      33.863 -15.705 -25.013  0.00  0.00    +0.082 C 
ATOM      3  C   UNL     1      34.630 -15.689 -22.722  0.00  0.00    +0.007 C 
ATOM      4  C   UNL     1      34.431 -16.966 -25.195  0.00  0.00    +0.007 C 
ATOM      5  C   UNL     1      35.199 -16.950 -22.904  0.00  0.00    +0.000 C 
ATOM      6  C   UNL     1      35.099 -17.589 -24.140  0.00  0.00    +0.000 C 
ENDROOT
BRANCH   1   8
ATOM      7  O   UNL     1      32.240 -13.534 -23.139  0.00  0.00    -0.245 OA
ATOM      8  C   UNL     1      33.381 -13.749 -23.557  0.00  0.00    +0.338 C 
BRANCH   8   9
ATOM      9  O   UNL     1      34.244 -12.744 -23.865  0.00  0.00    -0.477 OA
ATOM     10  H   UNL     1      35.148 -12.934 -24.022  0.00  0.00    +0.295 HD
ENDBRANCH   8   9
ENDBRANCH   1   8
BRANCH   2  12
ATOM     11  O   UNL     1      33.342 -13.922 -26.520  0.00  0.00    -0.245 OA
ATOM     12  C   UNL     1      33.172 -15.081 -26.135  0.00  0.00    +0.338 C 
BRANCH  12  13
ATOM     13  O   UNL     1      32.294 -15.928 -26.737  0.00  0.00    -0.477 OA
ATOM     14  H   UNL     1      31.451 -15.617 -27.002  0.00  0.00    +0.295 HD
ENDBRANCH  12  13
ENDBRANCH   2  12
TORSDOF 4
ENDMDL
