MODEL 1
REMARK VINA RESULT:     -11.8      0.000      0.000
REMARK  Name = 208951
REMARK  4 active torsions:
REMARK  status: ('A' for Active; 'I' for Inactive)
REMARK    1  A    between atoms: N_1  and  C_19
REMARK    2  A    between atoms: N_2  and  C_11
REMARK    3  A    between atoms: C_19  and  C_20
REMARK    4  A    between atoms: C_23  and  C_26
REMARK                            x       y       z     vdW  Elec       q    Type
REMARK                         _______ _______ _______ _____ _____    ______ ____
ROOT
ATOM      1  N   UNL     1      34.819 -19.606 -20.400  0.00  0.00    +0.392 N 
ATOM      2  N   UNL     1      33.888 -17.104 -21.419  0.00  0.00    -0.309 N 
ATOM      3  C   UNL     1      33.475 -19.493 -20.980  0.00  0.00    -0.055 C 
ATOM      4  C   UNL     1      35.740 -18.698 -21.094  0.00  0.00    -0.055 C 
ATOM      5  C   UNL     1      32.938 -18.066 -20.851  0.00  0.00    +0.068 C 
ATOM      6  C   UNL     1      35.279 -17.244 -20.968  0.00  0.00    +0.068 C 
ATOM      7  H   UNL     1      34.775 -19.341 -19.415  0.00  0.00    -0.079 HD
ENDROOT
BRANCH   2  11
ATOM      8  O   UNL     1      33.830 -16.173 -24.212  0.00  0.00    -0.406 OA
ATOM      9  O   UNL     1      33.852 -15.607 -26.455  0.00  0.00    -0.223 OA
ATOM     10  N   UNL     1      33.105 -14.088 -24.853  0.00  0.00    -0.287 N 
ATOM     11  C   UNL     1      33.446 -15.832 -21.801  0.00  0.00    +0.084 C 
ATOM     12  C   UNL     1      33.427 -15.413 -23.125  0.00  0.00    +0.179 A 
ATOM     13  C   UNL     1      32.988 -14.894 -20.853  0.00  0.00    +0.018 C 
ATOM     14  C   UNL     1      32.988 -14.159 -23.489  0.00  0.00    +0.098 A 
ATOM     15  C   UNL     1      32.542 -13.613 -21.238  0.00  0.00    +0.003 C 
ATOM     16  C   UNL     1      32.538 -13.229 -22.580  0.00  0.00    +0.020 C 
ATOM     17  C   UNL     1      33.613 -15.299 -25.293  0.00  0.00    +0.419 A 
ATOM     18  H   UNL     1      32.872 -13.316 -25.416  0.00  0.00    +0.172 HD
ENDBRANCH   2  11
BRANCH   1  19
ATOM     19  C   UNL     1      35.298 -20.984 -20.481  0.00  0.00    -0.050 C 
BRANCH  19  20
ATOM     20  C   UNL     1      35.539 -21.556 -19.110  0.00  0.00    -0.043 C 
ATOM     21  C   UNL     1      34.474 -22.084 -18.392  0.00  0.00    -0.006 C 
ATOM     22  C   UNL     1      36.823 -21.549 -18.582  0.00  0.00    -0.006 C 
ATOM     23  C   UNL     1      34.699 -22.615 -17.121  0.00  0.00    -0.000 C 
ATOM     24  C   UNL     1      37.047 -22.079 -17.312  0.00  0.00    -0.000 C 
ATOM     25  C   UNL     1      35.985 -22.612 -16.582  0.00  0.00    -0.000 C 
BRANCH  23  26
ATOM     26  C   UNL     1      33.598 -23.169 -16.364  0.00  0.00    -0.000 C 
ATOM     27  C   UNL     1      32.305 -23.133 -16.884  0.00  0.00    -0.000 C 
ATOM     28  C   UNL     1      33.830 -23.741 -15.112  0.00  0.00    -0.000 C 
ATOM     29  C   UNL     1      31.243 -23.668 -16.154  0.00  0.00    -0.000 C 
ATOM     30  C   UNL     1      32.769 -24.275 -14.382  0.00  0.00    -0.000 C 
ATOM     31  C   UNL     1      31.475 -24.239 -14.904  0.00  0.00    +0.000 C 
ENDBRANCH  23  26
ENDBRANCH  19  20
ENDBRANCH   1  19
TORSDOF 4
ENDMDL
MODEL 2
REMARK VINA RESULT:     -11.7      5.099     10.789
REMARK  Name = 208951
REMARK  4 active torsions:
REMARK  status: ('A' for Active; 'I' for Inactive)
REMARK    1  A    between atoms: N_1  and  C_19
REMARK    2  A    between atoms: N_2  and  C_11
REMARK    3  A    between atoms: C_19  and  C_20
REMARK    4  A    between atoms: C_23  and  C_26
REMARK                            x       y       z     vdW  Elec       q    Type
REMARK                         _______ _______ _______ _____ _____    ______ ____
ROOT
ATOM      1  N   UNL     1      36.022 -21.805 -17.925  0.00  0.00    +0.392 N 
ATOM      2  N   UNL     1      36.200 -23.187 -15.431  0.00  0.00    -0.309 N 
ATOM      3  C   UNL     1      37.327 -22.029 -17.290  0.00  0.00    -0.055 C 
ATOM      4  C   UNL     1      35.126 -22.931 -17.635  0.00  0.00    -0.055 C 
ATOM      5  C   UNL     1      37.186 -22.157 -15.772  0.00  0.00    +0.068 C 
ATOM      6  C   UNL     1      34.911 -23.088 -16.127  0.00  0.00    +0.068 C 
ATOM      7  H   UNL     1      35.613 -20.952 -17.543  0.00  0.00    -0.079 HD
ENDROOT
BRANCH   2  11
ATOM      8  O   UNL     1      38.346 -24.969 -14.487  0.00  0.00    -0.406 OA
ATOM      9  O   UNL     1      40.115 -26.344 -13.910  0.00  0.00    -0.223 OA
ATOM     10  N   UNL     1      38.387 -25.933 -12.401  0.00  0.00    -0.287 N 
ATOM     11  C   UNL     1      36.217 -23.771 -14.159  0.00  0.00    +0.084 C 
ATOM     12  C   UNL     1      37.240 -24.609 -13.734  0.00  0.00    +0.179 A 
ATOM     13  C   UNL     1      35.186 -23.540 -13.226  0.00  0.00    +0.018 C 
ATOM     14  C   UNL     1      37.246 -25.178 -12.479  0.00  0.00    +0.098 A 
ATOM     15  C   UNL     1      35.202 -24.128 -11.945  0.00  0.00    +0.003 C 
ATOM     16  C   UNL     1      36.250 -24.964 -11.555  0.00  0.00    +0.020 C 
ATOM     17  C   UNL     1      39.054 -25.811 -13.609  0.00  0.00    +0.419 A 
ATOM     18  H   UNL     1      38.679 -26.466 -11.627  0.00  0.00    +0.172 HD
ENDBRANCH   2  11
BRANCH   1  19
ATOM     19  C   UNL     1      36.177 -21.631 -19.368  0.00  0.00    -0.050 C 
BRANCH  19  20
ATOM     20  C   UNL     1      35.024 -20.857 -19.947  0.00  0.00    -0.043 C 
ATOM     21  C   UNL     1      35.273 -19.831 -20.849  0.00  0.00    -0.006 C 
ATOM     22  C   UNL     1      33.726 -21.180 -19.574  0.00  0.00    -0.006 C 
ATOM     23  C   UNL     1      34.203 -19.114 -21.387  0.00  0.00    -0.000 C 
ATOM     24  C   UNL     1      32.658 -20.464 -20.111  0.00  0.00    -0.000 C 
ATOM     25  C   UNL     1      32.896 -19.431 -21.017  0.00  0.00    -0.000 C 
BRANCH  23  26
ATOM     26  C   UNL     1      34.450 -18.044 -22.328  0.00  0.00    -0.000 C 
ATOM     27  C   UNL     1      34.473 -16.720 -21.890  0.00  0.00    -0.000 C 
ATOM     28  C   UNL     1      34.665 -18.336 -23.676  0.00  0.00    -0.000 C 
ATOM     29  C   UNL     1      34.711 -15.688 -22.797  0.00  0.00    -0.000 C 
ATOM     30  C   UNL     1      34.903 -17.304 -24.583  0.00  0.00    -0.000 C 
ATOM     31  C   UNL     1      34.926 -15.980 -24.144  0.00  0.00    +0.000 C 
ENDBRANCH  23  26
ENDBRANCH  19  20
ENDBRANCH   1  19
TORSDOF 4
ENDMDL
MODEL 3
REMARK VINA RESULT:     -11.6      2.137      3.570
REMARK  Name = 208951
REMARK  4 active torsions:
REMARK  status: ('A' for Active; 'I' for Inactive)
REMARK    1  A    between atoms: N_1  and  C_19
REMARK    2  A    between atoms: N_2  and  C_11
REMARK    3  A    between atoms: C_19  and  C_20
REMARK    4  A    between atoms: C_23  and  C_26
REMARK                            x       y       z     vdW  Elec       q    Type
REMARK                         _______ _______ _______ _____ _____    ______ ____
ROOT
ATOM      1  N   UNL     1      34.801 -21.618 -19.358  0.00  0.00    +0.392 N 
ATOM      2  N   UNL     1      34.702 -19.714 -21.485  0.00  0.00    -0.309 N 
ATOM      3  C   UNL     1      33.605 -21.508 -20.201  0.00  0.00    -0.055 C 
ATOM      4  C   UNL     1      36.001 -21.331 -20.152  0.00  0.00    -0.055 C 
ATOM      5  C   UNL     1      33.471 -20.100 -20.786  0.00  0.00    +0.068 C 
ATOM      6  C   UNL     1      35.948 -19.916 -20.734  0.00  0.00    +0.068 C 
ATOM      7  H   UNL     1      34.735 -20.936 -18.602  0.00  0.00    -0.079 HD
ENDROOT
BRANCH   2  11
ATOM      8  O   UNL     1      34.745 -16.850 -20.801  0.00  0.00    -0.406 OA
ATOM      9  O   UNL     1      34.788 -14.651 -20.084  0.00  0.00    -0.223 OA
ATOM     10  N   UNL     1      34.691 -15.159 -22.357  0.00  0.00    -0.287 N 
ATOM     11  C   UNL     1      34.667 -18.691 -22.439  0.00  0.00    +0.084 C 
ATOM     12  C   UNL     1      34.689 -17.345 -22.094  0.00  0.00    +0.179 A 
ATOM     13  C   UNL     1      34.610 -18.969 -23.820  0.00  0.00    +0.018 C 
ATOM     14  C   UNL     1      34.657 -16.346 -23.042  0.00  0.00    +0.098 A 
ATOM     15  C   UNL     1      34.576 -17.939 -24.781  0.00  0.00    +0.003 C 
ATOM     16  C   UNL     1      34.600 -16.597 -24.394  0.00  0.00    +0.020 C 
ATOM     17  C   UNL     1      34.745 -15.458 -21.005  0.00  0.00    +0.419 A 
ATOM     18  H   UNL     1      34.681 -14.259 -22.754  0.00  0.00    +0.172 HD
ENDBRANCH   2  11
BRANCH   1  19
ATOM     19  C   UNL     1      34.887 -22.951 -18.762  0.00  0.00    -0.050 C 
BRANCH  19  20
ATOM     20  C   UNL     1      34.229 -22.984 -17.410  0.00  0.00    -0.043 C 
ATOM     21  C   UNL     1      32.853 -23.158 -17.322  0.00  0.00    -0.006 C 
ATOM     22  C   UNL     1      35.004 -22.842 -16.267  0.00  0.00    -0.006 C 
ATOM     23  C   UNL     1      32.244 -23.190 -16.068  0.00  0.00    -0.000 C 
ATOM     24  C   UNL     1      34.395 -22.874 -15.014  0.00  0.00    -0.000 C 
ATOM     25  C   UNL     1      33.015 -23.047 -14.914  0.00  0.00    -0.000 C 
BRANCH  23  26
ATOM     26  C   UNL     1      30.812 -23.371 -15.963  0.00  0.00    -0.000 C 
ATOM     27  C   UNL     1      30.297 -24.485 -15.300  0.00  0.00    -0.000 C 
ATOM     28  C   UNL     1      29.947 -22.432 -16.526  0.00  0.00    -0.000 C 
ATOM     29  C   UNL     1      28.916 -24.659 -15.199  0.00  0.00    -0.000 C 
ATOM     30  C   UNL     1      28.567 -22.608 -16.425  0.00  0.00    -0.000 C 
ATOM     31  C   UNL     1      28.052 -23.721 -15.761  0.00  0.00    +0.000 C 
ENDBRANCH  23  26
ENDBRANCH  19  20
ENDBRANCH   1  19
TORSDOF 4
ENDMDL
MODEL 4
REMARK VINA RESULT:     -11.3      2.764      4.997
REMARK  Name = 208951
REMARK  4 active torsions:
REMARK  status: ('A' for Active; 'I' for Inactive)
REMARK    1  A    between atoms: N_1  and  C_19
REMARK    2  A    between atoms: N_2  and  C_11
REMARK    3  A    between atoms: C_19  and  C_20
REMARK    4  A    between atoms: C_23  and  C_26
REMARK                            x       y       z     vdW  Elec       q    Type
REMARK                         _______ _______ _______ _____ _____    ______ ____
ROOT
ATOM      1  N   UNL     1      33.955 -16.468 -24.032  0.00  0.00    +0.392 N 
ATOM      2  N   UNL     1      33.859 -13.613 -24.017  0.00  0.00    -0.309 N 
ATOM      3  C   UNL     1      33.674 -15.727 -25.267  0.00  0.00    -0.055 C 
ATOM      4  C   UNL     1      34.876 -15.700 -23.187  0.00  0.00    -0.055 C 
ATOM      5  C   UNL     1      33.034 -14.371 -24.963  0.00  0.00    +0.068 C 
ATOM      6  C   UNL     1      34.276 -14.342 -22.812  0.00  0.00    +0.068 C 
ATOM      7  H   UNL     1      33.080 -16.605 -23.524  0.00  0.00    -0.079 HD
ENDROOT
BRANCH   2  11
ATOM      8  O   UNL     1      31.861 -12.290 -22.306  0.00  0.00    -0.406 OA
ATOM      9  O   UNL     1      30.236 -11.420 -20.908  0.00  0.00    -0.223 OA
ATOM     10  N   UNL     1      31.616 -10.010 -22.148  0.00  0.00    -0.287 N 
ATOM     11  C   UNL     1      33.716 -12.224 -23.928  0.00  0.00    +0.084 C 
ATOM     12  C   UNL     1      32.766 -11.620 -23.113  0.00  0.00    +0.179 A 
ATOM     13  C   UNL     1      34.538 -11.347 -24.665  0.00  0.00    +0.018 C 
ATOM     14  C   UNL     1      32.636 -10.251 -23.032  0.00  0.00    +0.098 A 
ATOM     15  C   UNL     1      34.394  -9.948 -24.576  0.00  0.00    +0.003 C 
ATOM     16  C   UNL     1      33.427  -9.379 -23.744  0.00  0.00    +0.020 C 
ATOM     17  C   UNL     1      31.146 -11.236 -21.707  0.00  0.00    +0.419 A 
ATOM     18  H   UNL     1      31.280  -9.127 -21.876  0.00  0.00    +0.172 HD
ENDBRANCH   2  11
BRANCH   1  19
ATOM     19  C   UNL     1      34.515 -17.783 -24.338  0.00  0.00    -0.050 C 
BRANCH  19  20
ATOM     20  C   UNL     1      35.242 -18.353 -23.150  0.00  0.00    -0.043 C 
ATOM     21  C   UNL     1      34.569 -19.196 -22.276  0.00  0.00    -0.006 C 
ATOM     22  C   UNL     1      36.576 -18.028 -22.944  0.00  0.00    -0.006 C 
ATOM     23  C   UNL     1      35.244 -19.725 -21.175  0.00  0.00    -0.000 C 
ATOM     24  C   UNL     1      37.250 -18.556 -21.844  0.00  0.00    -0.000 C 
ATOM     25  C   UNL     1      36.585 -19.404 -20.959  0.00  0.00    -0.000 C 
BRANCH  23  26
ATOM     26  C   UNL     1      34.554 -20.606 -20.258  0.00  0.00    -0.000 C 
ATOM     27  C   UNL     1      33.173 -20.502 -20.096  0.00  0.00    -0.000 C 
ATOM     28  C   UNL     1      35.271 -21.561 -19.535  0.00  0.00    -0.000 C 
ATOM     29  C   UNL     1      32.508 -21.352 -19.212  0.00  0.00    -0.000 C 
ATOM     30  C   UNL     1      34.606 -22.410 -18.652  0.00  0.00    -0.000 C 
ATOM     31  C   UNL     1      33.224 -22.306 -18.490  0.00  0.00    +0.000 C 
ENDBRANCH  23  26
ENDBRANCH  19  20
ENDBRANCH   1  19
TORSDOF 4
ENDMDL
MODEL 5
REMARK VINA RESULT:     -11.1      4.945     12.221
REMARK  Name = 208951
REMARK  4 active torsions:
REMARK  status: ('A' for Active; 'I' for Inactive)
REMARK    1  A    between atoms: N_1  and  C_19
REMARK    2  A    between atoms: N_2  and  C_11
REMARK    3  A    between atoms: C_19  and  C_20
REMARK    4  A    between atoms: C_23  and  C_26
REMARK                            x       y       z     vdW  Elec       q    Type
REMARK                         _______ _______ _______ _____ _____    ______ ____
ROOT
ATOM      1  N   UNL     1      32.318 -11.785 -21.949  0.00  0.00    +0.392 N 
ATOM      2  N   UNL     1      33.519 -14.377 -21.967  0.00  0.00    -0.309 N 
ATOM      3  C   UNL     1      32.749 -12.396 -23.212  0.00  0.00    -0.055 C 
ATOM      4  C   UNL     1      31.851 -12.825 -21.025  0.00  0.00    -0.055 C 
ATOM      5  C   UNL     1      33.893 -13.387 -22.982  0.00  0.00    +0.068 C 
ATOM      6  C   UNL     1      32.965 -13.831 -20.721  0.00  0.00    +0.068 C 
ATOM      7  H   UNL     1      33.113 -11.303 -21.528  0.00  0.00    -0.079 HD
ENDROOT
BRANCH   2  11
ATOM      8  O   UNL     1      34.207 -15.981 -24.338  0.00  0.00    -0.406 OA
ATOM      9  O   UNL     1      34.667 -17.110 -26.305  0.00  0.00    -0.223 OA
ATOM     10  N   UNL     1      35.326 -17.988 -24.248  0.00  0.00    -0.287 N 
ATOM     11  C   UNL     1      34.200 -15.598 -21.903  0.00  0.00    +0.084 C 
ATOM     12  C   UNL     1      34.515 -16.339 -23.035  0.00  0.00    +0.179 A 
ATOM     13  C   UNL     1      34.610 -16.152 -20.673  0.00  0.00    +0.018 C 
ATOM     14  C   UNL     1      35.186 -17.540 -22.960  0.00  0.00    +0.098 A 
ATOM     15  C   UNL     1      35.296 -17.382 -20.609  0.00  0.00    +0.003 C 
ATOM     16  C   UNL     1      35.595 -18.097 -21.770  0.00  0.00    +0.020 C 
ATOM     17  C   UNL     1      34.737 -17.051 -25.083  0.00  0.00    +0.419 A 
ATOM     18  H   UNL     1      35.764 -18.822 -24.529  0.00  0.00    +0.172 HD
ENDBRANCH   2  11
BRANCH   1  19
ATOM     19  C   UNL     1      31.264 -10.801 -22.189  0.00  0.00    -0.050 C 
BRANCH  19  20
ATOM     20  C   UNL     1      31.782  -9.399 -22.019  0.00  0.00    -0.043 C 
ATOM     21  C   UNL     1      32.133  -8.658 -23.140  0.00  0.00    -0.006 C 
ATOM     22  C   UNL     1      31.902  -8.863 -20.743  0.00  0.00    -0.006 C 
ATOM     23  C   UNL     1      32.613  -7.357 -22.981  0.00  0.00    -0.000 C 
ATOM     24  C   UNL     1      32.381  -7.564 -20.585  0.00  0.00    -0.000 C 
ATOM     25  C   UNL     1      32.737  -6.811 -21.704  0.00  0.00    -0.000 C 
BRANCH  23  26
ATOM     26  C   UNL     1      32.980  -6.575 -24.142  0.00  0.00    -0.000 C 
ATOM     27  C   UNL     1      32.083  -5.647 -24.670  0.00  0.00    -0.000 C 
ATOM     28  C   UNL     1      34.233  -6.749 -24.732  0.00  0.00    -0.000 C 
ATOM     29  C   UNL     1      32.438  -4.892 -25.788  0.00  0.00    -0.000 C 
ATOM     30  C   UNL     1      34.586  -5.995 -25.851  0.00  0.00    -0.000 C 
ATOM     31  C   UNL     1      33.689  -5.066 -26.378  0.00  0.00    +0.000 C 
ENDBRANCH  23  26
ENDBRANCH  19  20
ENDBRANCH   1  19
TORSDOF 4
ENDMDL
MODEL 6
REMARK VINA RESULT:     -11.1      6.224     13.956
REMARK  Name = 208951
REMARK  4 active torsions:
REMARK  status: ('A' for Active; 'I' for Inactive)
REMARK    1  A    between atoms: N_1  and  C_19
REMARK    2  A    between atoms: N_2  and  C_11
REMARK    3  A    between atoms: C_19  and  C_20
REMARK    4  A    between atoms: C_23  and  C_26
REMARK                            x       y       z     vdW  Elec       q    Type
REMARK                         _______ _______ _______ _____ _____    ______ ____
ROOT
ATOM      1  N   UNL     1      32.760  -9.495 -23.035  0.00  0.00    +0.392 N 
ATOM      2  N   UNL     1      33.304 -12.221 -23.695  0.00  0.00    -0.309 N 
ATOM      3  C   UNL     1      32.346 -10.576 -22.132  0.00  0.00    -0.055 C 
ATOM      4  C   UNL     1      34.012  -9.860 -23.709  0.00  0.00    -0.055 C 
ATOM      5  C   UNL     1      32.120 -11.880 -22.900  0.00  0.00    +0.068 C 
ATOM      6  C   UNL     1      33.840 -11.140 -24.531  0.00  0.00    +0.068 C 
ATOM      7  H   UNL     1      32.034  -9.359 -23.739  0.00  0.00    -0.079 HD
ENDROOT
BRANCH   2  11
ATOM      8  O   UNL     1      34.282 -14.372 -21.937  0.00  0.00    -0.406 OA
ATOM      9  O   UNL     1      35.058 -15.936 -20.419  0.00  0.00    -0.223 OA
ATOM     10  N   UNL     1      34.604 -16.542 -22.623  0.00  0.00    -0.287 N 
ATOM     11  C   UNL     1      33.498 -13.540 -24.121  0.00  0.00    +0.084 C 
ATOM     12  C   UNL     1      33.961 -14.540 -23.274  0.00  0.00    +0.179 A 
ATOM     13  C   UNL     1      33.231 -13.935 -25.448  0.00  0.00    +0.018 C 
ATOM     14  C   UNL     1      34.147 -15.835 -23.705  0.00  0.00    +0.098 A 
ATOM     15  C   UNL     1      33.426 -15.263 -25.878  0.00  0.00    +0.003 C 
ATOM     16  C   UNL     1      33.893 -16.240 -24.995  0.00  0.00    +0.020 C 
ATOM     17  C   UNL     1      34.688 -15.664 -21.555  0.00  0.00    +0.419 A 
ATOM     18  H   UNL     1      34.832 -17.498 -22.609  0.00  0.00    +0.172 HD
ENDBRANCH   2  11
BRANCH   1  19
ATOM     19  C   UNL     1      32.920  -8.243 -22.298  0.00  0.00    -0.050 C 
BRANCH  19  20
ATOM     20  C   UNL     1      32.416  -7.074 -23.099  0.00  0.00    -0.043 C 
ATOM     21  C   UNL     1      33.129  -6.650 -24.214  0.00  0.00    -0.006 C 
ATOM     22  C   UNL     1      31.246  -6.434 -22.715  0.00  0.00    -0.006 C 
ATOM     23  C   UNL     1      32.660  -5.567 -24.957  0.00  0.00    -0.000 C 
ATOM     24  C   UNL     1      30.778  -5.351 -23.457  0.00  0.00    -0.000 C 
ATOM     25  C   UNL     1      31.485  -4.917 -24.578  0.00  0.00    -0.000 C 
BRANCH  23  26
ATOM     26  C   UNL     1      33.392  -5.117 -26.121  0.00  0.00    -0.000 C 
ATOM     27  C   UNL     1      32.756  -4.340 -27.089  0.00  0.00    -0.000 C 
ATOM     28  C   UNL     1      34.736  -5.460 -26.276  0.00  0.00    -0.000 C 
ATOM     29  C   UNL     1      33.462  -3.906 -28.211  0.00  0.00    -0.000 C 
ATOM     30  C   UNL     1      35.441  -5.027 -27.398  0.00  0.00    -0.000 C 
ATOM     31  C   UNL     1      34.804  -4.249 -28.365  0.00  0.00    +0.000 C 
ENDBRANCH  23  26
ENDBRANCH  19  20
ENDBRANCH   1  19
TORSDOF 4
ENDMDL
MODEL 7
REMARK VINA RESULT:     -11.1      3.535     10.889
REMARK  Name = 208951
REMARK  4 active torsions:
REMARK  status: ('A' for Active; 'I' for Inactive)
REMARK    1  A    between atoms: N_1  and  C_19
REMARK    2  A    between atoms: N_2  and  C_11
REMARK    3  A    between atoms: C_19  and  C_20
REMARK    4  A    between atoms: C_23  and  C_26
REMARK                            x       y       z     vdW  Elec       q    Type
REMARK                         _______ _______ _______ _____ _____    ______ ____
ROOT
ATOM      1  N   UNL     1      33.671 -14.424 -23.035  0.00  0.00    +0.392 N 
ATOM      2  N   UNL     1      34.761 -16.894 -22.101  0.00  0.00    -0.309 N 
ATOM      3  C   UNL     1      33.799 -15.570 -23.942  0.00  0.00    -0.055 C 
ATOM      4  C   UNL     1      33.386 -14.893 -21.674  0.00  0.00    -0.055 C 
ATOM      5  C   UNL     1      34.934 -16.498 -23.502  0.00  0.00    +0.068 C 
ATOM      6  C   UNL     1      34.508 -15.797 -21.157  0.00  0.00    +0.068 C 
ATOM      7  H   UNL     1      34.553 -13.910 -23.027  0.00  0.00    -0.079 HD
ENDROOT
BRANCH   2  11
ATOM      8  O   UNL     1      33.365 -19.057 -20.671  0.00  0.00    -0.406 OA
ATOM      9  O   UNL     1      32.112 -20.660 -19.569  0.00  0.00    -0.223 OA
ATOM     10  N   UNL     1      34.405 -20.947 -19.875  0.00  0.00    -0.287 N 
ATOM     11  C   UNL     1      35.402 -18.041 -21.618  0.00  0.00    +0.084 C 
ATOM     12  C   UNL     1      34.724 -19.050 -20.946  0.00  0.00    +0.179 A 
ATOM     13  C   UNL     1      36.786 -18.241 -21.790  0.00  0.00    +0.018 C 
ATOM     14  C   UNL     1      35.365 -20.175 -20.477  0.00  0.00    +0.098 A 
ATOM     15  C   UNL     1      37.432 -19.396 -21.305  0.00  0.00    +0.003 C 
ATOM     16  C   UNL     1      36.715 -20.389 -20.634  0.00  0.00    +0.020 C 
ATOM     17  C   UNL     1      33.198 -20.277 -19.989  0.00  0.00    +0.419 A 
ATOM     18  H   UNL     1      34.548 -21.818 -19.441  0.00  0.00    +0.172 HD
ENDBRANCH   2  11
BRANCH   1  19
ATOM     19  C   UNL     1      32.620 -13.518 -23.496  0.00  0.00    -0.050 C 
BRANCH  19  20
ATOM     20  C   UNL     1      33.166 -12.140 -23.753  0.00  0.00    -0.043 C 
ATOM     21  C   UNL     1      32.742 -11.078 -22.966  0.00  0.00    -0.006 C 
ATOM     22  C   UNL     1      34.088 -11.948 -24.774  0.00  0.00    -0.006 C 
ATOM     23  C   UNL     1      33.249  -9.800 -23.204  0.00  0.00    -0.000 C 
ATOM     24  C   UNL     1      34.595 -10.672 -25.012  0.00  0.00    -0.000 C 
ATOM     25  C   UNL     1      34.175  -9.597 -24.228  0.00  0.00    -0.000 C 
BRANCH  23  26
ATOM     26  C   UNL     1      32.816  -8.686 -22.389  0.00  0.00    -0.000 C 
ATOM     27  C   UNL     1      32.774  -7.401 -22.930  0.00  0.00    -0.000 C 
ATOM     28  C   UNL     1      32.438  -8.897 -21.062  0.00  0.00    -0.000 C 
ATOM     29  C   UNL     1      32.356  -6.327 -22.145  0.00  0.00    -0.000 C 
ATOM     30  C   UNL     1      32.021  -7.823 -20.278  0.00  0.00    -0.000 C 
ATOM     31  C   UNL     1      31.979  -6.538 -20.819  0.00  0.00    +0.000 C 
ENDBRANCH  23  26
ENDBRANCH  19  20
ENDBRANCH   1  19
TORSDOF 4
ENDMDL
MODEL 8
REMARK VINA RESULT:     -11.0      1.670      2.622
REMARK  Name = 208951
REMARK  4 active torsions:
REMARK  status: ('A' for Active; 'I' for Inactive)
REMARK    1  A    between atoms: N_1  and  C_19
REMARK    2  A    between atoms: N_2  and  C_11
REMARK    3  A    between atoms: C_19  and  C_20
REMARK    4  A    between atoms: C_23  and  C_26
REMARK                            x       y       z     vdW  Elec       q    Type
REMARK                         _______ _______ _______ _____ _____    ______ ____
ROOT
ATOM      1  N   UNL     1      35.529 -20.611 -19.976  0.00  0.00    +0.392 N 
ATOM      2  N   UNL     1      34.848 -18.541 -21.823  0.00  0.00    -0.309 N 
ATOM      3  C   UNL     1      34.350 -20.744 -20.840  0.00  0.00    -0.055 C 
ATOM      4  C   UNL     1      36.581 -19.868 -20.679  0.00  0.00    -0.055 C 
ATOM      5  C   UNL     1      33.795 -19.371 -21.229  0.00  0.00    +0.068 C 
ATOM      6  C   UNL     1      36.102 -18.466 -21.062  0.00  0.00    +0.068 C 
ATOM      7  H   UNL     1      35.265 -20.094 -19.136  0.00  0.00    -0.079 HD
ENDROOT
BRANCH   2  11
ATOM      8  O   UNL     1      33.518 -16.121 -20.798  0.00  0.00    -0.406 OA
ATOM      9  O   UNL     1      32.477 -14.299 -19.824  0.00  0.00    -0.223 OA
ATOM     10  N   UNL     1      32.945 -14.321 -22.108  0.00  0.00    -0.287 N 
ATOM     11  C   UNL     1      34.502 -17.449 -22.627  0.00  0.00    +0.084 C 
ATOM     12  C   UNL     1      33.875 -16.317 -22.123  0.00  0.00    +0.179 A 
ATOM     13  C   UNL     1      34.774 -17.435 -24.010  0.00  0.00    +0.018 C 
ATOM     14  C   UNL     1      33.539 -15.247 -22.925  0.00  0.00    +0.098 A 
ATOM     15  C   UNL     1      34.425 -16.335 -24.821  0.00  0.00    +0.003 C 
ATOM     16  C   UNL     1      33.796 -15.215 -24.276  0.00  0.00    +0.020 C 
ATOM     17  C   UNL     1      32.930 -14.843 -20.824  0.00  0.00    +0.419 A 
ATOM     18  H   UNL     1      32.594 -13.445 -22.383  0.00  0.00    +0.172 HD
ENDBRANCH   2  11
BRANCH   1  19
ATOM     19  C   UNL     1      36.015 -21.928 -19.567  0.00  0.00    -0.050 C 
BRANCH  19  20
ATOM     20  C   UNL     1      35.843 -22.134 -18.087  0.00  0.00    -0.043 C 
ATOM     21  C   UNL     1      34.657 -22.673 -17.605  0.00  0.00    -0.006 C 
ATOM     22  C   UNL     1      36.871 -21.784 -17.222  0.00  0.00    -0.006 C 
ATOM     23  C   UNL     1      34.498 -22.865 -16.232  0.00  0.00    -0.000 C 
ATOM     24  C   UNL     1      36.712 -21.976 -15.851  0.00  0.00    -0.000 C 
ATOM     25  C   UNL     1      35.525 -22.516 -15.355  0.00  0.00    -0.000 C 
BRANCH  23  26
ATOM     26  C   UNL     1      33.268 -23.427 -15.718  0.00  0.00    -0.000 C 
ATOM     27  C   UNL     1      33.270 -24.121 -14.508  0.00  0.00    -0.000 C 
ATOM     28  C   UNL     1      32.078 -23.274 -16.432  0.00  0.00    -0.000 C 
ATOM     29  C   UNL     1      32.084 -24.662 -14.012  0.00  0.00    -0.000 C 
ATOM     30  C   UNL     1      30.893 -23.816 -15.936  0.00  0.00    -0.000 C 
ATOM     31  C   UNL     1      30.896 -24.509 -14.726  0.00  0.00    +0.000 C 
ENDBRANCH  23  26
ENDBRANCH  19  20
ENDBRANCH   1  19
TORSDOF 4
ENDMDL
MODEL 9
REMARK VINA RESULT:     -11.0      5.132     11.795
REMARK  Name = 208951
REMARK  4 active torsions:
REMARK  status: ('A' for Active; 'I' for Inactive)
REMARK    1  A    between atoms: N_1  and  C_19
REMARK    2  A    between atoms: N_2  and  C_11
REMARK    3  A    between atoms: C_19  and  C_20
REMARK    4  A    between atoms: C_23  and  C_26
REMARK                            x       y       z     vdW  Elec       q    Type
REMARK                         _______ _______ _______ _____ _____    ______ ____
ROOT
ATOM      1  N   UNL     1      32.253 -12.190 -21.476  0.00  0.00    +0.392 N 
ATOM      2  N   UNL     1      33.176 -14.458 -22.946  0.00  0.00    -0.309 N 
ATOM      3  C   UNL     1      32.019 -12.284 -22.922  0.00  0.00    -0.055 C 
ATOM      4  C   UNL     1      32.214 -13.528 -20.875  0.00  0.00    -0.055 C 
ATOM      5  C   UNL     1      33.087 -13.147 -23.597  0.00  0.00    +0.068 C 
ATOM      6  C   UNL     1      33.290 -14.434 -21.482  0.00  0.00    +0.068 C 
ATOM      7  H   UNL     1      33.176 -11.784 -21.317  0.00  0.00    -0.079 HD
ENDROOT
BRANCH   2  11
ATOM      8  O   UNL     1      34.691 -16.609 -21.622  0.00  0.00    -0.406 OA
ATOM      9  O   UNL     1      35.849 -18.211 -20.421  0.00  0.00    -0.223 OA
ATOM     10  N   UNL     1      35.630 -18.387 -22.735  0.00  0.00    -0.287 N 
ATOM     11  C   UNL     1      33.746 -15.537 -23.631  0.00  0.00    +0.084 C 
ATOM     12  C   UNL     1      34.457 -16.542 -22.986  0.00  0.00    +0.179 A 
ATOM     13  C   UNL     1      33.628 -15.670 -25.030  0.00  0.00    +0.018 C 
ATOM     14  C   UNL     1      35.012 -17.600 -23.671  0.00  0.00    +0.098 A 
ATOM     15  C   UNL     1      34.202 -16.757 -25.720  0.00  0.00    +0.003 C 
ATOM     16  C   UNL     1      34.909 -17.747 -25.036  0.00  0.00    +0.020 C 
ATOM     17  C   UNL     1      35.439 -17.794 -21.498  0.00  0.00    +0.419 A 
ATOM     18  H   UNL     1      36.120 -19.222 -22.909  0.00  0.00    +0.172 HD
ENDBRANCH   2  11
BRANCH   1  19
ATOM     19  C   UNL     1      31.259 -11.318 -20.851  0.00  0.00    -0.050 C 
BRANCH  19  20
ATOM     20  C   UNL     1      31.747  -9.896 -20.789  0.00  0.00    -0.043 C 
ATOM     21  C   UNL     1      32.132  -9.254 -21.959  0.00  0.00    -0.006 C 
ATOM     22  C   UNL     1      31.803  -9.245 -19.565  0.00  0.00    -0.006 C 
ATOM     23  C   UNL     1      32.583  -7.935 -21.901  0.00  0.00    -0.000 C 
ATOM     24  C   UNL     1      32.254  -7.927 -19.507  0.00  0.00    -0.000 C 
ATOM     25  C   UNL     1      32.645  -7.272 -20.675  0.00  0.00    -0.000 C 
BRANCH  23  26
ATOM     26  C   UNL     1      32.987  -7.254 -23.112  0.00  0.00    -0.000 C 
ATOM     27  C   UNL     1      34.288  -7.398 -23.593  0.00  0.00    -0.000 C 
ATOM     28  C   UNL     1      32.073  -6.454 -23.800  0.00  0.00    -0.000 C 
ATOM     29  C   UNL     1      34.676  -6.743 -24.762  0.00  0.00    -0.000 C 
ATOM     30  C   UNL     1      32.463  -5.798 -24.967  0.00  0.00    -0.000 C 
ATOM     31  C   UNL     1      33.764  -5.943 -25.449  0.00  0.00    +0.000 C 
ENDBRANCH  23  26
ENDBRANCH  19  20
ENDBRANCH   1  19
TORSDOF 4
ENDMDL
