MODEL 1
REMARK VINA RESULT:      -7.6      0.000      0.000
REMARK  Name = 4619
REMARK  13 active torsions:
REMARK  status: ('A' for Active; 'I' for Inactive)
REMARK    1  A    between atoms: C_2  and  O_3
REMARK    2  A    between atoms: C_2  and  C_15
REMARK    3  A    between atoms: O_3  and  C_4
REMARK    4  A    between atoms: C_4  and  C_5
REMARK    5  A    between atoms: C_5  and  O_6
REMARK    6  A    between atoms: O_6  and  C_7
REMARK    7  A    between atoms: C_7  and  C_8
REMARK    8  A    between atoms: C_8  and  N_9
REMARK    9  A    between atoms: N_9  and  C_11
REMARK   10  A    between atoms: N_9  and  C_13
REMARK   11  A    between atoms: C_15  and  C_16
REMARK   12  A    between atoms: C_15  and  C_22
REMARK   13  A    between atoms: C_15  and  C_24
REMARK                            x       y       z     vdW  Elec       q    Type
REMARK                         _______ _______ _______ _____ _____    ______ ____
ROOT
ATOM      1  O   UNL     1      34.710  -7.766 -22.842  0.00  0.00    -0.250 OA
ATOM      2  C   UNL     1      33.650  -8.335 -23.074  0.00  0.00    +0.320 C 
ENDROOT
BRANCH   2   3
ATOM      3  O   UNL     1      33.485  -9.351 -23.976  0.00  0.00    -0.446 OA
BRANCH   3   4
ATOM      4  C   UNL     1      34.680 -10.040 -24.357  0.00  0.00    +0.240 C 
BRANCH   4   5
ATOM      5  C   UNL     1      34.304 -11.347 -25.029  0.00  0.00    +0.189 C 
BRANCH   5   6
ATOM      6  O   UNL     1      33.354 -12.029 -24.220  0.00  0.00    -0.352 OA
BRANCH   6   7
ATOM      7  C   UNL     1      33.536 -13.436 -24.277  0.00  0.00    +0.120 C 
BRANCH   7   8
ATOM      8  C   UNL     1      33.904 -13.938 -22.890  0.00  0.00    -0.045 C 
BRANCH   8   9
ATOM      9  N   UNL     1      33.774 -15.385 -22.816  0.00  0.00    +0.389 N 
ATOM     10  H   UNL     1      33.021 -15.668 -23.443  0.00  0.00    -0.080 HD
BRANCH   9  11
ATOM     11  C   UNL     1      33.429 -15.805 -21.455  0.00  0.00    -0.077 C 
ATOM     12  C   UNL     1      32.903 -14.638 -20.636  0.00  0.00    -0.025 C 
ENDBRANCH   9  11
BRANCH   9  13
ATOM     13  C   UNL     1      35.012 -16.040 -23.248  0.00  0.00    -0.077 C 
ATOM     14  C   UNL     1      34.749 -17.006 -24.392  0.00  0.00    -0.025 C 
ENDBRANCH   9  13
ENDBRANCH   8   9
ENDBRANCH   7   8
ENDBRANCH   6   7
ENDBRANCH   5   6
ENDBRANCH   4   5
ENDBRANCH   3   4
ENDBRANCH   2   3
BRANCH   2  15
ATOM     15  C   UNL     1      32.308  -8.010 -22.376  0.00  0.00    +0.108 C 
BRANCH  15  16
ATOM     16  C   UNL     1      31.957  -9.179 -21.427  0.00  0.00    -0.013 C 
ATOM     17  C   UNL     1      32.261  -9.091 -20.068  0.00  0.00    -0.004 C 
ATOM     18  C   UNL     1      31.337 -10.324 -21.928  0.00  0.00    -0.004 C 
ATOM     19  C   UNL     1      31.945 -10.146 -19.212  0.00  0.00    -0.000 C 
ATOM     20  C   UNL     1      31.021 -11.379 -21.073  0.00  0.00    -0.000 C 
ATOM     21  C   UNL     1      31.325 -11.289 -19.714  0.00  0.00    -0.000 C 
ENDBRANCH  15  16
BRANCH  15  22
ATOM     22  C   UNL     1      31.197  -7.897 -23.471  0.00  0.00    +0.015 C 
ATOM     23  C   UNL     1      31.340  -6.718 -24.429  0.00  0.00    +0.001 C 
ENDBRANCH  15  22
BRANCH  15  24
ATOM     24  C   UNL     1      32.505  -6.643 -21.641  0.00  0.00    +0.015 C 
ATOM     25  C   UNL     1      31.222  -5.905 -21.266  0.00  0.00    +0.001 C 
ENDBRANCH  15  24
ENDBRANCH   2  15
TORSDOF 13
ENDMDL
MODEL 2
REMARK VINA RESULT:      -7.6      0.561      1.809
REMARK  Name = 4619
REMARK  13 active torsions:
REMARK  status: ('A' for Active; 'I' for Inactive)
REMARK    1  A    between atoms: C_2  and  O_3
REMARK    2  A    between atoms: C_2  and  C_15
REMARK    3  A    between atoms: O_3  and  C_4
REMARK    4  A    between atoms: C_4  and  C_5
REMARK    5  A    between atoms: C_5  and  O_6
REMARK    6  A    between atoms: O_6  and  C_7
REMARK    7  A    between atoms: C_7  and  C_8
REMARK    8  A    between atoms: C_8  and  N_9
REMARK    9  A    between atoms: N_9  and  C_11
REMARK   10  A    between atoms: N_9  and  C_13
REMARK   11  A    between atoms: C_15  and  C_16
REMARK   12  A    between atoms: C_15  and  C_22
REMARK   13  A    between atoms: C_15  and  C_24
REMARK                            x       y       z     vdW  Elec       q    Type
REMARK                         _______ _______ _______ _____ _____    ______ ____
ROOT
ATOM      1  O   UNL     1      34.675  -7.773 -22.835  0.00  0.00    -0.250 OA
ATOM      2  C   UNL     1      33.603  -8.299 -23.108  0.00  0.00    +0.320 C 
ENDROOT
BRANCH   2   3
ATOM      3  O   UNL     1      33.422  -9.266 -24.060  0.00  0.00    -0.446 OA
BRANCH   3   4
ATOM      4  C   UNL     1      34.386 -10.324 -24.057  0.00  0.00    +0.240 C 
BRANCH   4   5
ATOM      5  C   UNL     1      34.048 -11.304 -25.165  0.00  0.00    +0.189 C 
BRANCH   5   6
ATOM      6  O   UNL     1      34.093 -12.627 -24.645  0.00  0.00    -0.352 OA
BRANCH   6   7
ATOM      7  C   UNL     1      33.280 -12.760 -23.489  0.00  0.00    +0.120 C 
BRANCH   7   8
ATOM      8  C   UNL     1      33.221 -14.228 -23.099  0.00  0.00    -0.045 C 
BRANCH   8   9
ATOM      9  N   UNL     1      34.469 -14.647 -22.483  0.00  0.00    +0.389 N 
ATOM     10  H   UNL     1      35.166 -13.921 -22.654  0.00  0.00    -0.080 HD
BRANCH   9  11
ATOM     11  C   UNL     1      34.946 -15.899 -23.077  0.00  0.00    -0.077 C 
ATOM     12  C   UNL     1      34.128 -16.273 -24.302  0.00  0.00    -0.025 C 
ENDBRANCH   9  11
BRANCH   9  13
ATOM     13  C   UNL     1      34.307 -14.805 -21.035  0.00  0.00    -0.077 C 
ATOM     14  C   UNL     1      32.851 -15.041 -20.670  0.00  0.00    -0.025 C 
ENDBRANCH   9  13
ENDBRANCH   8   9
ENDBRANCH   7   8
ENDBRANCH   6   7
ENDBRANCH   5   6
ENDBRANCH   4   5
ENDBRANCH   3   4
ENDBRANCH   2   3
BRANCH   2  15
ATOM     15  C   UNL     1      32.261  -7.968 -22.413  0.00  0.00    +0.108 C 
BRANCH  15  16
ATOM     16  C   UNL     1      31.931  -9.109 -21.422  0.00  0.00    -0.013 C 
ATOM     17  C   UNL     1      31.259 -10.248 -21.868  0.00  0.00    -0.004 C 
ATOM     18  C   UNL     1      32.305  -9.001 -20.083  0.00  0.00    -0.004 C 
ATOM     19  C   UNL     1      30.961 -11.276 -20.974  0.00  0.00    -0.000 C 
ATOM     20  C   UNL     1      32.008 -10.029 -19.189  0.00  0.00    -0.000 C 
ATOM     21  C   UNL     1      31.336 -11.168 -19.635  0.00  0.00    -0.000 C 
ENDBRANCH  15  16
BRANCH  15  22
ATOM     22  C   UNL     1      31.141  -7.909 -23.504  0.00  0.00    +0.015 C 
ATOM     23  C   UNL     1      31.206  -6.707 -24.442  0.00  0.00    +0.001 C 
ENDBRANCH  15  22
BRANCH  15  24
ATOM     24  C   UNL     1      32.442  -6.575 -21.727  0.00  0.00    +0.015 C 
ATOM     25  C   UNL     1      31.160  -5.911 -21.230  0.00  0.00    +0.001 C 
ENDBRANCH  15  24
ENDBRANCH   2  15
TORSDOF 13
ENDMDL
MODEL 3
REMARK VINA RESULT:      -7.6      1.413      2.445
REMARK  Name = 4619
REMARK  13 active torsions:
REMARK  status: ('A' for Active; 'I' for Inactive)
REMARK    1  A    between atoms: C_2  and  O_3
REMARK    2  A    between atoms: C_2  and  C_15
REMARK    3  A    between atoms: O_3  and  C_4
REMARK    4  A    between atoms: C_4  and  C_5
REMARK    5  A    between atoms: C_5  and  O_6
REMARK    6  A    between atoms: O_6  and  C_7
REMARK    7  A    between atoms: C_7  and  C_8
REMARK    8  A    between atoms: C_8  and  N_9
REMARK    9  A    between atoms: N_9  and  C_11
REMARK   10  A    between atoms: N_9  and  C_13
REMARK   11  A    between atoms: C_15  and  C_16
REMARK   12  A    between atoms: C_15  and  C_22
REMARK   13  A    between atoms: C_15  and  C_24
REMARK                            x       y       z     vdW  Elec       q    Type
REMARK                         _______ _______ _______ _____ _____    ______ ____
ROOT
ATOM      1  O   UNL     1      34.957  -9.593 -23.736  0.00  0.00    -0.250 OA
ATOM      2  C   UNL     1      33.740  -9.726 -23.755  0.00  0.00    +0.320 C 
ENDROOT
BRANCH   2   3
ATOM      3  O   UNL     1      33.072 -10.758 -24.356  0.00  0.00    -0.446 OA
BRANCH   3   4
ATOM      4  C   UNL     1      33.883 -11.862 -24.771  0.00  0.00    +0.240 C 
BRANCH   4   5
ATOM      5  C   UNL     1      33.779 -12.969 -23.738  0.00  0.00    +0.189 C 
BRANCH   5   6
ATOM      6  O   UNL     1      32.892 -13.971 -24.220  0.00  0.00    -0.352 OA
BRANCH   6   7
ATOM      7  C   UNL     1      33.580 -15.180 -24.508  0.00  0.00    +0.120 C 
BRANCH   7   8
ATOM      8  C   UNL     1      34.537 -15.483 -23.367  0.00  0.00    -0.045 C 
BRANCH   8   9
ATOM      9  N   UNL     1      35.361 -16.639 -23.680  0.00  0.00    +0.389 N 
ATOM     10  H   UNL     1      36.287 -16.304 -23.949  0.00  0.00    -0.080 HD
BRANCH   9  11
ATOM     11  C   UNL     1      34.794 -17.391 -24.802  0.00  0.00    -0.077 C 
ATOM     12  C   UNL     1      34.640 -18.863 -24.456  0.00  0.00    -0.025 C 
ENDBRANCH   9  11
BRANCH   9  13
ATOM     13  C   UNL     1      35.503 -17.508 -22.509  0.00  0.00    -0.077 C 
ATOM     14  C   UNL     1      34.902 -16.863 -21.271  0.00  0.00    -0.025 C 
ENDBRANCH   9  13
ENDBRANCH   8   9
ENDBRANCH   7   8
ENDBRANCH   6   7
ENDBRANCH   5   6
ENDBRANCH   4   5
ENDBRANCH   3   4
ENDBRANCH   2   3
BRANCH   2  15
ATOM     15  C   UNL     1      32.740  -8.752 -23.088  0.00  0.00    +0.108 C 
BRANCH  15  16
ATOM     16  C   UNL     1      32.178  -9.426 -21.814  0.00  0.00    -0.013 C 
ATOM     17  C   UNL     1      31.434 -10.603 -21.918  0.00  0.00    -0.004 C 
ATOM     18  C   UNL     1      32.414  -8.859 -20.562  0.00  0.00    -0.004 C 
ATOM     19  C   UNL     1      30.928 -11.210 -20.769  0.00  0.00    -0.000 C 
ATOM     20  C   UNL     1      31.907  -9.467 -19.414  0.00  0.00    -0.000 C 
ATOM     21  C   UNL     1      31.164 -10.643 -19.517  0.00  0.00    -0.000 C 
ENDBRANCH  15  16
BRANCH  15  22
ATOM     22  C   UNL     1      31.561  -8.495 -24.084  0.00  0.00    +0.015 C 
ATOM     23  C   UNL     1      30.734  -7.243 -23.809  0.00  0.00    +0.001 C 
ENDBRANCH  15  22
BRANCH  15  24
ATOM     24  C   UNL     1      33.524  -7.429 -22.803  0.00  0.00    +0.015 C 
ATOM     25  C   UNL     1      34.167  -6.768 -24.020  0.00  0.00    +0.001 C 
ENDBRANCH  15  24
ENDBRANCH   2  15
TORSDOF 13
ENDMDL
MODEL 4
REMARK VINA RESULT:      -7.5      3.302      8.556
REMARK  Name = 4619
REMARK  13 active torsions:
REMARK  status: ('A' for Active; 'I' for Inactive)
REMARK    1  A    between atoms: C_2  and  O_3
REMARK    2  A    between atoms: C_2  and  C_15
REMARK    3  A    between atoms: O_3  and  C_4
REMARK    4  A    between atoms: C_4  and  C_5
REMARK    5  A    between atoms: C_5  and  O_6
REMARK    6  A    between atoms: O_6  and  C_7
REMARK    7  A    between atoms: C_7  and  C_8
REMARK    8  A    between atoms: C_8  and  N_9
REMARK    9  A    between atoms: N_9  and  C_11
REMARK   10  A    between atoms: N_9  and  C_13
REMARK   11  A    between atoms: C_15  and  C_16
REMARK   12  A    between atoms: C_15  and  C_22
REMARK   13  A    between atoms: C_15  and  C_24
REMARK                            x       y       z     vdW  Elec       q    Type
REMARK                         _______ _______ _______ _____ _____    ______ ____
ROOT
ATOM      1  O   UNL     1      35.207 -16.163 -20.128  0.00  0.00    -0.250 OA
ATOM      2  C   UNL     1      34.343 -16.820 -20.695  0.00  0.00    +0.320 C 
ENDROOT
BRANCH   2   3
ATOM      3  O   UNL     1      33.037 -16.436 -20.845  0.00  0.00    -0.446 OA
BRANCH   3   4
ATOM      4  C   UNL     1      32.768 -15.052 -20.605  0.00  0.00    +0.240 C 
BRANCH   4   5
ATOM      5  C   UNL     1      32.526 -14.357 -21.932  0.00  0.00    +0.189 C 
BRANCH   5   6
ATOM      6  O   UNL     1      32.050 -13.040 -21.687  0.00  0.00    -0.352 OA
BRANCH   6   7
ATOM      7  C   UNL     1      32.395 -12.156 -22.743  0.00  0.00    +0.120 C 
BRANCH   7   8
ATOM      8  C   UNL     1      33.402 -12.846 -23.649  0.00  0.00    -0.045 C 
BRANCH   8   9
ATOM      9  N   UNL     1      34.119 -11.872 -24.457  0.00  0.00    +0.389 N 
ATOM     10  H   UNL     1      35.119 -12.021 -24.316  0.00  0.00    -0.080 HD
BRANCH   9  11
ATOM     11  C   UNL     1      33.788 -10.508 -24.039  0.00  0.00    -0.077 C 
ATOM     12  C   UNL     1      34.934  -9.552 -24.326  0.00  0.00    -0.025 C 
ENDBRANCH   9  11
BRANCH   9  13
ATOM     13  C   UNL     1      33.817 -12.053 -25.879  0.00  0.00    -0.077 C 
ATOM     14  C   UNL     1      33.295 -13.453 -26.155  0.00  0.00    -0.025 C 
ENDBRANCH   9  13
ENDBRANCH   8   9
ENDBRANCH   7   8
ENDBRANCH   6   7
ENDBRANCH   5   6
ENDBRANCH   4   5
ENDBRANCH   3   4
ENDBRANCH   2   3
BRANCH   2  15
ATOM     15  C   UNL     1      34.579 -18.200 -21.353  0.00  0.00    +0.108 C 
BRANCH  15  16
ATOM     16  C   UNL     1      34.582 -18.013 -22.888  0.00  0.00    -0.013 C 
ATOM     17  C   UNL     1      34.805 -16.749 -23.437  0.00  0.00    -0.004 C 
ATOM     18  C   UNL     1      34.361 -19.106 -23.726  0.00  0.00    -0.004 C 
ATOM     19  C   UNL     1      34.807 -16.580 -24.821  0.00  0.00    -0.000 C 
ATOM     20  C   UNL     1      34.363 -18.937 -25.110  0.00  0.00    -0.000 C 
ATOM     21  C   UNL     1      34.586 -17.673 -25.658  0.00  0.00    -0.000 C 
ENDBRANCH  15  16
BRANCH  15  22
ATOM     22  C   UNL     1      33.394 -19.143 -20.962  0.00  0.00    +0.015 C 
ATOM     23  C   UNL     1      33.795 -20.444 -20.273  0.00  0.00    +0.001 C 
ENDBRANCH  15  22
BRANCH  15  24
ATOM     24  C   UNL     1      35.931 -18.742 -20.785  0.00  0.00    +0.015 C 
ATOM     25  C   UNL     1      37.099 -18.763 -21.768  0.00  0.00    +0.001 C 
ENDBRANCH  15  24
ENDBRANCH   2  15
TORSDOF 13
ENDMDL
MODEL 5
REMARK VINA RESULT:      -7.5      3.243      8.182
REMARK  Name = 4619
REMARK  13 active torsions:
REMARK  status: ('A' for Active; 'I' for Inactive)
REMARK    1  A    between atoms: C_2  and  O_3
REMARK    2  A    between atoms: C_2  and  C_15
REMARK    3  A    between atoms: O_3  and  C_4
REMARK    4  A    between atoms: C_4  and  C_5
REMARK    5  A    between atoms: C_5  and  O_6
REMARK    6  A    between atoms: O_6  and  C_7
REMARK    7  A    between atoms: C_7  and  C_8
REMARK    8  A    between atoms: C_8  and  N_9
REMARK    9  A    between atoms: N_9  and  C_11
REMARK   10  A    between atoms: N_9  and  C_13
REMARK   11  A    between atoms: C_15  and  C_16
REMARK   12  A    between atoms: C_15  and  C_22
REMARK   13  A    between atoms: C_15  and  C_24
REMARK                            x       y       z     vdW  Elec       q    Type
REMARK                         _______ _______ _______ _____ _____    ______ ____
ROOT
ATOM      1  O   UNL     1      34.911 -19.526 -23.834  0.00  0.00    -0.250 OA
ATOM      2  C   UNL     1      34.690 -18.521 -23.168  0.00  0.00    +0.320 C 
ENDROOT
BRANCH   2   3
ATOM      3  O   UNL     1      34.549 -17.258 -23.677  0.00  0.00    -0.446 OA
BRANCH   3   4
ATOM      4  C   UNL     1      34.498 -17.168 -25.104  0.00  0.00    +0.240 C 
BRANCH   4   5
ATOM      5  C   UNL     1      33.794 -15.882 -25.494  0.00  0.00    +0.189 C 
BRANCH   5   6
ATOM      6  O   UNL     1      33.804 -14.992 -24.385  0.00  0.00    -0.352 OA
BRANCH   6   7
ATOM      7  C   UNL     1      33.339 -13.700 -24.748  0.00  0.00    +0.120 C 
BRANCH   7   8
ATOM      8  C   UNL     1      33.555 -12.755 -23.578  0.00  0.00    -0.045 C 
BRANCH   8   9
ATOM      9  N   UNL     1      34.098 -11.486 -24.034  0.00  0.00    +0.389 N 
ATOM     10  H   UNL     1      35.035 -11.384 -23.643  0.00  0.00    -0.080 HD
BRANCH   9  11
ATOM     11  C   UNL     1      33.273 -10.370 -23.565  0.00  0.00    -0.077 C 
ATOM     12  C   UNL     1      32.212 -10.844 -22.586  0.00  0.00    -0.025 C 
ENDBRANCH   9  11
BRANCH   9  13
ATOM     13  C   UNL     1      34.199 -11.460 -25.496  0.00  0.00    -0.077 C 
ATOM     14  C   UNL     1      35.319 -10.541 -25.952  0.00  0.00    -0.025 C 
ENDBRANCH   9  13
ENDBRANCH   8   9
ENDBRANCH   7   8
ENDBRANCH   6   7
ENDBRANCH   5   6
ENDBRANCH   4   5
ENDBRANCH   3   4
ENDBRANCH   2   3
BRANCH   2  15
ATOM     15  C   UNL     1      34.519 -18.506 -21.631  0.00  0.00    +0.108 C 
BRANCH  15  16
ATOM     16  C   UNL     1      33.997 -17.112 -21.212  0.00  0.00    -0.013 C 
ATOM     17  C   UNL     1      34.898 -16.077 -20.959  0.00  0.00    -0.004 C 
ATOM     18  C   UNL     1      32.626 -16.888 -21.087  0.00  0.00    -0.004 C 
ATOM     19  C   UNL     1      34.427 -14.820 -20.581  0.00  0.00    -0.000 C 
ATOM     20  C   UNL     1      32.155 -15.631 -20.709  0.00  0.00    -0.000 C 
ATOM     21  C   UNL     1      33.056 -14.597 -20.456  0.00  0.00    -0.000 C 
ENDBRANCH  15  16
BRANCH  15  22
ATOM     22  C   UNL     1      35.921 -18.738 -20.976  0.00  0.00    +0.015 C 
ATOM     23  C   UNL     1      37.102 -18.737 -21.942  0.00  0.00    +0.001 C 
ENDBRANCH  15  22
BRANCH  15  24
ATOM     24  C   UNL     1      33.541 -19.674 -21.278  0.00  0.00    +0.015 C 
ATOM     25  C   UNL     1      33.989 -20.589 -20.140  0.00  0.00    +0.001 C 
ENDBRANCH  15  24
ENDBRANCH   2  15
TORSDOF 13
ENDMDL
MODEL 6
REMARK VINA RESULT:      -7.4      3.983      9.069
REMARK  Name = 4619
REMARK  13 active torsions:
REMARK  status: ('A' for Active; 'I' for Inactive)
REMARK    1  A    between atoms: C_2  and  O_3
REMARK    2  A    between atoms: C_2  and  C_15
REMARK    3  A    between atoms: O_3  and  C_4
REMARK    4  A    between atoms: C_4  and  C_5
REMARK    5  A    between atoms: C_5  and  O_6
REMARK    6  A    between atoms: O_6  and  C_7
REMARK    7  A    between atoms: C_7  and  C_8
REMARK    8  A    between atoms: C_8  and  N_9
REMARK    9  A    between atoms: N_9  and  C_11
REMARK   10  A    between atoms: N_9  and  C_13
REMARK   11  A    between atoms: C_15  and  C_16
REMARK   12  A    between atoms: C_15  and  C_22
REMARK   13  A    between atoms: C_15  and  C_24
REMARK                            x       y       z     vdW  Elec       q    Type
REMARK                         _______ _______ _______ _____ _____    ______ ____
ROOT
ATOM      1  O   UNL     1      35.096 -20.135 -23.530  0.00  0.00    -0.250 OA
ATOM      2  C   UNL     1      34.722 -19.080 -23.033  0.00  0.00    +0.320 C 
ENDROOT
BRANCH   2   3
ATOM      3  O   UNL     1      34.076 -18.079 -23.708  0.00  0.00    -0.446 OA
BRANCH   3   4
ATOM      4  C   UNL     1      34.506 -17.865 -25.056  0.00  0.00    +0.240 C 
BRANCH   4   5
ATOM      5  C   UNL     1      34.855 -16.400 -25.237  0.00  0.00    +0.189 C 
BRANCH   5   6
ATOM      6  O   UNL     1      33.865 -15.783 -26.052  0.00  0.00    -0.352 OA
BRANCH   6   7
ATOM      7  C   UNL     1      33.212 -14.725 -25.367  0.00  0.00    +0.120 C 
BRANCH   7   8
ATOM      8  C   UNL     1      33.799 -14.610 -23.970  0.00  0.00    -0.045 C 
BRANCH   8   9
ATOM      9  N   UNL     1      33.632 -13.262 -23.450  0.00  0.00    +0.389 N 
ATOM     10  H   UNL     1      34.319 -13.121 -22.709  0.00  0.00    -0.080 HD
BRANCH   9  11
ATOM     11  C   UNL     1      32.292 -13.087 -22.883  0.00  0.00    -0.077 C 
ATOM     12  C   UNL     1      32.300 -13.303 -21.379  0.00  0.00    -0.025 C 
ENDBRANCH   9  11
BRANCH   9  13
ATOM     13  C   UNL     1      33.870 -12.268 -24.500  0.00  0.00    -0.077 C 
ATOM     14  C   UNL     1      33.527 -10.868 -24.018  0.00  0.00    -0.025 C 
ENDBRANCH   9  13
ENDBRANCH   8   9
ENDBRANCH   7   8
ENDBRANCH   6   7
ENDBRANCH   5   6
ENDBRANCH   4   5
ENDBRANCH   3   4
ENDBRANCH   2   3
BRANCH   2  15
ATOM     15  C   UNL     1      34.903 -18.698 -21.545  0.00  0.00    +0.108 C 
BRANCH  15  16
ATOM     16  C   UNL     1      34.478 -19.905 -20.676  0.00  0.00    -0.013 C 
ATOM     17  C   UNL     1      33.127 -20.126 -20.402  0.00  0.00    -0.004 C 
ATOM     18  C   UNL     1      35.443 -20.773 -20.167  0.00  0.00    -0.004 C 
ATOM     19  C   UNL     1      32.744 -21.214 -19.618  0.00  0.00    -0.000 C 
ATOM     20  C   UNL     1      35.060 -21.861 -19.383  0.00  0.00    -0.000 C 
ATOM     21  C   UNL     1      33.710 -22.082 -19.109  0.00  0.00    -0.000 C 
ENDBRANCH  15  16
BRANCH  15  22
ATOM     22  C   UNL     1      33.961 -17.491 -21.226  0.00  0.00    +0.015 C 
ATOM     23  C   UNL     1      34.667 -16.197 -20.832  0.00  0.00    +0.001 C 
ENDBRANCH  15  22
BRANCH  15  24
ATOM     24  C   UNL     1      36.403 -18.294 -21.366  0.00  0.00    +0.015 C 
ATOM     25  C   UNL     1      37.336 -18.701 -22.503  0.00  0.00    +0.001 C 
ENDBRANCH  15  24
ENDBRANCH   2  15
TORSDOF 13
ENDMDL
MODEL 7
REMARK VINA RESULT:      -7.3      3.662      9.075
REMARK  Name = 4619
REMARK  13 active torsions:
REMARK  status: ('A' for Active; 'I' for Inactive)
REMARK    1  A    between atoms: C_2  and  O_3
REMARK    2  A    between atoms: C_2  and  C_15
REMARK    3  A    between atoms: O_3  and  C_4
REMARK    4  A    between atoms: C_4  and  C_5
REMARK    5  A    between atoms: C_5  and  O_6
REMARK    6  A    between atoms: O_6  and  C_7
REMARK    7  A    between atoms: C_7  and  C_8
REMARK    8  A    between atoms: C_8  and  N_9
REMARK    9  A    between atoms: N_9  and  C_11
REMARK   10  A    between atoms: N_9  and  C_13
REMARK   11  A    between atoms: C_15  and  C_16
REMARK   12  A    between atoms: C_15  and  C_22
REMARK   13  A    between atoms: C_15  and  C_24
REMARK                            x       y       z     vdW  Elec       q    Type
REMARK                         _______ _______ _______ _____ _____    ______ ____
ROOT
ATOM      1  O   UNL     1      35.302 -16.737 -20.317  0.00  0.00    -0.250 OA
ATOM      2  C   UNL     1      34.736 -17.159 -21.318  0.00  0.00    +0.320 C 
ENDROOT
BRANCH   2   3
ATOM      3  O   UNL     1      33.774 -16.484 -22.019  0.00  0.00    -0.446 OA
BRANCH   3   4
ATOM      4  C   UNL     1      33.340 -15.248 -21.442  0.00  0.00    +0.240 C 
BRANCH   4   5
ATOM      5  C   UNL     1      33.846 -14.100 -22.294  0.00  0.00    +0.189 C 
BRANCH   5   6
ATOM      6  O   UNL     1      33.810 -14.485 -23.663  0.00  0.00    -0.352 OA
BRANCH   6   7
ATOM      7  C   UNL     1      33.617 -13.366 -24.515  0.00  0.00    +0.120 C 
BRANCH   7   8
ATOM      8  C   UNL     1      33.525 -12.112 -23.662  0.00  0.00    -0.045 C 
BRANCH   8   9
ATOM      9  N   UNL     1      34.391 -11.068 -24.187  0.00  0.00    +0.389 N 
ATOM     10  H   UNL     1      35.330 -11.219 -23.816  0.00  0.00    -0.080 HD
BRANCH   9  11
ATOM     11  C   UNL     1      33.929  -9.746 -23.757  0.00  0.00    -0.077 C 
ATOM     12  C   UNL     1      32.475  -9.788 -23.317  0.00  0.00    -0.025 C 
ENDBRANCH   9  11
BRANCH   9  13
ATOM     13  C   UNL     1      34.452 -11.131 -25.650  0.00  0.00    -0.077 C 
ATOM     14  C   UNL     1      35.628 -10.331 -26.184  0.00  0.00    -0.025 C 
ENDBRANCH   9  13
ENDBRANCH   8   9
ENDBRANCH   7   8
ENDBRANCH   6   7
ENDBRANCH   5   6
ENDBRANCH   4   5
ENDBRANCH   3   4
ENDBRANCH   2   3
BRANCH   2  15
ATOM     15  C   UNL     1      35.019 -18.531 -21.974  0.00  0.00    +0.108 C 
BRANCH  15  16
ATOM     16  C   UNL     1      34.523 -19.641 -21.018  0.00  0.00    -0.013 C 
ATOM     17  C   UNL     1      35.419 -20.594 -20.531  0.00  0.00    -0.004 C 
ATOM     18  C   UNL     1      33.181 -19.690 -20.641  0.00  0.00    -0.004 C 
ATOM     19  C   UNL     1      34.971 -21.595 -19.669  0.00  0.00    -0.000 C 
ATOM     20  C   UNL     1      32.734 -20.691 -19.779  0.00  0.00    -0.000 C 
ATOM     21  C   UNL     1      33.629 -21.644 -19.293  0.00  0.00    -0.000 C 
ENDBRANCH  15  16
BRANCH  15  22
ATOM     22  C   UNL     1      36.565 -18.680 -22.161  0.00  0.00    +0.015 C 
ATOM     23  C   UNL     1      37.337 -19.098 -20.913  0.00  0.00    +0.001 C 
ENDBRANCH  15  22
BRANCH  15  24
ATOM     24  C   UNL     1      34.290 -18.524 -23.358  0.00  0.00    +0.015 C 
ATOM     25  C   UNL     1      34.903 -19.421 -24.431  0.00  0.00    +0.001 C 
ENDBRANCH  15  24
ENDBRANCH   2  15
TORSDOF 13
ENDMDL
MODEL 8
REMARK VINA RESULT:      -7.2      3.579      9.132
REMARK  Name = 4619
REMARK  13 active torsions:
REMARK  status: ('A' for Active; 'I' for Inactive)
REMARK    1  A    between atoms: C_2  and  O_3
REMARK    2  A    between atoms: C_2  and  C_15
REMARK    3  A    between atoms: O_3  and  C_4
REMARK    4  A    between atoms: C_4  and  C_5
REMARK    5  A    between atoms: C_5  and  O_6
REMARK    6  A    between atoms: O_6  and  C_7
REMARK    7  A    between atoms: C_7  and  C_8
REMARK    8  A    between atoms: C_8  and  N_9
REMARK    9  A    between atoms: N_9  and  C_11
REMARK   10  A    between atoms: N_9  and  C_13
REMARK   11  A    between atoms: C_15  and  C_16
REMARK   12  A    between atoms: C_15  and  C_22
REMARK   13  A    between atoms: C_15  and  C_24
REMARK                            x       y       z     vdW  Elec       q    Type
REMARK                         _______ _______ _______ _____ _____    ______ ____
ROOT
ATOM      1  O   UNL     1      35.252 -16.803 -20.318  0.00  0.00    -0.250 OA
ATOM      2  C   UNL     1      35.141 -16.957 -21.528  0.00  0.00    +0.320 C 
ENDROOT
BRANCH   2   3
ATOM      3  O   UNL     1      34.990 -15.945 -22.438  0.00  0.00    -0.446 OA
BRANCH   3   4
ATOM      4  C   UNL     1      34.342 -14.766 -21.950  0.00  0.00    +0.240 C 
BRANCH   4   5
ATOM      5  C   UNL     1      33.093 -14.512 -22.772  0.00  0.00    +0.189 C 
BRANCH   5   6
ATOM      6  O   UNL     1      32.166 -13.767 -21.992  0.00  0.00    -0.352 OA
BRANCH   6   7
ATOM      7  C   UNL     1      32.172 -12.392 -22.347  0.00  0.00    +0.120 C 
BRANCH   7   8
ATOM      8  C   UNL     1      31.173 -11.656 -21.469  0.00  0.00    -0.045 C 
BRANCH   8   9
ATOM      9  N   UNL     1      31.357 -10.217 -21.576  0.00  0.00    +0.389 N 
ATOM     10  H   UNL     1      30.450  -9.797 -21.784  0.00  0.00    -0.080 HD
BRANCH   9  11
ATOM     11  C   UNL     1      32.281  -9.892 -22.666  0.00  0.00    -0.077 C 
ATOM     12  C   UNL     1      32.951  -8.548 -22.436  0.00  0.00    -0.025 C 
ENDBRANCH   9  11
BRANCH   9  13
ATOM     13  C   UNL     1      31.849  -9.661 -20.313  0.00  0.00    -0.077 C 
ATOM     14  C   UNL     1      31.453 -10.538 -19.137  0.00  0.00    -0.025 C 
ENDBRANCH   9  13
ENDBRANCH   8   9
ENDBRANCH   7   8
ENDBRANCH   6   7
ENDBRANCH   5   6
ENDBRANCH   4   5
ENDBRANCH   3   4
ENDBRANCH   2   3
BRANCH   2  15
ATOM     15  C   UNL     1      35.166 -18.327 -22.245  0.00  0.00    +0.108 C 
BRANCH  15  16
ATOM     16  C   UNL     1      34.606 -19.394 -21.275  0.00  0.00    -0.013 C 
ATOM     17  C   UNL     1      35.470 -20.302 -20.662  0.00  0.00    -0.004 C 
ATOM     18  C   UNL     1      33.237 -19.451 -21.015  0.00  0.00    -0.004 C 
ATOM     19  C   UNL     1      34.965 -21.264 -19.788  0.00  0.00    -0.000 C 
ATOM     20  C   UNL     1      32.732 -20.414 -20.141  0.00  0.00    -0.000 C 
ATOM     21  C   UNL     1      33.596 -21.320 -19.527  0.00  0.00    -0.000 C 
ENDBRANCH  15  16
BRANCH  15  22
ATOM     22  C   UNL     1      36.652 -18.682 -22.582  0.00  0.00    +0.015 C 
ATOM     23  C   UNL     1      37.542 -18.978 -21.379  0.00  0.00    +0.001 C 
ENDBRANCH  15  22
BRANCH  15  24
ATOM     24  C   UNL     1      34.324 -18.164 -23.552  0.00  0.00    +0.015 C 
ATOM     25  C   UNL     1      34.593 -19.196 -24.644  0.00  0.00    +0.001 C 
ENDBRANCH  15  24
ENDBRANCH   2  15
TORSDOF 13
ENDMDL
MODEL 9
REMARK VINA RESULT:      -7.1      2.947      8.913
REMARK  Name = 4619
REMARK  13 active torsions:
REMARK  status: ('A' for Active; 'I' for Inactive)
REMARK    1  A    between atoms: C_2  and  O_3
REMARK    2  A    between atoms: C_2  and  C_15
REMARK    3  A    between atoms: O_3  and  C_4
REMARK    4  A    between atoms: C_4  and  C_5
REMARK    5  A    between atoms: C_5  and  O_6
REMARK    6  A    between atoms: O_6  and  C_7
REMARK    7  A    between atoms: C_7  and  C_8
REMARK    8  A    between atoms: C_8  and  N_9
REMARK    9  A    between atoms: N_9  and  C_11
REMARK   10  A    between atoms: N_9  and  C_13
REMARK   11  A    between atoms: C_15  and  C_16
REMARK   12  A    between atoms: C_15  and  C_22
REMARK   13  A    between atoms: C_15  and  C_24
REMARK                            x       y       z     vdW  Elec       q    Type
REMARK                         _______ _______ _______ _____ _____    ______ ____
ROOT
ATOM      1  O   UNL     1      35.219 -16.101 -20.048  0.00  0.00    -0.250 OA
ATOM      2  C   UNL     1      34.400 -16.736 -20.701  0.00  0.00    +0.320 C 
ENDROOT
BRANCH   2   3
ATOM      3  O   UNL     1      33.115 -16.337 -20.952  0.00  0.00    -0.446 OA
BRANCH   3   4
ATOM      4  C   UNL     1      32.767 -15.035 -20.470  0.00  0.00    +0.240 C 
BRANCH   4   5
ATOM      5  C   UNL     1      32.641 -14.088 -21.649  0.00  0.00    +0.189 C 
BRANCH   5   6
ATOM      6  O   UNL     1      32.088 -12.857 -21.199  0.00  0.00    -0.352 OA
BRANCH   6   7
ATOM      7  C   UNL     1      31.843 -11.970 -22.281  0.00  0.00    +0.120 C 
BRANCH   7   8
ATOM      8  C   UNL     1      31.739 -10.554 -21.738  0.00  0.00    -0.045 C 
BRANCH   8   9
ATOM      9  N   UNL     1      32.120  -9.585 -22.753  0.00  0.00    +0.389 N 
ATOM     10  H   UNL     1      31.346  -9.495 -23.412  0.00  0.00    -0.080 HD
BRANCH   9  11
ATOM     11  C   UNL     1      33.304 -10.041 -23.486  0.00  0.00    -0.077 C 
ATOM     12  C   UNL     1      34.227  -8.880 -23.818  0.00  0.00    -0.025 C 
ENDBRANCH   9  11
BRANCH   9  13
ATOM     13  C   UNL     1      32.373  -8.274 -22.150  0.00  0.00    -0.077 C 
ATOM     14  C   UNL     1      32.437  -8.370 -20.635  0.00  0.00    -0.025 C 
ENDBRANCH   9  13
ENDBRANCH   8   9
ENDBRANCH   7   8
ENDBRANCH   6   7
ENDBRANCH   5   6
ENDBRANCH   4   5
ENDBRANCH   3   4
ENDBRANCH   2   3
BRANCH   2  15
ATOM     15  C   UNL     1      34.680 -18.103 -21.369  0.00  0.00    +0.108 C 
BRANCH  15  16
ATOM     16  C   UNL     1      34.635 -17.914 -22.903  0.00  0.00    -0.013 C 
ATOM     17  C   UNL     1      34.844 -16.650 -23.457  0.00  0.00    -0.004 C 
ATOM     18  C   UNL     1      34.383 -19.005 -23.735  0.00  0.00    -0.004 C 
ATOM     19  C   UNL     1      34.802 -16.479 -24.840  0.00  0.00    -0.000 C 
ATOM     20  C   UNL     1      34.341 -18.834 -25.118  0.00  0.00    -0.000 C 
ATOM     21  C   UNL     1      34.551 -17.570 -25.671  0.00  0.00    -0.000 C 
ENDBRANCH  15  16
BRANCH  15  22
ATOM     22  C   UNL     1      33.550 -19.099 -20.949  0.00  0.00    +0.015 C 
ATOM     23  C   UNL     1      34.028 -20.404 -20.319  0.00  0.00    +0.001 C 
ENDBRANCH  15  22
BRANCH  15  24
ATOM     24  C   UNL     1      36.070 -18.585 -20.838  0.00  0.00    +0.015 C 
ATOM     25  C   UNL     1      37.176 -18.691 -21.884  0.00  0.00    +0.001 C 
ENDBRANCH  15  24
ENDBRANCH   2  15
TORSDOF 13
ENDMDL
