MODEL 1
REMARK VINA RESULT:     -11.4      0.000      0.000
REMARK  Name = 657131
REMARK  7 active torsions:
REMARK  status: ('A' for Active; 'I' for Inactive)
REMARK    1  A    between atoms: C_1  and  CA_2
REMARK    2  A    between atoms: C_1  and  C_3
REMARK    3  A    between atoms: CA_2  and  C_28
REMARK    4  A    between atoms: C_4  and  O_9
REMARK    5  A    between atoms: O_9  and  C_11
REMARK    6  A    between atoms: C_19  and  C_21
REMARK    7  A    between atoms: C_28  and  O_29
REMARK                            x       y       z     vdW  Elec       q    Type
REMARK                         _______ _______ _______ _____ _____    ______ ____
ROOT
ATOM      1  C   UNL     1      34.577 -22.787 -19.001  0.00  0.00    +0.074 C 
ENDROOT
BRANCH   1   2
ATOM      2  C   UNL     1      34.881 -21.516 -19.636  0.00  0.00    -0.016 C 
ATOM      3  C   UNL     1      35.468 -19.075 -20.854  0.00  0.00    +0.145 C 
ATOM      4  C   UNL     1      33.849 -20.711 -20.120  0.00  0.00    -0.001 C 
ATOM      5  C   UNL     1      36.207 -21.099 -19.761  0.00  0.00    -0.001 C 
ATOM      6  C   UNL     1      34.142 -19.491 -20.729  0.00  0.00    +0.037 C 
ATOM      7  C   UNL     1      36.500 -19.878 -20.370  0.00  0.00    +0.037 C 
BRANCH   3   8
ATOM      8  O   UNL     1      35.753 -17.884 -21.447  0.00  0.00    -0.453 OA
BRANCH   8  10
ATOM      9 BR   UNL     1      34.525 -15.028 -21.729  0.00  0.00    -0.046 Br
ATOM     10  C   UNL     1      35.220 -17.646 -22.703  0.00  0.00    +0.151 C 
ATOM     11  C   UNL     1      34.634 -16.428 -23.002  0.00  0.00    +0.069 C 
ATOM     12  C   UNL     1      35.296 -18.663 -23.639  0.00  0.00    +0.038 C 
ATOM     13  C   UNL     1      34.107 -16.221 -24.277  0.00  0.00    +0.010 C 
ATOM     14  C   UNL     1      34.769 -18.455 -24.914  0.00  0.00    +0.003 C 
ATOM     15  C   UNL     1      34.175 -17.234 -25.233  0.00  0.00    +0.001 C 
ENDBRANCH   8  10
ENDBRANCH   3   8
ENDBRANCH   1   2
BRANCH   1  16
ATOM     16  CA  UNL     1      34.123 -22.962 -17.738  0.00  0.00    +0.108 C 
ATOM     17  O   UNL     1      33.039 -23.340 -15.124  0.00  0.00    -0.270 OA
ATOM     18  N   UNL     1      32.800 -23.112 -17.426  0.00  0.00    -0.278 N 
ATOM     19  C   UNL     1      32.337 -23.293 -16.132  0.00  0.00    +0.249 C 
ATOM     20  H   UNL     1      32.143 -23.091 -18.159  0.00  0.00    +0.155 HD
BRANCH  19  21
ATOM     21  C   UNL     1      30.863 -23.413 -15.989  0.00  0.00    +0.054 C 
ATOM     22  C   UNL     1      30.057 -22.458 -16.574  0.00  0.00    +0.005 C 
ATOM     23  C   UNL     1      30.348 -24.477 -15.280  0.00  0.00    +0.005 C 
ATOM     24  C   UNL     1      28.674 -22.571 -16.441  0.00  0.00    +0.000 C 
ATOM     25  C   UNL     1      28.963 -24.591 -15.147  0.00  0.00    +0.000 C 
ATOM     26  C   UNL     1      28.127 -23.637 -15.728  0.00  0.00    +0.000 C 
ENDBRANCH  19  21
BRANCH  16  28
ATOM     27  OXT UNL     1      35.663 -21.993 -16.156  0.00  0.00    -0.244 OA
ATOM     28  C   UNL     1      35.114 -22.977 -16.630  0.00  0.00    +0.348 C 
BRANCH  28  29
ATOM     29  O   UNL     1      35.342 -24.242 -16.201  0.00  0.00    -0.476 OA
ATOM     30  H   UNL     1      35.606 -24.396 -15.316  0.00  0.00    +0.295 HD
ENDBRANCH  28  29
ENDBRANCH  16  28
ENDBRANCH   1  16
TORSDOF 7
ENDMDL
MODEL 2
REMARK VINA RESULT:     -11.3      4.718      7.831
REMARK  Name = 657131
REMARK  7 active torsions:
REMARK  status: ('A' for Active; 'I' for Inactive)
REMARK    1  A    between atoms: C_1  and  CA_2
REMARK    2  A    between atoms: C_1  and  C_3
REMARK    3  A    between atoms: CA_2  and  C_28
REMARK    4  A    between atoms: C_4  and  O_9
REMARK    5  A    between atoms: O_9  and  C_11
REMARK    6  A    between atoms: C_19  and  C_21
REMARK    7  A    between atoms: C_28  and  O_29
REMARK                            x       y       z     vdW  Elec       q    Type
REMARK                         _______ _______ _______ _____ _____    ______ ____
ROOT
ATOM      1  C   UNL     1      34.947 -15.771 -21.298  0.00  0.00    +0.074 C 
ENDROOT
BRANCH   1   2
ATOM      2  C   UNL     1      34.022 -14.680 -21.553  0.00  0.00    -0.016 C 
ATOM      3  C   UNL     1      32.248 -12.584 -22.045  0.00  0.00    +0.145 C 
ATOM      4  C   UNL     1      33.008 -14.395 -20.639  0.00  0.00    -0.001 C 
ATOM      5  C   UNL     1      34.149 -13.915 -22.714  0.00  0.00    -0.001 C 
ATOM      6  C   UNL     1      32.120 -13.347 -20.884  0.00  0.00    +0.037 C 
ATOM      7  C   UNL     1      33.262 -12.867 -22.959  0.00  0.00    +0.037 C 
BRANCH   3   8
ATOM      8  O   UNL     1      31.383 -11.561 -22.283  0.00  0.00    -0.453 OA
BRANCH   8  10
ATOM      9 BR   UNL     1      31.136 -10.467 -19.369  0.00  0.00    -0.046 Br
ATOM     10  C   UNL     1      31.860 -10.268 -22.148  0.00  0.00    +0.151 C 
ATOM     11  C   UNL     1      31.827  -9.627 -20.921  0.00  0.00    +0.069 C 
ATOM     12  C   UNL     1      32.367  -9.647 -23.277  0.00  0.00    +0.038 C 
ATOM     13  C   UNL     1      32.317  -8.325 -20.821  0.00  0.00    +0.010 C 
ATOM     14  C   UNL     1      32.857  -8.344 -23.175  0.00  0.00    +0.003 C 
ATOM     15  C   UNL     1      32.831  -7.684 -21.947  0.00  0.00    +0.001 C 
ENDBRANCH   8  10
ENDBRANCH   3   8
ENDBRANCH   1   2
BRANCH   1  16
ATOM     16  CA  UNL     1      34.833 -17.040 -21.755  0.00  0.00    +0.108 C 
ATOM     17  O   UNL     1      34.584 -19.759 -22.589  0.00  0.00    -0.270 OA
ATOM     18  N   UNL     1      34.706 -18.128 -20.936  0.00  0.00    -0.278 N 
ATOM     19  C   UNL     1      34.589 -19.427 -21.406  0.00  0.00    +0.249 C 
ATOM     20  H   UNL     1      34.698 -17.980 -19.963  0.00  0.00    +0.155 HD
BRANCH  19  21
ATOM     21  C   UNL     1      34.484 -20.479 -20.362  0.00  0.00    +0.054 C 
ATOM     22  C   UNL     1      35.643 -21.014 -19.839  0.00  0.00    +0.005 C 
ATOM     23  C   UNL     1      33.233 -20.884 -19.949  0.00  0.00    +0.005 C 
ATOM     24  C   UNL     1      35.544 -22.001 -18.859  0.00  0.00    +0.000 C 
ATOM     25  C   UNL     1      33.134 -21.872 -18.968  0.00  0.00    +0.000 C 
ATOM     26  C   UNL     1      34.291 -22.431 -18.424  0.00  0.00    +0.000 C 
ENDBRANCH  19  21
BRANCH  16  28
ATOM     27  OXT UNL     1      33.940 -17.047 -23.994  0.00  0.00    -0.244 OA
ATOM     28  C   UNL     1      34.864 -17.264 -23.225  0.00  0.00    +0.348 C 
BRANCH  28  29
ATOM     29  O   UNL     1      36.067 -17.750 -23.615  0.00  0.00    -0.476 OA
ATOM     30  H   UNL     1      36.852 -17.284 -23.402  0.00  0.00    +0.295 HD
ENDBRANCH  28  29
ENDBRANCH  16  28
ENDBRANCH   1  16
TORSDOF 7
ENDMDL
MODEL 3
REMARK VINA RESULT:     -11.1      7.302     12.144
REMARK  Name = 657131
REMARK  7 active torsions:
REMARK  status: ('A' for Active; 'I' for Inactive)
REMARK    1  A    between atoms: C_1  and  CA_2
REMARK    2  A    between atoms: C_1  and  C_3
REMARK    3  A    between atoms: CA_2  and  C_28
REMARK    4  A    between atoms: C_4  and  O_9
REMARK    5  A    between atoms: O_9  and  C_11
REMARK    6  A    between atoms: C_19  and  C_21
REMARK    7  A    between atoms: C_28  and  O_29
REMARK                            x       y       z     vdW  Elec       q    Type
REMARK                         _______ _______ _______ _____ _____    ______ ____
ROOT
ATOM      1  C   UNL     1      31.389 -11.986 -21.380  0.00  0.00    +0.074 C 
ENDROOT
BRANCH   1   2
ATOM      2  C   UNL     1      32.425 -12.948 -21.718  0.00  0.00    -0.016 C 
ATOM      3  C   UNL     1      34.412 -14.796 -22.365  0.00  0.00    +0.145 C 
ATOM      4  C   UNL     1      33.067 -12.878 -22.954  0.00  0.00    -0.001 C 
ATOM      5  C   UNL     1      32.777 -13.942 -20.805  0.00  0.00    -0.001 C 
ATOM      6  C   UNL     1      34.061 -13.802 -23.278  0.00  0.00    +0.037 C 
ATOM      7  C   UNL     1      33.771 -14.866 -21.129  0.00  0.00    +0.037 C 
BRANCH   3   8
ATOM      8  O   UNL     1      35.382 -15.696 -22.681  0.00  0.00    -0.453 OA
BRANCH   8  10
ATOM      9 BR   UNL     1      35.690 -18.354 -21.072  0.00  0.00    -0.046 Br
ATOM     10  C   UNL     1      35.012 -16.815 -23.408  0.00  0.00    +0.151 C 
ATOM     11  C   UNL     1      35.085 -18.078 -22.847  0.00  0.00    +0.069 C 
ATOM     12  C   UNL     1      34.569 -16.622 -24.705  0.00  0.00    +0.038 C 
ATOM     13  C   UNL     1      34.704 -19.184 -23.608  0.00  0.00    +0.010 C 
ATOM     14  C   UNL     1      34.187 -17.728 -25.465  0.00  0.00    +0.003 C 
ATOM     15  C   UNL     1      34.255 -19.009 -24.916  0.00  0.00    +0.001 C 
ENDBRANCH   8  10
ENDBRANCH   3   8
ENDBRANCH   1   2
BRANCH   1  16
ATOM     16  CA  UNL     1      31.578 -10.679 -21.081  0.00  0.00    +0.108 C 
ATOM     17  O   UNL     1      31.996  -7.900 -20.582  0.00  0.00    -0.270 OA
ATOM     18  N   UNL     1      31.876  -9.727 -22.015  0.00  0.00    -0.278 N 
ATOM     19  C   UNL     1      32.068  -8.389 -21.707  0.00  0.00    +0.249 C 
ATOM     20  H   UNL     1      31.959 -10.006 -22.955  0.00  0.00    +0.155 HD
BRANCH  19  21
ATOM     21  C   UNL     1      32.408  -7.509 -22.855  0.00  0.00    +0.054 C 
ATOM     22  C   UNL     1      31.417  -6.724 -23.407  0.00  0.00    +0.005 C 
ATOM     23  C   UNL     1      33.702  -7.504 -23.329  0.00  0.00    +0.005 C 
ATOM     24  C   UNL     1      31.736  -5.897 -24.483  0.00  0.00    +0.000 C 
ATOM     25  C   UNL     1      34.022  -6.676 -24.406  0.00  0.00    +0.000 C 
ATOM     26  C   UNL     1      33.038  -5.873 -24.983  0.00  0.00    +0.000 C 
ENDBRANCH  19  21
BRANCH  16  28
ATOM     27  OXT UNL     1      30.426 -10.123 -19.036  0.00  0.00    -0.244 OA
ATOM     28  C   UNL     1      31.470 -10.261 -19.658  0.00  0.00    +0.348 C 
BRANCH  28  29
ATOM     29  O   UNL     1      32.695 -10.046 -19.123  0.00  0.00    -0.476 OA
ATOM     30  H   UNL     1      33.445  -9.977 -19.681  0.00  0.00    +0.295 HD
ENDBRANCH  28  29
ENDBRANCH  16  28
ENDBRANCH   1  16
TORSDOF 7
ENDMDL
MODEL 4
REMARK VINA RESULT:     -11.1      1.815      2.635
REMARK  Name = 657131
REMARK  7 active torsions:
REMARK  status: ('A' for Active; 'I' for Inactive)
REMARK    1  A    between atoms: C_1  and  CA_2
REMARK    2  A    between atoms: C_1  and  C_3
REMARK    3  A    between atoms: CA_2  and  C_28
REMARK    4  A    between atoms: C_4  and  O_9
REMARK    5  A    between atoms: O_9  and  C_11
REMARK    6  A    between atoms: C_19  and  C_21
REMARK    7  A    between atoms: C_28  and  O_29
REMARK                            x       y       z     vdW  Elec       q    Type
REMARK                         _______ _______ _______ _____ _____    ______ ____
ROOT
ATOM      1  C   UNL     1      36.777 -22.123 -17.514  0.00  0.00    +0.074 C 
ENDROOT
BRANCH   1   2
ATOM      2  C   UNL     1      36.095 -21.483 -18.627  0.00  0.00    -0.016 C 
ATOM      3  C   UNL     1      34.784 -20.257 -20.762  0.00  0.00    +0.145 C 
ATOM      4  C   UNL     1      36.806 -20.667 -19.506  0.00  0.00    -0.001 C 
ATOM      5  C   UNL     1      34.728 -21.687 -18.816  0.00  0.00    -0.001 C 
ATOM      6  C   UNL     1      36.151 -20.053 -20.574  0.00  0.00    +0.037 C 
ATOM      7  C   UNL     1      34.073 -21.074 -19.884  0.00  0.00    +0.037 C 
BRANCH   3   8
ATOM      8  O   UNL     1      34.145 -19.660 -21.805  0.00  0.00    -0.453 OA
BRANCH   8  10
ATOM      9 BR   UNL     1      34.739 -18.976 -24.792  0.00  0.00    -0.046 Br
ATOM     10  C   UNL     1      34.377 -18.311 -22.015  0.00  0.00    +0.151 C 
ATOM     11  C   UNL     1      34.657 -17.832 -23.284  0.00  0.00    +0.069 C 
ATOM     12  C   UNL     1      34.319 -17.468 -20.919  0.00  0.00    +0.038 C 
ATOM     13  C   UNL     1      34.886 -16.467 -23.461  0.00  0.00    +0.010 C 
ATOM     14  C   UNL     1      34.548 -16.103 -21.097  0.00  0.00    +0.003 C 
ATOM     15  C   UNL     1      34.832 -15.603 -22.367  0.00  0.00    +0.001 C 
ENDBRANCH   8  10
ENDBRANCH   3   8
ENDBRANCH   1   2
BRANCH   1  16
ATOM     16  CA  UNL     1      36.189 -22.728 -16.455  0.00  0.00    +0.108 C 
ATOM     17  O   UNL     1      34.827 -23.969 -14.275  0.00  0.00    -0.270 OA
ATOM     18  N   UNL     1      34.835 -22.778 -16.273  0.00  0.00    -0.278 N 
ATOM     19  C   UNL     1      34.234 -23.399 -15.189  0.00  0.00    +0.249 C 
ATOM     20  H   UNL     1      34.257 -22.352 -16.947  0.00  0.00    +0.155 HD
BRANCH  19  21
ATOM     21  C   UNL     1      32.751 -23.329 -15.151  0.00  0.00    +0.054 C 
ATOM     22  C   UNL     1      32.109 -23.459 -13.937  0.00  0.00    +0.005 C 
ATOM     23  C   UNL     1      32.063 -23.135 -16.331  0.00  0.00    +0.005 C 
ATOM     24  C   UNL     1      30.717 -23.393 -13.901  0.00  0.00    +0.000 C 
ATOM     25  C   UNL     1      30.670 -23.070 -16.295  0.00  0.00    +0.000 C 
ATOM     26  C   UNL     1      29.997 -23.199 -15.080  0.00  0.00    +0.000 C 
ENDBRANCH  19  21
BRANCH  16  28
ATOM     27  OXT UNL     1      37.627 -22.765 -14.521  0.00  0.00    -0.244 OA
ATOM     28  C   UNL     1      37.063 -23.356 -15.430  0.00  0.00    +0.348 C 
BRANCH  28  29
ATOM     29  O   UNL     1      37.161 -24.692 -15.631  0.00  0.00    -0.476 OA
ATOM     30  H   UNL     1      37.448 -25.021 -16.460  0.00  0.00    +0.295 HD
ENDBRANCH  28  29
ENDBRANCH  16  28
ENDBRANCH   1  16
TORSDOF 7
ENDMDL
MODEL 5
REMARK VINA RESULT:     -10.9      4.789      7.861
REMARK  Name = 657131
REMARK  7 active torsions:
REMARK  status: ('A' for Active; 'I' for Inactive)
REMARK    1  A    between atoms: C_1  and  CA_2
REMARK    2  A    between atoms: C_1  and  C_3
REMARK    3  A    between atoms: CA_2  and  C_28
REMARK    4  A    between atoms: C_4  and  O_9
REMARK    5  A    between atoms: O_9  and  C_11
REMARK    6  A    between atoms: C_19  and  C_21
REMARK    7  A    between atoms: C_28  and  O_29
REMARK                            x       y       z     vdW  Elec       q    Type
REMARK                         _______ _______ _______ _____ _____    ______ ____
ROOT
ATOM      1  C   UNL     1      35.052 -15.833 -21.321  0.00  0.00    +0.074 C 
ENDROOT
BRANCH   1   2
ATOM      2  C   UNL     1      34.106 -14.748 -21.519  0.00  0.00    -0.016 C 
ATOM      3  C   UNL     1      32.292 -12.663 -21.901  0.00  0.00    +0.145 C 
ATOM      4  C   UNL     1      33.136 -14.482 -20.554  0.00  0.00    -0.001 C 
ATOM      5  C   UNL     1      34.170 -13.971 -22.676  0.00  0.00    -0.001 C 
ATOM      6  C   UNL     1      32.228 -13.439 -20.744  0.00  0.00    +0.037 C 
ATOM      7  C   UNL     1      33.262 -12.928 -22.867  0.00  0.00    +0.037 C 
BRANCH   3   8
ATOM      8  O   UNL     1      31.407 -11.646 -22.087  0.00  0.00    -0.453 OA
BRANCH   8  10
ATOM      9 BR   UNL     1      32.637  -9.459 -23.945  0.00  0.00    -0.046 Br
ATOM     10  C   UNL     1      31.651 -10.452 -21.429  0.00  0.00    +0.151 C 
ATOM     11  C   UNL     1      32.196  -9.373 -22.104  0.00  0.00    +0.069 C 
ATOM     12  C   UNL     1      31.332 -10.380 -20.084  0.00  0.00    +0.038 C 
ATOM     13  C   UNL     1      32.429  -8.184 -21.411  0.00  0.00    +0.010 C 
ATOM     14  C   UNL     1      31.565  -9.191 -19.392  0.00  0.00    +0.003 C 
ATOM     15  C   UNL     1      32.113  -8.094 -20.056  0.00  0.00    +0.001 C 
ENDBRANCH   8  10
ENDBRANCH   3   8
ENDBRANCH   1   2
BRANCH   1  16
ATOM     16  CA  UNL     1      34.914 -17.106 -21.760  0.00  0.00    +0.108 C 
ATOM     17  O   UNL     1      34.611 -19.830 -22.557  0.00  0.00    -0.270 OA
ATOM     18  N   UNL     1      34.763 -18.179 -20.927  0.00  0.00    -0.278 N 
ATOM     19  C   UNL     1      34.620 -19.482 -21.379  0.00  0.00    +0.249 C 
ATOM     20  H   UNL     1      34.755 -18.018 -19.956  0.00  0.00    +0.155 HD
BRANCH  19  21
ATOM     21  C   UNL     1      34.491 -20.517 -20.321  0.00  0.00    +0.054 C 
ATOM     22  C   UNL     1      35.637 -21.032 -19.751  0.00  0.00    +0.005 C 
ATOM     23  C   UNL     1      33.231 -20.928 -19.941  0.00  0.00    +0.005 C 
ATOM     24  C   UNL     1      35.517 -22.003 -18.758  0.00  0.00    +0.000 C 
ATOM     25  C   UNL     1      33.110 -21.899 -18.947  0.00  0.00    +0.000 C 
ATOM     26  C   UNL     1      34.254 -22.437 -18.356  0.00  0.00    +0.000 C 
ENDBRANCH  19  21
BRANCH  16  28
ATOM     27  OXT UNL     1      34.027 -17.123 -24.002  0.00  0.00    -0.244 OA
ATOM     28  C   UNL     1      34.943 -17.351 -23.227  0.00  0.00    +0.348 C 
BRANCH  28  29
ATOM     29  O   UNL     1      36.136 -17.870 -23.606  0.00  0.00    -0.476 OA
ATOM     30  H   UNL     1      36.413 -18.699 -23.271  0.00  0.00    +0.295 HD
ENDBRANCH  28  29
ENDBRANCH  16  28
ENDBRANCH   1  16
TORSDOF 7
ENDMDL
MODEL 6
REMARK VINA RESULT:     -10.9      5.175      8.903
REMARK  Name = 657131
REMARK  7 active torsions:
REMARK  status: ('A' for Active; 'I' for Inactive)
REMARK    1  A    between atoms: C_1  and  CA_2
REMARK    2  A    between atoms: C_1  and  C_3
REMARK    3  A    between atoms: CA_2  and  C_28
REMARK    4  A    between atoms: C_4  and  O_9
REMARK    5  A    between atoms: O_9  and  C_11
REMARK    6  A    between atoms: C_19  and  C_21
REMARK    7  A    between atoms: C_28  and  O_29
REMARK                            x       y       z     vdW  Elec       q    Type
REMARK                         _______ _______ _______ _____ _____    ______ ____
ROOT
ATOM      1  C   UNL     1      34.945 -15.009 -23.410  0.00  0.00    +0.074 C 
ENDROOT
BRANCH   1   2
ATOM      2  C   UNL     1      33.955 -14.001 -23.068  0.00  0.00    -0.016 C 
ATOM      3  C   UNL     1      32.054 -12.068 -22.411  0.00  0.00    +0.145 C 
ATOM      4  C   UNL     1      33.837 -12.847 -23.842  0.00  0.00    -0.001 C 
ATOM      5  C   UNL     1      33.121 -14.189 -21.965  0.00  0.00    -0.001 C 
ATOM      6  C   UNL     1      32.886 -11.880 -23.513  0.00  0.00    +0.037 C 
ATOM      7  C   UNL     1      32.170 -13.222 -21.637  0.00  0.00    +0.037 C 
BRANCH   3   8
ATOM      8  O   UNL     1      31.126 -11.126 -22.091  0.00  0.00    -0.453 OA
BRANCH   8  10
ATOM      9 BR   UNL     1      31.477 -10.696 -19.018  0.00  0.00    -0.046 Br
ATOM     10  C   UNL     1      31.580  -9.857 -21.770  0.00  0.00    +0.151 C 
ATOM     11  C   UNL     1      31.791  -9.495 -20.451  0.00  0.00    +0.069 C 
ATOM     12  C   UNL     1      31.812  -8.974 -22.810  0.00  0.00    +0.038 C 
ATOM     13  C   UNL     1      32.249  -8.209 -20.163  0.00  0.00    +0.010 C 
ATOM     14  C   UNL     1      32.270  -7.688 -22.521  0.00  0.00    +0.003 C 
ATOM     15  C   UNL     1      32.488  -7.306 -21.198  0.00  0.00    +0.001 C 
ENDBRANCH   8  10
ENDBRANCH   3   8
ENDBRANCH   1   2
BRANCH   1  16
ATOM     16  CA  UNL     1      34.702 -16.316 -23.665  0.00  0.00    +0.108 C 
ATOM     17  O   UNL     1      34.198 -19.096 -24.071  0.00  0.00    -0.270 OA
ATOM     18  N   UNL     1      34.657 -17.278 -22.695  0.00  0.00    -0.278 N 
ATOM     19  C   UNL     1      34.407 -18.616 -22.959  0.00  0.00    +0.249 C 
ATOM     20  H   UNL     1      34.811 -17.007 -21.762  0.00  0.00    +0.155 HD
BRANCH  19  21
ATOM     21  C   UNL     1      34.421 -19.516 -21.777  0.00  0.00    +0.054 C 
ATOM     22  C   UNL     1      33.222 -19.858 -21.187  0.00  0.00    +0.005 C 
ATOM     23  C   UNL     1      35.632 -19.983 -21.311  0.00  0.00    +0.005 C 
ATOM     24  C   UNL     1      33.236 -20.703 -20.078  0.00  0.00    +0.000 C 
ATOM     25  C   UNL     1      35.645 -20.829 -20.202  0.00  0.00    +0.000 C 
ATOM     26  C   UNL     1      34.446 -21.189 -19.585  0.00  0.00    +0.000 C 
ENDBRANCH  19  21
BRANCH  16  28
ATOM     27  OXT UNL     1      35.352 -17.141 -25.835  0.00  0.00    -0.244 OA
ATOM     28  C   UNL     1      34.487 -16.727 -25.078  0.00  0.00    +0.348 C 
BRANCH  28  29
ATOM     29  O   UNL     1      33.187 -16.583 -25.431  0.00  0.00    -0.476 OA
ATOM     30  H   UNL     1      32.879 -15.760 -25.756  0.00  0.00    +0.295 HD
ENDBRANCH  28  29
ENDBRANCH  16  28
ENDBRANCH   1  16
TORSDOF 7
ENDMDL
MODEL 7
REMARK VINA RESULT:     -10.7      3.316      8.890
REMARK  Name = 657131
REMARK  7 active torsions:
REMARK  status: ('A' for Active; 'I' for Inactive)
REMARK    1  A    between atoms: C_1  and  CA_2
REMARK    2  A    between atoms: C_1  and  C_3
REMARK    3  A    between atoms: CA_2  and  C_28
REMARK    4  A    between atoms: C_4  and  O_9
REMARK    5  A    between atoms: O_9  and  C_11
REMARK    6  A    between atoms: C_19  and  C_21
REMARK    7  A    between atoms: C_28  and  O_29
REMARK                            x       y       z     vdW  Elec       q    Type
REMARK                         _______ _______ _______ _____ _____    ______ ____
ROOT
ATOM      1  C   UNL     1      35.848 -18.821 -20.882  0.00  0.00    +0.074 C 
ENDROOT
BRANCH   1   2
ATOM      2  C   UNL     1      35.353 -20.014 -20.215  0.00  0.00    -0.016 C 
ATOM      3  C   UNL     1      34.407 -22.305 -18.934  0.00  0.00    +0.145 C 
ATOM      4  C   UNL     1      33.993 -20.322 -20.249  0.00  0.00    -0.001 C 
ATOM      5  C   UNL     1      36.241 -20.853 -19.539  0.00  0.00    -0.001 C 
ATOM      6  C   UNL     1      33.520 -21.468 -19.609  0.00  0.00    +0.037 C 
ATOM      7  C   UNL     1      35.767 -21.999 -18.899  0.00  0.00    +0.037 C 
BRANCH   3   8
ATOM      8  O   UNL     1      33.946 -23.423 -18.310  0.00  0.00    -0.453 OA
BRANCH   8  10
ATOM      9 BR   UNL     1      35.720 -23.632 -15.750  0.00  0.00    -0.046 Br
ATOM     10  C   UNL     1      33.227 -23.257 -17.138  0.00  0.00    +0.151 C 
ATOM     11  C   UNL     1      33.857 -23.319 -15.908  0.00  0.00    +0.069 C 
ATOM     12  C   UNL     1      31.866 -23.028 -17.244  0.00  0.00    +0.038 C 
ATOM     13  C   UNL     1      33.103 -23.147 -14.747  0.00  0.00    +0.010 C 
ATOM     14  C   UNL     1      31.112 -22.855 -16.083  0.00  0.00    +0.003 C 
ATOM     15  C   UNL     1      31.731 -22.915 -14.835  0.00  0.00    +0.001 C 
ENDBRANCH   8  10
ENDBRANCH   3   8
ENDBRANCH   1   2
BRANCH   1  16
ATOM     16  CA  UNL     1      35.192 -18.100 -21.820  0.00  0.00    +0.108 C 
ATOM     17  O   UNL     1      33.779 -16.486 -23.704  0.00  0.00    -0.270 OA
ATOM     18  N   UNL     1      34.550 -16.922 -21.554  0.00  0.00    -0.278 N 
ATOM     19  C   UNL     1      33.880 -16.184 -22.517  0.00  0.00    +0.249 C 
ATOM     20  H   UNL     1      34.565 -16.582 -20.630  0.00  0.00    +0.155 HD
BRANCH  19  21
ATOM     21  C   UNL     1      33.223 -14.942 -22.031  0.00  0.00    +0.054 C 
ATOM     22  C   UNL     1      32.839 -13.989 -22.951  0.00  0.00    +0.005 C 
ATOM     23  C   UNL     1      33.017 -14.785 -20.677  0.00  0.00    +0.005 C 
ATOM     24  C   UNL     1      32.223 -12.825 -22.496  0.00  0.00    +0.000 C 
ATOM     25  C   UNL     1      32.400 -13.619 -20.221  0.00  0.00    +0.000 C 
ATOM     26  C   UNL     1      32.003 -12.639 -21.132  0.00  0.00    +0.000 C 
ENDBRANCH  19  21
BRANCH  16  28
ATOM     27  OXT UNL     1      34.436 -19.529 -23.609  0.00  0.00    -0.244 OA
ATOM     28  C   UNL     1      35.155 -18.624 -23.211  0.00  0.00    +0.348 C 
BRANCH  28  29
ATOM     29  O   UNL     1      36.035 -17.962 -24.001  0.00  0.00    -0.476 OA
ATOM     30  H   UNL     1      35.745 -17.242 -24.525  0.00  0.00    +0.295 HD
ENDBRANCH  28  29
ENDBRANCH  16  28
ENDBRANCH   1  16
TORSDOF 7
ENDMDL
MODEL 8
REMARK VINA RESULT:     -10.7      3.490      9.062
REMARK  Name = 657131
REMARK  7 active torsions:
REMARK  status: ('A' for Active; 'I' for Inactive)
REMARK    1  A    between atoms: C_1  and  CA_2
REMARK    2  A    between atoms: C_1  and  C_3
REMARK    3  A    between atoms: CA_2  and  C_28
REMARK    4  A    between atoms: C_4  and  O_9
REMARK    5  A    between atoms: O_9  and  C_11
REMARK    6  A    between atoms: C_19  and  C_21
REMARK    7  A    between atoms: C_28  and  O_29
REMARK                            x       y       z     vdW  Elec       q    Type
REMARK                         _______ _______ _______ _____ _____    ______ ____
ROOT
ATOM      1  C   UNL     1      35.449 -18.626 -21.486  0.00  0.00    +0.074 C 
ENDROOT
BRANCH   1   2
ATOM      2  C   UNL     1      34.793 -19.692 -20.747  0.00  0.00    -0.016 C 
ATOM      3  C   UNL     1      33.537 -21.740 -19.329  0.00  0.00    +0.145 C 
ATOM      4  C   UNL     1      33.406 -19.689 -20.598  0.00  0.00    -0.001 C 
ATOM      5  C   UNL     1      35.552 -20.720 -20.187  0.00  0.00    -0.001 C 
ATOM      6  C   UNL     1      32.778 -20.713 -19.889  0.00  0.00    +0.037 C 
ATOM      7  C   UNL     1      34.924 -21.744 -19.478  0.00  0.00    +0.037 C 
BRANCH   3   8
ATOM      8  O   UNL     1      32.924 -22.740 -18.638  0.00  0.00    -0.453 OA
BRANCH   8  10
ATOM      9 BR   UNL     1      30.538 -22.986 -16.640  0.00  0.00    -0.046 Br
ATOM     10  C   UNL     1      33.331 -22.966 -17.334  0.00  0.00    +0.151 C 
ATOM     11  C   UNL     1      32.402 -23.101 -16.317  0.00  0.00    +0.069 C 
ATOM     12  C   UNL     1      34.691 -23.050 -17.089  0.00  0.00    +0.038 C 
ATOM     13  C   UNL     1      32.847 -23.328 -15.014  0.00  0.00    +0.010 C 
ATOM     14  C   UNL     1      35.135 -23.278 -15.786  0.00  0.00    +0.003 C 
ATOM     15  C   UNL     1      34.213 -23.416 -14.749  0.00  0.00    +0.001 C 
ENDBRANCH   8  10
ENDBRANCH   3   8
ENDBRANCH   1   2
BRANCH   1  16
ATOM     16  CA  UNL     1      34.850 -17.749 -22.326  0.00  0.00    +0.108 C 
ATOM     17  O   UNL     1      33.559 -15.821 -23.988  0.00  0.00    -0.270 OA
ATOM     18  N   UNL     1      34.250 -16.594 -21.907  0.00  0.00    -0.278 N 
ATOM     19  C   UNL     1      33.638 -15.697 -22.768  0.00  0.00    +0.249 C 
ATOM     20  H   UNL     1      34.252 -16.390 -20.944  0.00  0.00    +0.155 HD
BRANCH  19  21
ATOM     21  C   UNL     1      33.020 -14.509 -22.124  0.00  0.00    +0.054 C 
ATOM     22  C   UNL     1      32.571 -13.477 -22.922  0.00  0.00    +0.005 C 
ATOM     23  C   UNL     1      32.912 -14.478 -20.750  0.00  0.00    +0.005 C 
ATOM     24  C   UNL     1      31.990 -12.364 -22.318  0.00  0.00    +0.000 C 
ATOM     25  C   UNL     1      32.330 -13.364 -20.145  0.00  0.00    +0.000 C 
ATOM     26  C   UNL     1      31.869 -12.306 -20.930  0.00  0.00    +0.000 C 
ENDBRANCH  19  21
BRANCH  16  28
ATOM     27  OXT UNL     1      34.146 -18.929 -24.306  0.00  0.00    -0.244 OA
ATOM     28  C   UNL     1      34.832 -18.067 -23.778  0.00  0.00    +0.348 C 
BRANCH  28  29
ATOM     29  O   UNL     1      35.688 -17.267 -24.459  0.00  0.00    -0.476 OA
ATOM     30  H   UNL     1      36.566 -17.153 -24.153  0.00  0.00    +0.295 HD
ENDBRANCH  28  29
ENDBRANCH  16  28
ENDBRANCH   1  16
TORSDOF 7
ENDMDL
MODEL 9
REMARK VINA RESULT:     -10.7      1.679      2.516
REMARK  Name = 657131
REMARK  7 active torsions:
REMARK  status: ('A' for Active; 'I' for Inactive)
REMARK    1  A    between atoms: C_1  and  CA_2
REMARK    2  A    between atoms: C_1  and  C_3
REMARK    3  A    between atoms: CA_2  and  C_28
REMARK    4  A    between atoms: C_4  and  O_9
REMARK    5  A    between atoms: O_9  and  C_11
REMARK    6  A    between atoms: C_19  and  C_21
REMARK    7  A    between atoms: C_28  and  O_29
REMARK                            x       y       z     vdW  Elec       q    Type
REMARK                         _______ _______ _______ _____ _____    ______ ____
ROOT
ATOM      1  C   UNL     1      35.594 -22.103 -19.449  0.00  0.00    +0.074 C 
ENDROOT
BRANCH   1   2
ATOM      2  C   UNL     1      35.640 -20.839 -20.164  0.00  0.00    -0.016 C 
ATOM      3  C   UNL     1      35.730 -18.411 -21.536  0.00  0.00    +0.145 C 
ATOM      4  C   UNL     1      34.464 -20.268 -20.651  0.00  0.00    -0.001 C 
ATOM      5  C   UNL     1      36.861 -20.194 -20.362  0.00  0.00    -0.001 C 
ATOM      6  C   UNL     1      34.509 -19.054 -21.337  0.00  0.00    +0.037 C 
ATOM      7  C   UNL     1      36.906 -18.980 -21.048  0.00  0.00    +0.037 C 
BRANCH   3   8
ATOM      8  O   UNL     1      35.773 -17.226 -22.204  0.00  0.00    -0.453 OA
BRANCH   8  10
ATOM      9 BR   UNL     1      34.240 -16.364 -24.783  0.00  0.00    -0.046 Br
ATOM     10  C   UNL     1      34.767 -16.308 -21.954  0.00  0.00    +0.151 C 
ATOM     11  C   UNL     1      33.986 -15.818 -22.986  0.00  0.00    +0.069 C 
ATOM     12  C   UNL     1      34.575 -15.904 -20.644  0.00  0.00    +0.038 C 
ATOM     13  C   UNL     1      32.981 -14.894 -22.700  0.00  0.00    +0.010 C 
ATOM     14  C   UNL     1      33.569 -14.980 -20.358  0.00  0.00    +0.003 C 
ATOM     15  C   UNL     1      32.773 -14.475 -21.386  0.00  0.00    +0.001 C 
ENDBRANCH   8  10
ENDBRANCH   3   8
ENDBRANCH   1   2
BRANCH   1  16
ATOM     16  CA  UNL     1      35.488 -22.261 -18.108  0.00  0.00    +0.108 C 
ATOM     17  O   UNL     1      35.134 -22.629 -15.300  0.00  0.00    -0.270 OA
ATOM     18  N   UNL     1      34.330 -22.629 -17.482  0.00  0.00    -0.278 N 
ATOM     19  C   UNL     1      34.223 -22.791 -16.110  0.00  0.00    +0.249 C 
ATOM     20  H   UNL     1      33.530 -22.787 -18.035  0.00  0.00    +0.155 HD
BRANCH  19  21
ATOM     21  C   UNL     1      32.876 -23.172 -15.611  0.00  0.00    +0.054 C 
ATOM     22  C   UNL     1      31.799 -23.077 -16.468  0.00  0.00    +0.005 C 
ATOM     23  C   UNL     1      32.747 -23.610 -14.311  0.00  0.00    +0.005 C 
ATOM     24  C   UNL     1      30.535 -23.435 -16.001  0.00  0.00    +0.000 C 
ATOM     25  C   UNL     1      31.482 -23.968 -13.844  0.00  0.00    +0.000 C 
ATOM     26  C   UNL     1      30.375 -23.880 -14.690  0.00  0.00    +0.000 C 
ENDBRANCH  19  21
BRANCH  16  28
ATOM     27  OXT UNL     1      37.472 -22.857 -16.876  0.00  0.00    -0.244 OA
ATOM     28  C   UNL     1      36.691 -22.006 -17.273  0.00  0.00    +0.348 C 
BRANCH  28  29
ATOM     29  O   UNL     1      36.817 -20.685 -16.998  0.00  0.00    -0.476 OA
ATOM     30  H   UNL     1      36.605 -20.362 -16.145  0.00  0.00    +0.295 HD
ENDBRANCH  28  29
ENDBRANCH  16  28
ENDBRANCH   1  16
TORSDOF 7
ENDMDL
