MODEL 1
REMARK VINA RESULT:      -9.8      0.000      0.000
REMARK  Name = 5287846
REMARK  4 active torsions:
REMARK  status: ('A' for Active; 'I' for Inactive)
REMARK    1  A    between atoms: C_4  and  C_15
REMARK    2  A    between atoms: C_12  and  C_20
REMARK    3  A    between atoms: C_15  and  O_18
REMARK    4  A    between atoms: C_20  and  C_23
REMARK                            x       y       z     vdW  Elec       q    Type
REMARK                         _______ _______ _______ _____ _____    ______ ____
ROOT
ATOM      1  O   UNL     1      34.715 -24.089 -15.749  0.00  0.00    -0.477 OA
ATOM      2  O   UNL     1      33.195 -21.470 -19.509  0.00  0.00    -0.421 OA
ATOM      3  O   UNL     1      32.527 -20.211 -21.292  0.00  0.00    -0.245 OA
ATOM      4  C   UNL     1      36.073 -24.397 -15.335  0.00  0.00    +0.194 C 
ATOM      5  C   UNL     1      37.002 -23.265 -15.798  0.00  0.00    +0.075 C 
ATOM      6  C   UNL     1      36.171 -22.708 -16.890  0.00  0.00    +0.016 C 
ATOM      7  C   UNL     1      34.877 -23.202 -16.782  0.00  0.00    +0.138 C 
ATOM      8  C   UNL     1      36.506 -21.788 -17.868  0.00  0.00    +0.002 C 
ATOM      9  C   UNL     1      35.509 -21.372 -18.758  0.00  0.00    +0.034 C 
ATOM     10  C   UNL     1      33.869 -22.802 -17.635  0.00  0.00    +0.074 C 
ATOM     11  C   UNL     1      34.212 -21.883 -18.626  0.00  0.00    +0.152 C 
ATOM     12  C   UNL     1      34.808 -20.021 -20.657  0.00  0.00    +0.057 C 
ATOM     13  C   UNL     1      35.775 -20.413 -19.817  0.00  0.00    +0.005 C 
ATOM     14  C   UNL     1      33.427 -20.555 -20.533  0.00  0.00    +0.342 C 
ENDROOT
BRANCH   4  15
ATOM     15  C   UNL     1      36.097 -24.591 -13.827  0.00  0.00    +0.125 C 
ATOM     16  C   UNL     1      34.744 -24.241 -13.203  0.00  0.00    +0.033 C 
ATOM     17  C   UNL     1      37.209 -23.757 -13.189  0.00  0.00    +0.033 C 
BRANCH  15  18
ATOM     18  O   UNL     1      36.379 -25.965 -13.543  0.00  0.00    -0.383 OA
ATOM     19  H   UNL     1      37.331 -26.126 -13.635  0.00  0.00    +0.210 HD
ENDBRANCH  15  18
ENDBRANCH   4  15
BRANCH  12  20
ATOM     20  C   UNL     1      35.055 -19.034 -21.757  0.00  0.00    +0.044 C 
ATOM     21  C   UNL     1      34.229 -17.761 -21.481  0.00  0.00    +0.009 C 
ATOM     22  C   UNL     1      36.549 -18.658 -21.767  0.00  0.00    +0.009 C 
BRANCH  20  23
ATOM     23  C   UNL     1      34.684 -19.549 -23.143  0.00  0.00    -0.022 C 
ATOM     24  C   UNL     1      34.679 -18.865 -24.295  0.00  0.00    -0.005 C 
ENDBRANCH  20  23
ENDBRANCH  12  20
TORSDOF 4
ENDMDL
MODEL 2
REMARK VINA RESULT:      -9.5      5.922     11.226
REMARK  Name = 5287846
REMARK  4 active torsions:
REMARK  status: ('A' for Active; 'I' for Inactive)
REMARK    1  A    between atoms: C_4  and  C_15
REMARK    2  A    between atoms: C_12  and  C_20
REMARK    3  A    between atoms: C_15  and  O_18
REMARK    4  A    between atoms: C_20  and  C_23
REMARK                            x       y       z     vdW  Elec       q    Type
REMARK                         _______ _______ _______ _____ _____    ______ ____
ROOT
ATOM      1  O   UNL     1      32.769 -11.093 -23.444  0.00  0.00    -0.477 OA
ATOM      2  O   UNL     1      34.665 -15.502 -23.970  0.00  0.00    -0.421 OA
ATOM      3  O   UNL     1      35.540 -17.601 -24.169  0.00  0.00    -0.245 OA
ATOM      4  C   UNL     1      31.738 -10.642 -22.527  0.00  0.00    +0.194 C 
ATOM      5  C   UNL     1      31.770 -11.525 -21.270  0.00  0.00    +0.075 C 
ATOM      6  C   UNL     1      32.446 -12.715 -21.835  0.00  0.00    +0.016 C 
ATOM      7  C   UNL     1      33.011 -12.387 -23.060  0.00  0.00    +0.138 C 
ATOM      8  C   UNL     1      32.607 -13.977 -21.288  0.00  0.00    +0.002 C 
ATOM      9  C   UNL     1      33.348 -14.922 -22.006  0.00  0.00    +0.034 C 
ATOM     10  C   UNL     1      33.759 -13.292 -23.786  0.00  0.00    +0.074 C 
ATOM     11  C   UNL     1      33.910 -14.564 -23.237  0.00  0.00    +0.152 C 
ATOM     12  C   UNL     1      34.280 -17.162 -22.204  0.00  0.00    +0.057 C 
ATOM     13  C   UNL     1      33.563 -16.270 -21.507  0.00  0.00    +0.005 C 
ATOM     14  C   UNL     1      34.881 -16.800 -23.514  0.00  0.00    +0.342 C 
ENDROOT
BRANCH   4  15
ATOM     15  C   UNL     1      31.965  -9.172 -22.214  0.00  0.00    +0.125 C 
ATOM     16  C   UNL     1      33.280  -8.674 -22.820  0.00  0.00    +0.033 C 
ATOM     17  C   UNL     1      31.951  -8.929 -20.703  0.00  0.00    +0.033 C 
BRANCH  15  18
ATOM     18  O   UNL     1      30.895  -8.408 -22.777  0.00  0.00    -0.383 OA
ATOM     19  H   UNL     1      31.227  -7.540 -23.055  0.00  0.00    +0.210 HD
ENDBRANCH  15  18
ENDBRANCH   4  15
BRANCH  12  20
ATOM     20  C   UNL     1      34.517 -18.558 -21.714  0.00  0.00    +0.044 C 
ATOM     21  C   UNL     1      34.556 -19.513 -22.925  0.00  0.00    +0.009 C 
ATOM     22  C   UNL     1      35.882 -18.613 -21.000  0.00  0.00    +0.009 C 
BRANCH  20  23
ATOM     23  C   UNL     1      33.453 -19.060 -20.746  0.00  0.00    -0.022 C 
ATOM     24  C   UNL     1      33.090 -20.330 -20.517  0.00  0.00    -0.005 C 
ENDBRANCH  20  23
ENDBRANCH  12  20
TORSDOF 4
ENDMDL
MODEL 3
REMARK VINA RESULT:      -9.3      1.859      8.075
REMARK  Name = 5287846
REMARK  4 active torsions:
REMARK  status: ('A' for Active; 'I' for Inactive)
REMARK    1  A    between atoms: C_4  and  C_15
REMARK    2  A    between atoms: C_12  and  C_20
REMARK    3  A    between atoms: C_15  and  O_18
REMARK    4  A    between atoms: C_20  and  C_23
REMARK                            x       y       z     vdW  Elec       q    Type
REMARK                         _______ _______ _______ _____ _____    ______ ____
ROOT
ATOM      1  O   UNL     1      36.406 -19.692 -21.058  0.00  0.00    -0.477 OA
ATOM      2  O   UNL     1      37.398 -22.121 -17.004  0.00  0.00    -0.421 OA
ATOM      3  O   UNL     1      37.812 -23.284 -15.085  0.00  0.00    -0.245 OA
ATOM      4  C   UNL     1      35.242 -19.784 -21.920  0.00  0.00    +0.194 C 
ATOM      5  C   UNL     1      34.035 -20.229 -21.079  0.00  0.00    +0.075 C 
ATOM      6  C   UNL     1      34.755 -20.864 -19.952  0.00  0.00    +0.016 C 
ATOM      7  C   UNL     1      36.092 -20.493 -19.990  0.00  0.00    +0.138 C 
ATOM      8  C   UNL     1      34.261 -21.659 -18.931  0.00  0.00    +0.002 C 
ATOM      9  C   UNL     1      35.149 -22.091 -17.938  0.00  0.00    +0.034 C 
ATOM     10  C   UNL     1      36.989 -20.892 -19.020  0.00  0.00    +0.074 C 
ATOM     11  C   UNL     1      36.492 -21.700 -17.999  0.00  0.00    +0.152 C 
ATOM     12  C   UNL     1      35.578 -23.331 -15.888  0.00  0.00    +0.057 C 
ATOM     13  C   UNL     1      34.717 -22.930 -16.833  0.00  0.00    +0.005 C 
ATOM     14  C   UNL     1      37.008 -22.928 -15.939  0.00  0.00    +0.342 C 
ENDROOT
BRANCH   4  15
ATOM     15  C   UNL     1      35.019 -18.439 -22.593  0.00  0.00    +0.125 C 
ATOM     16  C   UNL     1      34.188 -17.508 -21.706  0.00  0.00    +0.033 C 
ATOM     17  C   UNL     1      34.346 -18.617 -23.955  0.00  0.00    +0.033 C 
BRANCH  15  18
ATOM     18  O   UNL     1      36.290 -17.822 -22.824  0.00  0.00    -0.383 OA
ATOM     19  H   UNL     1      36.158 -16.902 -23.098  0.00  0.00    +0.210 HD
ENDBRANCH  15  18
ENDBRANCH   4  15
BRANCH  12  20
ATOM     20  C   UNL     1      35.160 -24.196 -14.738  0.00  0.00    +0.044 C 
ATOM     21  C   UNL     1      33.619 -24.252 -14.690  0.00  0.00    +0.009 C 
ATOM     22  C   UNL     1      35.696 -25.623 -14.964  0.00  0.00    +0.009 C 
BRANCH  20  23
ATOM     23  C   UNL     1      35.661 -23.708 -13.385  0.00  0.00    -0.022 C 
ATOM     24  C   UNL     1      35.272 -24.123 -12.171  0.00  0.00    -0.005 C 
ENDBRANCH  20  23
ENDBRANCH  12  20
TORSDOF 4
ENDMDL
MODEL 4
REMARK VINA RESULT:      -9.1      4.510      8.001
REMARK  Name = 5287846
REMARK  4 active torsions:
REMARK  status: ('A' for Active; 'I' for Inactive)
REMARK    1  A    between atoms: C_4  and  C_15
REMARK    2  A    between atoms: C_12  and  C_20
REMARK    3  A    between atoms: C_15  and  O_18
REMARK    4  A    between atoms: C_20  and  C_23
REMARK                            x       y       z     vdW  Elec       q    Type
REMARK                         _______ _______ _______ _____ _____    ______ ____
ROOT
ATOM      1  O   UNL     1      31.542 -23.166 -16.819  0.00  0.00    -0.477 OA
ATOM      2  O   UNL     1      36.297 -23.336 -15.998  0.00  0.00    -0.421 OA
ATOM      3  O   UNL     1      38.535 -23.441 -15.561  0.00  0.00    -0.245 OA
ATOM      4  C   UNL     1      30.471 -23.889 -16.158  0.00  0.00    +0.194 C 
ATOM      5  C   UNL     1      30.904 -24.211 -14.719  0.00  0.00    +0.075 C 
ATOM      6  C   UNL     1      32.372 -24.117 -14.887  0.00  0.00    +0.016 C 
ATOM      7  C   UNL     1      32.659 -23.489 -16.092  0.00  0.00    +0.138 C 
ATOM      8  C   UNL     1      33.382 -24.497 -14.019  0.00  0.00    +0.002 C 
ATOM      9  C   UNL     1      34.707 -24.242 -14.392  0.00  0.00    +0.034 C 
ATOM     10  C   UNL     1      33.954 -23.213 -16.481  0.00  0.00    +0.074 C 
ATOM     11  C   UNL     1      34.969 -23.606 -15.611  0.00  0.00    +0.152 C 
ATOM     12  C   UNL     1      37.091 -24.356 -13.912  0.00  0.00    +0.057 C 
ATOM     13  C   UNL     1      35.828 -24.611 -13.544  0.00  0.00    +0.005 C 
ATOM     14  C   UNL     1      37.387 -23.683 -15.204  0.00  0.00    +0.342 C 
ENDROOT
BRANCH   4  15
ATOM     15  C   UNL     1      29.203 -23.052 -16.212  0.00  0.00    +0.125 C 
ATOM     16  C   UNL     1      28.936 -22.366 -14.869  0.00  0.00    +0.033 C 
ATOM     17  C   UNL     1      28.002 -23.908 -16.620  0.00  0.00    +0.033 C 
BRANCH  15  18
ATOM     18  O   UNL     1      29.362 -22.038 -17.209  0.00  0.00    -0.383 OA
ATOM     19  H   UNL     1      30.190 -21.558 -17.054  0.00  0.00    +0.210 HD
ENDBRANCH  15  18
ENDBRANCH   4  15
BRANCH  12  20
ATOM     20  C   UNL     1      38.264 -24.725 -13.057  0.00  0.00    +0.044 C 
ATOM     21  C   UNL     1      38.497 -23.610 -12.018  0.00  0.00    +0.009 C 
ATOM     22  C   UNL     1      37.947 -26.035 -12.310  0.00  0.00    +0.009 C 
BRANCH  20  23
ATOM     23  C   UNL     1      39.558 -24.924 -13.839  0.00  0.00    -0.022 C 
ATOM     24  C   UNL     1      40.231 -26.068 -14.027  0.00  0.00    -0.005 C 
ENDBRANCH  20  23
ENDBRANCH  12  20
TORSDOF 4
ENDMDL
MODEL 5
REMARK VINA RESULT:      -9.0      6.530     10.528
REMARK  Name = 5287846
REMARK  4 active torsions:
REMARK  status: ('A' for Active; 'I' for Inactive)
REMARK    1  A    between atoms: C_4  and  C_15
REMARK    2  A    between atoms: C_12  and  C_20
REMARK    3  A    between atoms: C_15  and  O_18
REMARK    4  A    between atoms: C_20  and  C_23
REMARK                            x       y       z     vdW  Elec       q    Type
REMARK                         _______ _______ _______ _____ _____    ______ ____
ROOT
ATOM      1  O   UNL     1      33.426 -16.621 -22.086  0.00  0.00    -0.477 OA
ATOM      2  O   UNL     1      31.801 -12.173 -21.144  0.00  0.00    -0.421 OA
ATOM      3  O   UNL     1      31.063 -10.051 -20.741  0.00  0.00    -0.245 OA
ATOM      4  C   UNL     1      34.071 -17.127 -23.285  0.00  0.00    +0.194 C 
ATOM      5  C   UNL     1      34.808 -15.970 -23.978  0.00  0.00    +0.075 C 
ATOM      6  C   UNL     1      34.057 -14.832 -23.400  0.00  0.00    +0.016 C 
ATOM      7  C   UNL     1      33.314 -15.273 -22.314  0.00  0.00    +0.138 C 
ATOM      8  C   UNL     1      34.072 -13.495 -23.762  0.00  0.00    +0.002 C 
ATOM      9  C   UNL     1      33.308 -12.596 -23.009  0.00  0.00    +0.034 C 
ATOM     10  C   UNL     1      32.562 -14.410 -21.544  0.00  0.00    +0.074 C 
ATOM     11  C   UNL     1      32.570 -13.066 -21.916  0.00  0.00    +0.152 C 
ATOM     12  C   UNL     1      32.532 -10.328 -22.587  0.00  0.00    +0.057 C 
ATOM     13  C   UNL     1      33.263 -11.177 -23.321  0.00  0.00    +0.005 C 
ATOM     14  C   UNL     1      31.740 -10.811 -21.425  0.00  0.00    +0.342 C 
ENDROOT
BRANCH   4  15
ATOM     15  C   UNL     1      35.003 -18.265 -22.901  0.00  0.00    +0.125 C 
ATOM     16  C   UNL     1      34.937 -19.402 -23.923  0.00  0.00    +0.033 C 
ATOM     17  C   UNL     1      34.675 -18.789 -21.501  0.00  0.00    +0.033 C 
BRANCH  15  18
ATOM     18  O   UNL     1      36.345 -17.770 -22.866  0.00  0.00    -0.383 OA
ATOM     19  H   UNL     1      36.412 -17.059 -22.210  0.00  0.00    +0.210 HD
ENDBRANCH  15  18
ENDBRANCH   4  15
BRANCH  12  20
ATOM     20  C   UNL     1      32.467  -8.861 -22.886  0.00  0.00    +0.044 C 
ATOM     21  C   UNL     1      31.111  -8.545 -23.548  0.00  0.00    +0.009 C 
ATOM     22  C   UNL     1      32.563  -8.075 -21.564  0.00  0.00    +0.009 C 
BRANCH  20  23
ATOM     23  C   UNL     1      33.574  -8.371 -23.812  0.00  0.00    -0.022 C 
ATOM     24  C   UNL     1      34.527  -7.468 -23.540  0.00  0.00    -0.005 C 
ENDBRANCH  20  23
ENDBRANCH  12  20
TORSDOF 4
ENDMDL
MODEL 6
REMARK VINA RESULT:      -8.9      2.474      7.822
REMARK  Name = 5287846
REMARK  4 active torsions:
REMARK  status: ('A' for Active; 'I' for Inactive)
REMARK    1  A    between atoms: C_4  and  C_15
REMARK    2  A    between atoms: C_12  and  C_20
REMARK    3  A    between atoms: C_15  and  O_18
REMARK    4  A    between atoms: C_20  and  C_23
REMARK                            x       y       z     vdW  Elec       q    Type
REMARK                         _______ _______ _______ _____ _____    ______ ____
ROOT
ATOM      1  O   UNL     1      35.797 -20.495 -20.714  0.00  0.00    -0.477 OA
ATOM      2  O   UNL     1      34.826 -23.196 -16.832  0.00  0.00    -0.421 OA
ATOM      3  O   UNL     1      34.312 -24.461 -15.003  0.00  0.00    -0.245 OA
ATOM      4  C   UNL     1      34.896 -20.017 -21.748  0.00  0.00    +0.194 C 
ATOM      5  C   UNL     1      33.488 -19.870 -21.149  0.00  0.00    +0.075 C 
ATOM      6  C   UNL     1      33.624 -20.792 -19.998  0.00  0.00    +0.016 C 
ATOM      7  C   UNL     1      34.966 -21.083 -19.796  0.00  0.00    +0.138 C 
ATOM      8  C   UNL     1      32.647 -21.289 -19.151  0.00  0.00    +0.002 C 
ATOM      9  C   UNL     1      33.046 -22.106 -18.086  0.00  0.00    +0.034 C 
ATOM     10  C   UNL     1      35.392 -21.873 -18.748  0.00  0.00    +0.074 C 
ATOM     11  C   UNL     1      34.407 -22.381 -17.903  0.00  0.00    +0.152 C 
ATOM     12  C   UNL     1      32.486 -23.448 -16.134  0.00  0.00    +0.057 C 
ATOM     13  C   UNL     1      32.088 -22.673 -17.152  0.00  0.00    +0.005 C 
ATOM     14  C   UNL     1      33.926 -23.753 -15.927  0.00  0.00    +0.342 C 
ENDROOT
BRANCH   4  15
ATOM     15  C   UNL     1      35.432 -18.708 -22.304  0.00  0.00    +0.125 C 
ATOM     16  C   UNL     1      34.737 -17.507 -21.658  0.00  0.00    +0.033 C 
ATOM     17  C   UNL     1      35.277 -18.658 -23.825  0.00  0.00    +0.033 C 
BRANCH  15  18
ATOM     18  O   UNL     1      36.832 -18.623 -22.016  0.00  0.00    -0.383 OA
ATOM     19  H   UNL     1      36.973 -18.015 -21.274  0.00  0.00    +0.210 HD
ENDBRANCH  15  18
ENDBRANCH   4  15
BRANCH  12  20
ATOM     20  C   UNL     1      31.521 -24.045 -15.157  0.00  0.00    +0.044 C 
ATOM     21  C   UNL     1      32.279 -25.030 -14.244  0.00  0.00    +0.009 C 
ATOM     22  C   UNL     1      30.931 -22.921 -14.284  0.00  0.00    +0.009 C 
BRANCH  20  23
ATOM     23  C   UNL     1      30.367 -24.795 -15.811  0.00  0.00    -0.022 C 
ATOM     24  C   UNL     1      29.068 -24.463 -15.806  0.00  0.00    -0.005 C 
ENDBRANCH  20  23
ENDBRANCH  12  20
TORSDOF 4
ENDMDL
MODEL 7
REMARK VINA RESULT:      -8.5      1.588      7.803
REMARK  Name = 5287846
REMARK  4 active torsions:
REMARK  status: ('A' for Active; 'I' for Inactive)
REMARK    1  A    between atoms: C_4  and  C_15
REMARK    2  A    between atoms: C_12  and  C_20
REMARK    3  A    between atoms: C_15  and  O_18
REMARK    4  A    between atoms: C_20  and  C_23
REMARK                            x       y       z     vdW  Elec       q    Type
REMARK                         _______ _______ _______ _____ _____    ______ ____
ROOT
ATOM      1  O   UNL     1      34.249 -19.704 -21.345  0.00  0.00    -0.477 OA
ATOM      2  O   UNL     1      33.848 -22.856 -17.710  0.00  0.00    -0.421 OA
ATOM      3  O   UNL     1      33.713 -24.337 -15.978  0.00  0.00    -0.245 OA
ATOM      4  C   UNL     1      35.275 -18.704 -21.583  0.00  0.00    +0.194 C 
ATOM      5  C   UNL     1      36.589 -19.181 -20.945  0.00  0.00    +0.075 C 
ATOM      6  C   UNL     1      36.039 -20.132 -19.953  0.00  0.00    +0.016 C 
ATOM      7  C   UNL     1      34.711 -20.402 -20.259  0.00  0.00    +0.138 C 
ATOM      8  C   UNL     1      36.672 -20.765 -18.896  0.00  0.00    +0.002 C 
ATOM      9  C   UNL     1      35.937 -21.678 -18.133  0.00  0.00    +0.034 C 
ATOM     10  C   UNL     1      33.964 -21.307 -19.534  0.00  0.00    +0.074 C 
ATOM     11  C   UNL     1      34.601 -21.934 -18.464  0.00  0.00    +0.152 C 
ATOM     12  C   UNL     1      35.806 -23.259 -16.286  0.00  0.00    +0.057 C 
ATOM     13  C   UNL     1      36.522 -22.383 -17.004  0.00  0.00    +0.005 C 
ATOM     14  C   UNL     1      34.386 -23.540 -16.623  0.00  0.00    +0.342 C 
ENDROOT
BRANCH   4  15
ATOM     15  C   UNL     1      35.403 -18.476 -23.081  0.00  0.00    +0.125 C 
ATOM     16  C   UNL     1      34.908 -17.081 -23.471  0.00  0.00    +0.033 C 
ATOM     17  C   UNL     1      34.640 -19.548 -23.862  0.00  0.00    +0.033 C 
BRANCH  15  18
ATOM     18  O   UNL     1      36.782 -18.582 -23.448  0.00  0.00    -0.383 OA
ATOM     19  H   UNL     1      37.331 -18.160 -22.770  0.00  0.00    +0.210 HD
ENDBRANCH  15  18
ENDBRANCH   4  15
BRANCH  12  20
ATOM     20  C   UNL     1      36.383 -23.999 -15.119  0.00  0.00    +0.044 C 
ATOM     21  C   UNL     1      37.922 -23.908 -15.181  0.00  0.00    +0.009 C 
ATOM     22  C   UNL     1      35.904 -23.330 -13.815  0.00  0.00    +0.009 C 
BRANCH  20  23
ATOM     23  C   UNL     1      35.996 -25.472 -15.069  0.00  0.00    -0.022 C 
ATOM     24  C   UNL     1      36.814 -26.533 -15.058  0.00  0.00    -0.005 C 
ENDBRANCH  20  23
ENDBRANCH  12  20
TORSDOF 4
ENDMDL
MODEL 8
REMARK VINA RESULT:      -8.4      7.821     11.970
REMARK  Name = 5287846
REMARK  4 active torsions:
REMARK  status: ('A' for Active; 'I' for Inactive)
REMARK    1  A    between atoms: C_4  and  C_15
REMARK    2  A    between atoms: C_12  and  C_20
REMARK    3  A    between atoms: C_15  and  O_18
REMARK    4  A    between atoms: C_20  and  C_23
REMARK                            x       y       z     vdW  Elec       q    Type
REMARK                         _______ _______ _______ _____ _____    ______ ____
ROOT
ATOM      1  O   UNL     1      33.179 -15.217 -22.582  0.00  0.00    -0.477 OA
ATOM      2  O   UNL     1      31.936 -10.676 -21.513  0.00  0.00    -0.421 OA
ATOM      3  O   UNL     1      31.375  -8.512 -21.053  0.00  0.00    -0.245 OA
ATOM      4  C   UNL     1      33.662 -15.764 -23.838  0.00  0.00    +0.194 C 
ATOM      5  C   UNL     1      34.391 -14.656 -24.614  0.00  0.00    +0.075 C 
ATOM      6  C   UNL     1      33.776 -13.473 -23.971  0.00  0.00    +0.016 C 
ATOM      7  C   UNL     1      33.126 -13.866 -22.808  0.00  0.00    +0.138 C 
ATOM      8  C   UNL     1      33.834 -12.141 -24.343  0.00  0.00    +0.002 C 
ATOM      9  C   UNL     1      33.210 -11.194 -23.522  0.00  0.00    +0.034 C 
ATOM     10  C   UNL     1      32.513 -12.956 -21.971  0.00  0.00    +0.074 C 
ATOM     11  C   UNL     1      32.564 -11.616 -22.354  0.00  0.00    +0.152 C 
ATOM     12  C   UNL     1      32.622  -8.882 -23.040  0.00  0.00    +0.057 C 
ATOM     13  C   UNL     1      33.220  -9.776 -23.839  0.00  0.00    +0.005 C 
ATOM     14  C   UNL     1      31.929  -9.313 -21.798  0.00  0.00    +0.342 C 
ENDROOT
BRANCH   4  15
ATOM     15  C   UNL     1      34.558 -16.957 -23.544  0.00  0.00    +0.125 C 
ATOM     16  C   UNL     1      34.459 -18.009 -24.651  0.00  0.00    +0.033 C 
ATOM     17  C   UNL     1      34.212 -17.577 -22.189  0.00  0.00    +0.033 C 
BRANCH  15  18
ATOM     18  O   UNL     1      35.915 -16.508 -23.472  0.00  0.00    -0.383 OA
ATOM     19  H   UNL     1      36.478 -17.230 -23.152  0.00  0.00    +0.210 HD
ENDBRANCH  15  18
ENDBRANCH   4  15
BRANCH  12  20
ATOM     20  C   UNL     1      32.616  -7.415 -23.344  0.00  0.00    +0.044 C 
ATOM     21  C   UNL     1      32.692  -6.630 -22.018  0.00  0.00    +0.009 C 
ATOM     22  C   UNL     1      33.859  -7.073 -24.189  0.00  0.00    +0.009 C 
BRANCH  20  23
ATOM     23  C   UNL     1      31.381  -6.947 -24.103  0.00  0.00    -0.022 C 
ATOM     24  C   UNL     1      31.139  -5.725 -24.597  0.00  0.00    -0.005 C 
ENDBRANCH  20  23
ENDBRANCH  12  20
TORSDOF 4
ENDMDL
MODEL 9
REMARK VINA RESULT:      -8.4      5.871      9.667
REMARK  Name = 5287846
REMARK  4 active torsions:
REMARK  status: ('A' for Active; 'I' for Inactive)
REMARK    1  A    between atoms: C_4  and  C_15
REMARK    2  A    between atoms: C_12  and  C_20
REMARK    3  A    between atoms: C_15  and  O_18
REMARK    4  A    between atoms: C_20  and  C_23
REMARK                            x       y       z     vdW  Elec       q    Type
REMARK                         _______ _______ _______ _____ _____    ______ ____
ROOT
ATOM      1  O   UNL     1      35.084 -17.016 -22.823  0.00  0.00    -0.477 OA
ATOM      2  O   UNL     1      33.739 -12.452 -23.641  0.00  0.00    -0.421 OA
ATOM      3  O   UNL     1      33.073 -10.295 -23.980  0.00  0.00    -0.245 OA
ATOM      4  C   UNL     1      35.020 -17.785 -21.593  0.00  0.00    +0.194 C 
ATOM      5  C   UNL     1      33.865 -17.249 -20.732  0.00  0.00    +0.075 C 
ATOM      6  C   UNL     1      33.745 -15.894 -21.316  0.00  0.00    +0.016 C 
ATOM      7  C   UNL     1      34.442 -15.844 -22.516  0.00  0.00    +0.138 C 
ATOM      8  C   UNL     1      33.024 -14.802 -20.861  0.00  0.00    +0.002 C 
ATOM      9  C   UNL     1      33.025 -13.637 -21.637  0.00  0.00    +0.034 C 
ATOM     10  C   UNL     1      34.450 -14.716 -23.310  0.00  0.00    +0.074 C 
ATOM     11  C   UNL     1      33.733 -13.614 -22.844  0.00  0.00    +0.152 C 
ATOM     12  C   UNL     1      32.304 -11.339 -21.990  0.00  0.00    +0.057 C 
ATOM     13  C   UNL     1      32.299 -12.444 -21.233  0.00  0.00    +0.005 C 
ATOM     14  C   UNL     1      33.054 -11.297 -23.272  0.00  0.00    +0.342 C 
ENDROOT
BRANCH   4  15
ATOM     15  C   UNL     1      34.857 -19.256 -21.938  0.00  0.00    +0.125 C 
ATOM     16  C   UNL     1      34.908 -19.478 -23.452  0.00  0.00    +0.033 C 
ATOM     17  C   UNL     1      33.551 -19.808 -21.363  0.00  0.00    +0.033 C 
BRANCH  15  18
ATOM     18  O   UNL     1      35.929 -19.992 -21.340  0.00  0.00    -0.383 OA
ATOM     19  H   UNL     1      35.841 -20.931 -21.565  0.00  0.00    +0.210 HD
ENDBRANCH  15  18
ENDBRANCH   4  15
BRANCH  12  20
ATOM     20  C   UNL     1      31.566 -10.096 -21.597  0.00  0.00    +0.044 C 
ATOM     21  C   UNL     1      30.450  -9.831 -22.628  0.00  0.00    +0.009 C 
ATOM     22  C   UNL     1      30.917 -10.313 -20.216  0.00  0.00    +0.009 C 
BRANCH  20  23
ATOM     23  C   UNL     1      32.446  -8.854 -21.519  0.00  0.00    -0.022 C 
ATOM     24  C   UNL     1      32.642  -8.056 -20.460  0.00  0.00    -0.005 C 
ENDBRANCH  20  23
ENDBRANCH  12  20
TORSDOF 4
ENDMDL
