MODEL 1
REMARK VINA RESULT:      -8.1      0.000      0.000
REMARK  Name = 33039
REMARK  3 active torsions:
REMARK  status: ('A' for Active; 'I' for Inactive)
REMARK    1  A    between atoms: N_3  and  C_13
REMARK    2  A    between atoms: C_16  and  C_17
REMARK    3  A    between atoms: C_17  and  O_18
REMARK                            x       y       z     vdW  Elec       q    Type
REMARK                         _______ _______ _______ _____ _____    ______ ____
ROOT
ATOM      1  O   UNL     1      34.252 -23.115 -18.396  0.00  0.00    -0.252 OA
ATOM      2  O   UNL     1      29.913 -22.445 -17.026  0.00  0.00    -0.270 OA
ATOM      3  N   UNL     1      33.724 -23.480 -16.153  0.00  0.00    -0.219 N 
ATOM      4  N   UNL     1      32.092 -22.784 -17.698  0.00  0.00    -0.236 N 
ATOM      5  C   UNL     1      32.757 -23.477 -15.168  0.00  0.00    +0.071 C 
ATOM      6  C   UNL     1      33.430 -23.129 -17.477  0.00  0.00    +0.315 C 
ATOM      7  C   UNL     1      31.478 -23.146 -15.384  0.00  0.00    +0.047 C 
ATOM      8  C   UNL     1      31.071 -22.758 -16.761  0.00  0.00    +0.250 C 
ATOM      9  C   UNL     1      30.433 -23.143 -14.315  0.00  0.00    +0.037 C 
ATOM     10  H   UNL     1      31.850 -22.532 -18.619  0.00  0.00    +0.159 HD
ENDROOT
BRANCH   3  13
ATOM     11  F   UNL     1      37.822 -23.957 -15.080  0.00  0.00    -0.234 F 
ATOM     12  O   UNL     1      34.999 -24.785 -14.685  0.00  0.00    -0.334 OA
ATOM     13  C   UNL     1      35.055 -23.857 -15.780  0.00  0.00    +0.202 C 
ATOM     14  C   UNL     1      35.895 -22.680 -15.319  0.00  0.00    +0.089 C 
ATOM     15  C   UNL     1      36.845 -23.342 -14.355  0.00  0.00    +0.195 C 
ATOM     16  C   UNL     1      35.990 -24.415 -13.707  0.00  0.00    +0.179 C 
BRANCH  16  17
ATOM     17  C   UNL     1      35.260 -23.924 -12.463  0.00  0.00    +0.170 C 
BRANCH  17  18
ATOM     18  O   UNL     1      34.881 -25.047 -11.687  0.00  0.00    -0.379 OA
ATOM     19  H   UNL     1      33.919 -25.160 -11.728  0.00  0.00    +0.211 HD
ENDBRANCH  17  18
ENDBRANCH  16  17
ENDBRANCH   3  13
TORSDOF 3
ENDMDL
MODEL 2
REMARK VINA RESULT:      -7.9      8.401     10.015
REMARK  Name = 33039
REMARK  3 active torsions:
REMARK  status: ('A' for Active; 'I' for Inactive)
REMARK    1  A    between atoms: N_3  and  C_13
REMARK    2  A    between atoms: C_16  and  C_17
REMARK    3  A    between atoms: C_17  and  O_18
REMARK                            x       y       z     vdW  Elec       q    Type
REMARK                         _______ _______ _______ _____ _____    ______ ____
ROOT
ATOM      1  O   UNL     1      34.795 -17.952 -25.638  0.00  0.00    -0.252 OA
ATOM      2  O   UNL     1      32.772 -13.838 -25.277  0.00  0.00    -0.270 OA
ATOM      3  N   UNL     1      34.581 -16.999 -23.520  0.00  0.00    -0.219 N 
ATOM      4  N   UNL     1      33.789 -15.901 -25.443  0.00  0.00    -0.236 N 
ATOM      5  C   UNL     1      34.141 -15.934 -22.760  0.00  0.00    +0.071 C 
ATOM      6  C   UNL     1      34.423 -17.029 -24.910  0.00  0.00    +0.315 C 
ATOM      7  C   UNL     1      33.535 -14.856 -23.273  0.00  0.00    +0.047 C 
ATOM      8  C   UNL     1      33.322 -14.798 -24.744  0.00  0.00    +0.250 C 
ATOM      9  C   UNL     1      33.060 -13.704 -22.448  0.00  0.00    +0.037 C 
ATOM     10  H   UNL     1      33.660 -15.888 -26.420  0.00  0.00    +0.159 HD
ENDROOT
BRANCH   3  13
ATOM     11  F   UNL     1      36.634 -19.790 -21.036  0.00  0.00    -0.234 F 
ATOM     12  O   UNL     1      34.323 -19.215 -22.807  0.00  0.00    -0.334 OA
ATOM     13  C   UNL     1      35.213 -18.089 -22.836  0.00  0.00    +0.202 C 
ATOM     14  C   UNL     1      35.560 -17.762 -21.396  0.00  0.00    +0.089 C 
ATOM     15  C   UNL     1      35.483 -19.119 -20.748  0.00  0.00    +0.195 C 
ATOM     16  C   UNL     1      34.344 -19.794 -21.488  0.00  0.00    +0.179 C 
BRANCH  16  17
ATOM     17  C   UNL     1      32.985 -19.544 -20.846  0.00  0.00    +0.170 C 
BRANCH  17  18
ATOM     18  O   UNL     1      32.700 -20.613 -19.960  0.00  0.00    -0.379 OA
ATOM     19  H   UNL     1      33.240 -21.383 -20.196  0.00  0.00    +0.211 HD
ENDBRANCH  17  18
ENDBRANCH  16  17
ENDBRANCH   3  13
TORSDOF 3
ENDMDL
MODEL 3
REMARK VINA RESULT:      -7.9      6.946      9.016
REMARK  Name = 33039
REMARK  3 active torsions:
REMARK  status: ('A' for Active; 'I' for Inactive)
REMARK    1  A    between atoms: N_3  and  C_13
REMARK    2  A    between atoms: C_16  and  C_17
REMARK    3  A    between atoms: C_17  and  O_18
REMARK                            x       y       z     vdW  Elec       q    Type
REMARK                         _______ _______ _______ _____ _____    ______ ____
ROOT
ATOM      1  O   UNL     1      37.901 -19.177 -21.034  0.00  0.00    -0.252 OA
ATOM      2  O   UNL     1      35.261 -22.396 -19.083  0.00  0.00    -0.270 OA
ATOM      3  N   UNL     1      35.585 -18.915 -21.115  0.00  0.00    -0.219 N 
ATOM      4  N   UNL     1      36.572 -20.775 -20.066  0.00  0.00    -0.236 N 
ATOM      5  C   UNL     1      34.343 -19.419 -20.783  0.00  0.00    +0.071 C 
ATOM      6  C   UNL     1      36.767 -19.579 -20.766  0.00  0.00    +0.315 C 
ATOM      7  C   UNL     1      34.161 -20.563 -20.114  0.00  0.00    +0.047 C 
ATOM      8  C   UNL     1      35.360 -21.339 -19.700  0.00  0.00    +0.250 C 
ATOM      9  C   UNL     1      32.814 -21.106 -19.757  0.00  0.00    +0.037 C 
ATOM     10  H   UNL     1      37.383 -21.269 -19.804  0.00  0.00    +0.159 HD
ENDROOT
BRANCH   3  13
ATOM     11  F   UNL     1      35.394 -15.553 -23.728  0.00  0.00    -0.234 F 
ATOM     12  O   UNL     1      35.283 -16.599 -20.953  0.00  0.00    -0.334 OA
ATOM     13  C   UNL     1      35.632 -17.676 -21.834  0.00  0.00    +0.202 C 
ATOM     14  C   UNL     1      34.657 -17.632 -22.996  0.00  0.00    +0.089 C 
ATOM     15  C   UNL     1      34.356 -16.159 -23.085  0.00  0.00    +0.195 C 
ATOM     16  C   UNL     1      34.373 -15.713 -21.634  0.00  0.00    +0.179 C 
BRANCH  16  17
ATOM     17  C   UNL     1      33.013 -15.827 -20.959  0.00  0.00    +0.170 C 
BRANCH  17  18
ATOM     18  O   UNL     1      32.099 -14.981 -21.634  0.00  0.00    -0.379 OA
ATOM     19  H   UNL     1      32.128 -14.094 -21.241  0.00  0.00    +0.211 HD
ENDBRANCH  17  18
ENDBRANCH  16  17
ENDBRANCH   3  13
TORSDOF 3
ENDMDL
MODEL 4
REMARK VINA RESULT:      -7.8      1.924      3.133
REMARK  Name = 33039
REMARK  3 active torsions:
REMARK  status: ('A' for Active; 'I' for Inactive)
REMARK    1  A    between atoms: N_3  and  C_13
REMARK    2  A    between atoms: C_16  and  C_17
REMARK    3  A    between atoms: C_17  and  O_18
REMARK                            x       y       z     vdW  Elec       q    Type
REMARK                         _______ _______ _______ _____ _____    ______ ____
ROOT
ATOM      1  O   UNL     1      32.355 -24.629 -13.204  0.00  0.00    -0.252 OA
ATOM      2  O   UNL     1      30.711 -22.685 -17.033  0.00  0.00    -0.270 OA
ATOM      3  N   UNL     1      33.846 -24.128 -14.926  0.00  0.00    -0.219 N 
ATOM      4  N   UNL     1      31.549 -23.660 -15.120  0.00  0.00    -0.236 N 
ATOM      5  C   UNL     1      34.033 -23.608 -16.191  0.00  0.00    +0.071 C 
ATOM      6  C   UNL     1      32.581 -24.178 -14.329  0.00  0.00    +0.315 C 
ATOM      7  C   UNL     1      33.043 -23.114 -16.945  0.00  0.00    +0.047 C 
ATOM      8  C   UNL     1      31.662 -23.124 -16.393  0.00  0.00    +0.250 C 
ATOM      9  C   UNL     1      33.249 -22.552 -18.315  0.00  0.00    +0.037 C 
ATOM     10  H   UNL     1      30.644 -23.679 -14.730  0.00  0.00    +0.159 HD
ENDROOT
BRANCH   3  13
ATOM     11  F   UNL     1      37.292 -26.064 -13.330  0.00  0.00    -0.234 F 
ATOM     12  O   UNL     1      35.862 -23.526 -13.898  0.00  0.00    -0.334 OA
ATOM     13  C   UNL     1      34.998 -24.623 -14.231  0.00  0.00    +0.202 C 
ATOM     14  C   UNL     1      35.816 -25.594 -15.062  0.00  0.00    +0.089 C 
ATOM     15  C   UNL     1      37.199 -25.381 -14.506  0.00  0.00    +0.195 C 
ATOM     16  C   UNL     1      37.223 -23.896 -14.194  0.00  0.00    +0.179 C 
BRANCH  16  17
ATOM     17  C   UNL     1      37.695 -23.048 -15.368  0.00  0.00    +0.170 C 
BRANCH  17  18
ATOM     18  O   UNL     1      38.866 -23.634 -15.909  0.00  0.00    -0.379 OA
ATOM     19  H   UNL     1      38.817 -23.620 -16.877  0.00  0.00    +0.211 HD
ENDBRANCH  17  18
ENDBRANCH  16  17
ENDBRANCH   3  13
TORSDOF 3
ENDMDL
MODEL 5
REMARK VINA RESULT:      -7.7      1.743      2.311
REMARK  Name = 33039
REMARK  3 active torsions:
REMARK  status: ('A' for Active; 'I' for Inactive)
REMARK    1  A    between atoms: N_3  and  C_13
REMARK    2  A    between atoms: C_16  and  C_17
REMARK    3  A    between atoms: C_17  and  O_18
REMARK                            x       y       z     vdW  Elec       q    Type
REMARK                         _______ _______ _______ _____ _____    ______ ____
ROOT
ATOM      1  O   UNL     1      34.892 -22.870 -17.221  0.00  0.00    -0.252 OA
ATOM      2  O   UNL     1      30.480 -23.662 -16.192  0.00  0.00    -0.270 OA
ATOM      3  N   UNL     1      34.381 -23.770 -15.131  0.00  0.00    -0.219 N 
ATOM      4  N   UNL     1      32.696 -23.269 -16.694  0.00  0.00    -0.236 N 
ATOM      5  C   UNL     1      33.406 -24.210 -14.258  0.00  0.00    +0.071 C 
ATOM      6  C   UNL     1      34.064 -23.274 -16.402  0.00  0.00    +0.315 C 
ATOM      7  C   UNL     1      32.098 -24.203 -14.542  0.00  0.00    +0.047 C 
ATOM      8  C   UNL     1      31.665 -23.694 -15.870  0.00  0.00    +0.250 C 
ATOM      9  C   UNL     1      31.044 -24.680 -13.594  0.00  0.00    +0.037 C 
ATOM     10  H   UNL     1      32.437 -22.927 -17.581  0.00  0.00    +0.159 HD
ENDROOT
BRANCH   3  13
ATOM     11  F   UNL     1      38.186 -24.060 -13.231  0.00  0.00    -0.234 F 
ATOM     12  O   UNL     1      36.492 -24.671 -15.591  0.00  0.00    -0.334 OA
ATOM     13  C   UNL     1      35.745 -23.835 -14.695  0.00  0.00    +0.202 C 
ATOM     14  C   UNL     1      35.893 -24.430 -13.307  0.00  0.00    +0.089 C 
ATOM     15  C   UNL     1      37.263 -25.052 -13.386  0.00  0.00    +0.195 C 
ATOM     16  C   UNL     1      37.337 -25.547 -14.819  0.00  0.00    +0.179 C 
BRANCH  16  17
ATOM     17  C   UNL     1      36.815 -26.968 -14.985  0.00  0.00    +0.170 C 
BRANCH  17  18
ATOM     18  O   UNL     1      36.803 -27.288 -16.365  0.00  0.00    -0.379 OA
ATOM     19  H   UNL     1      36.572 -26.498 -16.879  0.00  0.00    +0.211 HD
ENDBRANCH  17  18
ENDBRANCH  16  17
ENDBRANCH   3  13
TORSDOF 3
ENDMDL
MODEL 6
REMARK VINA RESULT:      -7.5      2.104      3.451
REMARK  Name = 33039
REMARK  3 active torsions:
REMARK  status: ('A' for Active; 'I' for Inactive)
REMARK    1  A    between atoms: N_3  and  C_13
REMARK    2  A    between atoms: C_16  and  C_17
REMARK    3  A    between atoms: C_17  and  O_18
REMARK                            x       y       z     vdW  Elec       q    Type
REMARK                         _______ _______ _______ _____ _____    ______ ____
ROOT
ATOM      1  O   UNL     1      32.003 -23.652 -15.919  0.00  0.00    -0.252 OA
ATOM      2  O   UNL     1      32.964 -21.807 -20.020  0.00  0.00    -0.270 OA
ATOM      3  N   UNL     1      34.220 -23.113 -16.405  0.00  0.00    -0.219 N 
ATOM      4  N   UNL     1      32.497 -22.732 -17.961  0.00  0.00    -0.236 N 
ATOM      5  C   UNL     1      35.122 -22.598 -17.314  0.00  0.00    +0.071 C 
ATOM      6  C   UNL     1      32.853 -23.203 -16.692  0.00  0.00    +0.315 C 
ATOM      7  C   UNL     1      34.778 -22.148 -18.527  0.00  0.00    +0.047 C 
ATOM      8  C   UNL     1      33.345 -22.204 -18.922  0.00  0.00    +0.250 C 
ATOM      9  C   UNL     1      35.757 -21.592 -19.511  0.00  0.00    +0.037 C 
ATOM     10  H   UNL     1      31.542 -22.780 -18.196  0.00  0.00    +0.159 HD
ENDROOT
BRANCH   3  13
ATOM     11  F   UNL     1      35.655 -25.047 -12.887  0.00  0.00    -0.234 F 
ATOM     12  O   UNL     1      35.884 -22.781 -14.791  0.00  0.00    -0.334 OA
ATOM     13  C   UNL     1      34.729 -23.558 -15.141  0.00  0.00    +0.202 C 
ATOM     14  C   UNL     1      35.161 -25.012 -15.158  0.00  0.00    +0.089 C 
ATOM     15  C   UNL     1      36.248 -25.019 -14.115  0.00  0.00    +0.195 C 
ATOM     16  C   UNL     1      36.907 -23.664 -14.291  0.00  0.00    +0.179 C 
BRANCH  16  17
ATOM     17  C   UNL     1      38.046 -23.682 -15.302  0.00  0.00    +0.170 C 
BRANCH  17  18
ATOM     18  O   UNL     1      38.679 -24.948 -15.250  0.00  0.00    -0.379 OA
ATOM     19  H   UNL     1      39.367 -24.939 -14.566  0.00  0.00    +0.211 HD
ENDBRANCH  17  18
ENDBRANCH  16  17
ENDBRANCH   3  13
TORSDOF 3
ENDMDL
MODEL 7
REMARK VINA RESULT:      -7.4      9.119     11.075
REMARK  Name = 33039
REMARK  3 active torsions:
REMARK  status: ('A' for Active; 'I' for Inactive)
REMARK    1  A    between atoms: N_3  and  C_13
REMARK    2  A    between atoms: C_16  and  C_17
REMARK    3  A    between atoms: C_17  and  O_18
REMARK                            x       y       z     vdW  Elec       q    Type
REMARK                         _______ _______ _______ _____ _____    ______ ____
ROOT
ATOM      1  O   UNL     1      34.773 -15.107 -20.147  0.00  0.00    -0.252 OA
ATOM      2  O   UNL     1      32.679 -12.308 -23.136  0.00  0.00    -0.270 OA
ATOM      3  N   UNL     1      34.510 -15.827 -22.350  0.00  0.00    -0.219 N 
ATOM      4  N   UNL     1      33.730 -13.722 -21.648  0.00  0.00    -0.236 N 
ATOM      5  C   UNL     1      34.041 -15.551 -23.618  0.00  0.00    +0.071 C 
ATOM      6  C   UNL     1      34.373 -14.914 -21.298  0.00  0.00    +0.315 C 
ATOM      7  C   UNL     1      33.425 -14.409 -23.950  0.00  0.00    +0.047 C 
ATOM      8  C   UNL     1      33.235 -13.377 -22.896  0.00  0.00    +0.250 C 
ATOM      9  C   UNL     1      32.918 -14.113 -25.325  0.00  0.00    +0.037 C 
ATOM     10  H   UNL     1      33.617 -13.055 -20.932  0.00  0.00    +0.159 HD
ENDROOT
BRANCH   3  13
ATOM     11  F   UNL     1      35.873 -19.746 -21.371  0.00  0.00    -0.234 F 
ATOM     12  O   UNL     1      35.694 -17.566 -23.378  0.00  0.00    -0.334 OA
ATOM     13  C   UNL     1      35.150 -17.092 -22.137  0.00  0.00    +0.202 C 
ATOM     14  C   UNL     1      34.195 -18.159 -21.635  0.00  0.00    +0.089 C 
ATOM     15  C   UNL     1      34.827 -19.414 -22.180  0.00  0.00    +0.195 C 
ATOM     16  C   UNL     1      35.387 -18.967 -23.518  0.00  0.00    +0.179 C 
BRANCH  16  17
ATOM     17  C   UNL     1      34.392 -19.117 -24.661  0.00  0.00    +0.170 C 
BRANCH  17  18
ATOM     18  O   UNL     1      34.585 -18.051 -25.573  0.00  0.00    -0.379 OA
ATOM     19  H   UNL     1      35.060 -17.329 -25.132  0.00  0.00    +0.211 HD
ENDBRANCH  17  18
ENDBRANCH  16  17
ENDBRANCH   3  13
TORSDOF 3
ENDMDL
MODEL 8
REMARK VINA RESULT:      -7.3      2.172      2.766
REMARK  Name = 33039
REMARK  3 active torsions:
REMARK  status: ('A' for Active; 'I' for Inactive)
REMARK    1  A    between atoms: N_3  and  C_13
REMARK    2  A    between atoms: C_16  and  C_17
REMARK    3  A    between atoms: C_17  and  O_18
REMARK                            x       y       z     vdW  Elec       q    Type
REMARK                         _______ _______ _______ _____ _____    ______ ____
ROOT
ATOM      1  O   UNL     1      37.201 -21.968 -17.454  0.00  0.00    -0.252 OA
ATOM      2  O   UNL     1      32.847 -22.470 -18.845  0.00  0.00    -0.270 OA
ATOM      3  N   UNL     1      35.661 -22.905 -15.974  0.00  0.00    -0.219 N 
ATOM      4  N   UNL     1      35.026 -22.223 -18.135  0.00  0.00    -0.236 N 
ATOM      5  C   UNL     1      34.360 -23.304 -15.744  0.00  0.00    +0.071 C 
ATOM      6  C   UNL     1      36.055 -22.340 -17.194  0.00  0.00    +0.315 C 
ATOM      7  C   UNL     1      33.378 -23.190 -16.647  0.00  0.00    +0.047 C 
ATOM      8  C   UNL     1      33.702 -22.601 -17.974  0.00  0.00    +0.250 C 
ATOM      9  C   UNL     1      31.969 -23.622 -16.395  0.00  0.00    +0.037 C 
ATOM     10  H   UNL     1      35.268 -21.830 -19.005  0.00  0.00    +0.159 HD
ENDROOT
BRANCH   3  13
ATOM     11  F   UNL     1      37.965 -23.410 -12.424  0.00  0.00    -0.234 F 
ATOM     12  O   UNL     1      37.512 -24.150 -15.262  0.00  0.00    -0.334 OA
ATOM     13  C   UNL     1      36.611 -23.087 -14.916  0.00  0.00    +0.202 C 
ATOM     14  C   UNL     1      35.962 -23.468 -13.599  0.00  0.00    +0.089 C 
ATOM     15  C   UNL     1      37.051 -24.276 -12.945  0.00  0.00    +0.195 C 
ATOM     16  C   UNL     1      37.696 -24.999 -14.113  0.00  0.00    +0.179 C 
BRANCH  16  17
ATOM     17  C   UNL     1      37.046 -26.343 -14.414  0.00  0.00    +0.170 C 
BRANCH  17  18
ATOM     18  O   UNL     1      36.717 -26.389 -15.791  0.00  0.00    -0.379 OA
ATOM     19  H   UNL     1      37.005 -27.237 -16.165  0.00  0.00    +0.211 HD
ENDBRANCH  17  18
ENDBRANCH  16  17
ENDBRANCH   3  13
TORSDOF 3
ENDMDL
MODEL 9
REMARK VINA RESULT:      -7.3     14.787     16.255
REMARK  Name = 33039
REMARK  3 active torsions:
REMARK  status: ('A' for Active; 'I' for Inactive)
REMARK    1  A    between atoms: N_3  and  C_13
REMARK    2  A    between atoms: C_16  and  C_17
REMARK    3  A    between atoms: C_17  and  O_18
REMARK                            x       y       z     vdW  Elec       q    Type
REMARK                         _______ _______ _______ _____ _____    ______ ____
ROOT
ATOM      1  O   UNL     1      34.888  -9.728 -25.156  0.00  0.00    -0.252 OA
ATOM      2  O   UNL     1      34.045 -13.978 -23.615  0.00  0.00    -0.270 OA
ATOM      3  N   UNL     1      33.177 -10.028 -23.599  0.00  0.00    -0.219 N 
ATOM      4  N   UNL     1      34.456 -11.842 -24.379  0.00  0.00    -0.236 N 
ATOM      5  C   UNL     1      32.463 -10.904 -22.807  0.00  0.00    +0.071 C 
ATOM      6  C   UNL     1      34.217 -10.464 -24.429  0.00  0.00    +0.315 C 
ATOM      7  C   UNL     1      32.694 -12.222 -22.762  0.00  0.00    +0.047 C 
ATOM      8  C   UNL     1      33.781 -12.778 -23.611  0.00  0.00    +0.250 C 
ATOM      9  C   UNL     1      31.918 -13.168 -21.903  0.00  0.00    +0.037 C 
ATOM     10  H   UNL     1      35.181 -12.184 -24.951  0.00  0.00    +0.159 HD
ENDROOT
BRANCH   3  13
ATOM     11  F   UNL     1      31.497  -6.111 -23.523  0.00  0.00    -0.234 F 
ATOM     12  O   UNL     1      33.515  -8.010 -22.460  0.00  0.00    -0.334 OA
ATOM     13  C   UNL     1      32.821  -8.640 -23.547  0.00  0.00    +0.202 C 
ATOM     14  C   UNL     1      31.338  -8.420 -23.313  0.00  0.00    +0.089 C 
ATOM     15  C   UNL     1      31.336  -7.096 -22.594  0.00  0.00    +0.195 C 
ATOM     16  C   UNL     1      32.595  -7.159 -21.749  0.00  0.00    +0.179 C 
BRANCH  16  17
ATOM     17  C   UNL     1      32.360  -7.769 -20.374  0.00  0.00    +0.170 C 
BRANCH  17  18
ATOM     18  O   UNL     1      33.141  -7.064 -19.425  0.00  0.00    -0.379 OA
ATOM     19  H   UNL     1      33.983  -6.803 -19.828  0.00  0.00    +0.211 HD
ENDBRANCH  17  18
ENDBRANCH  16  17
ENDBRANCH   3  13
TORSDOF 3
ENDMDL
