MODEL 1
REMARK VINA RESULT:      -8.5      0.000      0.000
REMARK  Name = 11683
REMARK  3 active torsions:
REMARK  status: ('A' for Active; 'I' for Inactive)
REMARK    1  A    between atoms: C_6  and  C_23
REMARK    2  A    between atoms: C_6  and  O_25
REMARK    3  A    between atoms: O_25  and  C_27
REMARK                            x       y       z     vdW  Elec       q    Type
REMARK                         _______ _______ _______ _____ _____    ______ ____
ROOT
ATOM      1  O   UNL     1      27.822 -21.817 -16.360  0.00  0.00    -0.291 OA
ATOM      2  C   UNL     1      35.571 -24.597 -14.102  0.00  0.00    +0.040 C 
ATOM      3  C   UNL     1      35.268 -23.617 -15.267  0.00  0.00    +0.008 C 
ATOM      4  C   UNL     1      33.925 -23.916 -15.949  0.00  0.00    +0.022 C 
ATOM      5  C   UNL     1      32.800 -23.748 -14.886  0.00  0.00    +0.008 C 
ATOM      6  C   UNL     1      36.981 -24.090 -13.702  0.00  0.00    +0.186 C 
ATOM      7  C   UNL     1      34.459 -24.440 -13.050  0.00  0.00    +0.004 C 
ATOM      8  C   UNL     1      36.551 -23.653 -16.095  0.00  0.00    +0.004 C 
ATOM      9  C   UNL     1      33.057 -24.652 -13.654  0.00  0.00    +0.001 C 
ATOM     10  C   UNL     1      31.377 -23.873 -15.536  0.00  0.00    +0.019 C 
ATOM     11  C   UNL     1      37.676 -23.806 -15.052  0.00  0.00    +0.047 C 
ATOM     12  C   UNL     1      35.646 -26.084 -14.549  0.00  0.00    +0.004 C 
ATOM     13  C   UNL     1      33.654 -23.046 -17.146  0.00  0.00    -0.031 C 
ATOM     14  C   UNL     1      31.246 -22.809 -16.650  0.00  0.00    -0.024 C 
ATOM     15  C   UNL     1      30.303 -23.621 -14.442  0.00  0.00    +0.012 C 
ATOM     16  C   UNL     1      32.449 -22.533 -17.462  0.00  0.00    -0.030 C 
ATOM     17  C   UNL     1      31.147 -25.273 -16.154  0.00  0.00    +0.004 C 
ATOM     18  C   UNL     1      28.897 -23.457 -14.998  0.00  0.00    +0.069 C 
ATOM     19  C   UNL     1      30.090 -22.151 -16.867  0.00  0.00    +0.033 C 
ATOM     20  C   UNL     1      28.859 -22.416 -16.083  0.00  0.00    +0.173 C 
ATOM     21  C   UNL     1      32.324 -21.684 -18.703  0.00  0.00    +0.030 C 
ENDROOT
BRANCH   6  23
ATOM     22  O   UNL     1      37.297 -25.525 -11.794  0.00  0.00    -0.292 OA
ATOM     23  C   UNL     1      37.759 -25.025 -12.826  0.00  0.00    +0.187 C 
ATOM     24  C   UNL     1      39.169 -25.348 -13.253  0.00  0.00    +0.076 C 
ENDBRANCH   6  23
BRANCH   6  25
ATOM     25  O   UNL     1      36.897 -22.885 -12.949  0.00  0.00    -0.449 OA
BRANCH  25  27
ATOM     26  O   UNL     1      38.774 -22.727 -11.610  0.00  0.00    -0.250 OA
ATOM     27  C   UNL     1      37.569 -22.882 -11.758  0.00  0.00    +0.318 C 
ATOM     28  C   UNL     1      36.605 -23.096 -10.631  0.00  0.00    +0.121 C 
ENDBRANCH  25  27
ENDBRANCH   6  25
TORSDOF 3
ENDMDL
MODEL 2
REMARK VINA RESULT:      -8.0      2.575      3.729
REMARK  Name = 11683
REMARK  3 active torsions:
REMARK  status: ('A' for Active; 'I' for Inactive)
REMARK    1  A    between atoms: C_6  and  C_23
REMARK    2  A    between atoms: C_6  and  O_25
REMARK    3  A    between atoms: O_25  and  C_27
REMARK                            x       y       z     vdW  Elec       q    Type
REMARK                         _______ _______ _______ _____ _____    ______ ____
ROOT
ATOM      1  O   UNL     1      32.829 -19.187 -21.202  0.00  0.00    -0.291 OA
ATOM      2  C   UNL     1      35.911 -24.172 -14.995  0.00  0.00    +0.040 C 
ATOM      3  C   UNL     1      36.734 -23.148 -15.821  0.00  0.00    +0.008 C 
ATOM      4  C   UNL     1      36.236 -23.028 -17.269  0.00  0.00    +0.022 C 
ATOM      5  C   UNL     1      34.762 -22.528 -17.228  0.00  0.00    +0.008 C 
ATOM      6  C   UNL     1      36.699 -24.114 -13.661  0.00  0.00    +0.186 C 
ATOM      7  C   UNL     1      34.453 -23.686 -14.956  0.00  0.00    +0.004 C 
ATOM      8  C   UNL     1      38.179 -23.570 -15.562  0.00  0.00    +0.004 C 
ATOM      9  C   UNL     1      33.877 -23.466 -16.369  0.00  0.00    +0.001 C 
ATOM     10  C   UNL     1      34.224 -22.219 -18.670  0.00  0.00    +0.019 C 
ATOM     11  C   UNL     1      38.179 -24.054 -14.098  0.00  0.00    +0.047 C 
ATOM     12  C   UNL     1      35.955 -25.613 -15.577  0.00  0.00    +0.004 C 
ATOM     13  C   UNL     1      37.078 -22.118 -18.120  0.00  0.00    -0.031 C 
ATOM     14  C   UNL     1      35.145 -21.165 -19.327  0.00  0.00    -0.024 C 
ATOM     15  C   UNL     1      32.781 -21.653 -18.555  0.00  0.00    +0.012 C 
ATOM     16  C   UNL     1      36.591 -21.265 -19.043  0.00  0.00    -0.030 C 
ATOM     17  C   UNL     1      34.199 -23.484 -19.560  0.00  0.00    +0.004 C 
ATOM     18  C   UNL     1      32.251 -21.074 -19.857  0.00  0.00    +0.069 C 
ATOM     19  C   UNL     1      34.654 -20.189 -20.116  0.00  0.00    +0.033 C 
ATOM     20  C   UNL     1      33.210 -20.071 -20.436  0.00  0.00    +0.173 C 
ATOM     21  C   UNL     1      37.560 -20.420 -19.832  0.00  0.00    +0.030 C 
ENDROOT
BRANCH   6  23
ATOM     22  O   UNL     1      35.329 -25.371 -12.130  0.00  0.00    -0.292 OA
ATOM     23  C   UNL     1      36.412 -25.239 -12.712  0.00  0.00    +0.187 C 
ATOM     24  C   UNL     1      37.518 -26.238 -12.480  0.00  0.00    +0.076 C 
ENDBRANCH   6  23
BRANCH   6  25
ATOM     25  O   UNL     1      36.373 -22.938 -12.925  0.00  0.00    -0.449 OA
BRANCH  25  27
ATOM     26  O   UNL     1      38.318 -22.167 -11.944  0.00  0.00    -0.250 OA
ATOM     27  C   UNL     1      37.196 -22.651 -11.872  0.00  0.00    +0.318 C 
ATOM     28  C   UNL     1      36.520 -23.016 -10.586  0.00  0.00    +0.121 C 
ENDBRANCH  25  27
ENDBRANCH   6  25
TORSDOF 3
ENDMDL
MODEL 3
REMARK VINA RESULT:      -7.7      4.217      7.720
REMARK  Name = 11683
REMARK  3 active torsions:
REMARK  status: ('A' for Active; 'I' for Inactive)
REMARK    1  A    between atoms: C_6  and  C_23
REMARK    2  A    between atoms: C_6  and  O_25
REMARK    3  A    between atoms: O_25  and  C_27
REMARK                            x       y       z     vdW  Elec       q    Type
REMARK                         _______ _______ _______ _____ _____    ______ ____
ROOT
ATOM      1  O   UNL     1      34.310 -23.998 -12.397  0.00  0.00    -0.291 OA
ATOM      2  C   UNL     1      35.197 -20.728 -20.233  0.00  0.00    +0.040 C 
ATOM      3  C   UNL     1      33.850 -20.935 -19.489  0.00  0.00    +0.008 C 
ATOM      4  C   UNL     1      33.864 -22.178 -18.587  0.00  0.00    +0.022 C 
ATOM      5  C   UNL     1      34.972 -21.977 -17.513  0.00  0.00    +0.008 C 
ATOM      6  C   UNL     1      34.828 -19.488 -21.087  0.00  0.00    +0.186 C 
ATOM      7  C   UNL     1      36.297 -20.534 -19.175  0.00  0.00    +0.004 C 
ATOM      8  C   UNL     1      32.814 -20.836 -20.607  0.00  0.00    +0.004 C 
ATOM      9  C   UNL     1      36.348 -21.703 -18.172  0.00  0.00    +0.001 C 
ATOM     10  C   UNL     1      34.948 -23.127 -16.445  0.00  0.00    +0.019 C 
ATOM     11  C   UNL     1      33.388 -19.774 -21.567  0.00  0.00    +0.047 C 
ATOM     12  C   UNL     1      35.580 -21.917 -21.159  0.00  0.00    +0.004 C 
ATOM     13  C   UNL     1      32.540 -22.460 -17.933  0.00  0.00    -0.031 C 
ATOM     14  C   UNL     1      33.547 -23.167 -15.792  0.00  0.00    -0.024 C 
ATOM     15  C   UNL     1      36.022 -22.829 -15.362  0.00  0.00    +0.012 C 
ATOM     16  C   UNL     1      32.389 -22.895 -16.667  0.00  0.00    -0.030 C 
ATOM     17  C   UNL     1      35.242 -24.508 -17.078  0.00  0.00    +0.004 C 
ATOM     18  C   UNL     1      35.919 -23.729 -14.141  0.00  0.00    +0.069 C 
ATOM     19  C   UNL     1      33.386 -23.426 -14.479  0.00  0.00    +0.033 C 
ATOM     20  C   UNL     1      34.525 -23.721 -13.576  0.00  0.00    +0.173 C 
ATOM     21  C   UNL     1      30.995 -23.147 -16.148  0.00  0.00    +0.030 C 
ENDROOT
BRANCH   6  23
ATOM     22  O   UNL     1      36.958 -18.886 -22.034  0.00  0.00    -0.292 OA
ATOM     23  C   UNL     1      35.775 -19.195 -22.211  0.00  0.00    +0.187 C 
ATOM     24  C   UNL     1      35.224 -19.290 -23.612  0.00  0.00    +0.076 C 
ENDBRANCH   6  23
BRANCH   6  25
ATOM     25  O   UNL     1      34.838 -18.302 -20.297  0.00  0.00    -0.449 OA
BRANCH  25  27
ATOM     26  O   UNL     1      32.866 -17.297 -20.961  0.00  0.00    -0.250 OA
ATOM     27  C   UNL     1      34.074 -17.270 -20.767  0.00  0.00    +0.318 C 
ATOM     28  C   UNL     1      34.938 -16.072 -21.017  0.00  0.00    +0.121 C 
ENDBRANCH  25  27
ENDBRANCH   6  25
TORSDOF 3
ENDMDL
MODEL 4
REMARK VINA RESULT:      -6.6     18.994     22.498
REMARK  Name = 11683
REMARK  3 active torsions:
REMARK  status: ('A' for Active; 'I' for Inactive)
REMARK    1  A    between atoms: C_6  and  C_23
REMARK    2  A    between atoms: C_6  and  O_25
REMARK    3  A    between atoms: O_25  and  C_27
REMARK                            x       y       z     vdW  Elec       q    Type
REMARK                         _______ _______ _______ _____ _____    ______ ____
ROOT
ATOM      1  O   UNL     1      32.355  -7.961 -19.699  0.00  0.00    -0.291 OA
ATOM      2  C   UNL     1      33.588  -4.203 -27.265  0.00  0.00    +0.040 C 
ATOM      3  C   UNL     1      32.797  -3.597 -26.075  0.00  0.00    +0.008 C 
ATOM      4  C   UNL     1      32.058  -4.667 -25.257  0.00  0.00    +0.022 C 
ATOM      5  C   UNL     1      33.123  -5.640 -24.670  0.00  0.00    +0.008 C 
ATOM      6  C   UNL     1      34.123  -2.897 -27.906  0.00  0.00    +0.186 C 
ATOM      7  C   UNL     1      34.638  -5.170 -26.691  0.00  0.00    +0.004 C 
ATOM      8  C   UNL     1      31.995  -2.472 -26.725  0.00  0.00    +0.004 C 
ATOM      9  C   UNL     1      34.002  -6.248 -25.791  0.00  0.00    +0.001 C 
ATOM     10  C   UNL     1      32.471  -6.672 -23.683  0.00  0.00    +0.019 C 
ATOM     11  C   UNL     1      32.932  -1.917 -27.818  0.00  0.00    +0.047 C 
ATOM     12  C   UNL     1      32.690  -4.966 -28.279  0.00  0.00    +0.004 C 
ATOM     13  C   UNL     1      31.202  -4.099 -24.159  0.00  0.00    -0.031 C 
ATOM     14  C   UNL     1      31.755  -5.894 -22.555  0.00  0.00    -0.024 C 
ATOM     15  C   UNL     1      33.592  -7.560 -23.075  0.00  0.00    +0.012 C 
ATOM     16  C   UNL     1      31.069  -4.641 -22.933  0.00  0.00    -0.030 C 
ATOM     17  C   UNL     1      31.440  -7.579 -24.395  0.00  0.00    +0.004 C 
ATOM     18  C   UNL     1      33.121  -8.421 -21.913  0.00  0.00    +0.069 C 
ATOM     19  C   UNL     1      31.762  -6.329 -21.280  0.00  0.00    +0.033 C 
ATOM     20  C   UNL     1      32.424  -7.591 -20.870  0.00  0.00    +0.173 C 
ATOM     21  C   UNL     1      30.163  -3.964 -21.935  0.00  0.00    +0.030 C 
ENDROOT
BRANCH   6  23
ATOM     22  O   UNL     1      34.719  -4.143 -29.878  0.00  0.00    -0.292 OA
ATOM     23  C   UNL     1      34.654  -3.053 -29.299  0.00  0.00    +0.187 C 
ATOM     24  C   UNL     1      35.122  -1.801 -29.997  0.00  0.00    +0.076 C 
ENDBRANCH   6  23
BRANCH   6  25
ATOM     25  O   UNL     1      35.222  -2.376 -27.164  0.00  0.00    -0.449 OA
BRANCH  25  27
ATOM     26  O   UNL     1      36.693  -4.059 -27.748  0.00  0.00    -0.250 OA
ATOM     27  C   UNL     1      36.448  -2.891 -27.480  0.00  0.00    +0.318 C 
ATOM     28  C   UNL     1      37.477  -1.802 -27.456  0.00  0.00    +0.121 C 
ENDBRANCH  25  27
ENDBRANCH   6  25
TORSDOF 3
ENDMDL
MODEL 5
REMARK VINA RESULT:      -6.2     16.691     20.594
REMARK  Name = 11683
REMARK  3 active torsions:
REMARK  status: ('A' for Active; 'I' for Inactive)
REMARK    1  A    between atoms: C_6  and  C_23
REMARK    2  A    between atoms: C_6  and  O_25
REMARK    3  A    between atoms: O_25  and  C_27
REMARK                            x       y       z     vdW  Elec       q    Type
REMARK                         _______ _______ _______ _____ _____    ______ ____
ROOT
ATOM      1  O   UNL     1      32.007 -13.264 -22.556  0.00  0.00    -0.291 OA
ATOM      2  C   UNL     1      32.346  -5.087 -24.984  0.00  0.00    +0.040 C 
ATOM      3  C   UNL     1      33.380  -6.182 -25.357  0.00  0.00    +0.008 C 
ATOM      4  C   UNL     1      33.566  -7.217 -24.238  0.00  0.00    +0.022 C 
ATOM      5  C   UNL     1      32.198  -7.920 -24.003  0.00  0.00    +0.008 C 
ATOM      6  C   UNL     1      32.456  -4.191 -26.245  0.00  0.00    +0.186 C 
ATOM      7  C   UNL     1      30.991  -5.777 -24.746  0.00  0.00    +0.004 C 
ATOM      8  C   UNL     1      34.586  -5.375 -25.835  0.00  0.00    +0.004 C 
ATOM      9  C   UNL     1      31.087  -6.888 -23.682  0.00  0.00    +0.001 C 
ATOM     10  C   UNL     1      32.333  -9.110 -22.989  0.00  0.00    +0.019 C 
ATOM     11  C   UNL     1      33.970  -4.155 -26.551  0.00  0.00    +0.047 C 
ATOM     12  C   UNL     1      32.735  -4.274 -23.717  0.00  0.00    +0.004 C 
ATOM     13  C   UNL     1      34.637  -8.231 -24.531  0.00  0.00    -0.031 C 
ATOM     14  C   UNL     1      33.379 -10.109 -23.534  0.00  0.00    -0.024 C 
ATOM     15  C   UNL     1      30.955  -9.816 -22.858  0.00  0.00    +0.012 C 
ATOM     16  C   UNL     1      34.554  -9.542 -24.227  0.00  0.00    -0.030 C 
ATOM     17  C   UNL     1      32.786  -8.627 -21.591  0.00  0.00    +0.004 C 
ATOM     18  C   UNL     1      31.018 -11.137 -22.108  0.00  0.00    +0.069 C 
ATOM     19  C   UNL     1      33.225 -11.441 -23.397  0.00  0.00    +0.033 C 
ATOM     20  C   UNL     1      32.068 -12.043 -22.692  0.00  0.00    +0.173 C 
ATOM     21  C   UNL     1      35.715 -10.441 -24.572  0.00  0.00    +0.030 C 
ENDROOT
BRANCH   6  23
ATOM     22  O   UNL     1      32.517  -1.786 -26.172  0.00  0.00    -0.292 OA
ATOM     23  C   UNL     1      31.853  -2.826 -26.102  0.00  0.00    +0.187 C 
ATOM     24  C   UNL     1      30.366  -2.756 -25.861  0.00  0.00    +0.076 C 
ENDBRANCH   6  23
BRANCH   6  25
ATOM     25  O   UNL     1      31.764  -4.771 -27.347  0.00  0.00    -0.449 OA
BRANCH  25  27
ATOM     26  O   UNL     1      33.190  -5.146 -29.125  0.00  0.00    -0.250 OA
ATOM     27  C   UNL     1      32.294  -4.516 -28.580  0.00  0.00    +0.318 C 
ATOM     28  C   UNL     1      31.608  -3.332 -29.192  0.00  0.00    +0.121 C 
ENDBRANCH  25  27
ENDBRANCH   6  25
TORSDOF 3
ENDMDL
MODEL 6
REMARK VINA RESULT:      -5.8      5.486      9.585
REMARK  Name = 11683
REMARK  3 active torsions:
REMARK  status: ('A' for Active; 'I' for Inactive)
REMARK    1  A    between atoms: C_6  and  C_23
REMARK    2  A    between atoms: C_6  and  O_25
REMARK    3  A    between atoms: O_25  and  C_27
REMARK                            x       y       z     vdW  Elec       q    Type
REMARK                         _______ _______ _______ _____ _____    ______ ____
ROOT
ATOM      1  O   UNL     1      36.618 -23.304 -14.838  0.00  0.00    -0.291 OA
ATOM      2  C   UNL     1      35.109 -18.690 -21.860  0.00  0.00    +0.040 C 
ATOM      3  C   UNL     1      34.028 -19.367 -20.976  0.00  0.00    +0.008 C 
ATOM      4  C   UNL     1      34.514 -20.690 -20.367  0.00  0.00    +0.022 C 
ATOM      5  C   UNL     1      35.739 -20.377 -19.458  0.00  0.00    +0.008 C 
ATOM      6  C   UNL     1      34.295 -17.471 -22.368  0.00  0.00    +0.186 C 
ATOM      7  C   UNL     1      36.324 -18.382 -20.968  0.00  0.00    +0.004 C 
ATOM      8  C   UNL     1      32.793 -19.369 -21.875  0.00  0.00    +0.004 C 
ATOM      9  C   UNL     1      36.849 -19.642 -20.251  0.00  0.00    +0.001 C 
ATOM     10  C   UNL     1      36.201 -21.649 -18.664  0.00  0.00    +0.019 C 
ATOM     11  C   UNL     1      32.895 -18.051 -22.669  0.00  0.00    +0.047 C 
ATOM     12  C   UNL     1      35.563 -19.566 -23.061  0.00  0.00    +0.004 C 
ATOM     13  C   UNL     1      33.453 -21.419 -19.589  0.00  0.00    -0.031 C 
ATOM     14  C   UNL     1      35.011 -22.168 -17.824  0.00  0.00    -0.024 C 
ATOM     15  C   UNL     1      37.372 -21.254 -17.722  0.00  0.00    +0.012 C 
ATOM     16  C   UNL     1      33.668 -22.078 -18.433  0.00  0.00    -0.030 C 
ATOM     17  C   UNL     1      36.674 -22.779 -19.609  0.00  0.00    +0.004 C 
ATOM     18  C   UNL     1      37.732 -22.334 -16.714  0.00  0.00    +0.069 C 
ATOM     19  C   UNL     1      35.184 -22.670 -16.586  0.00  0.00    +0.033 C 
ATOM     20  C   UNL     1      36.519 -22.792 -15.952  0.00  0.00    +0.173 C 
ATOM     21  C   UNL     1      32.507 -22.774 -17.769  0.00  0.00    +0.030 C 
ENDROOT
BRANCH   6  23
ATOM     22  O   UNL     1      35.812 -15.931 -23.428  0.00  0.00    -0.292 OA
ATOM     23  C   UNL     1      34.899 -16.757 -23.540  0.00  0.00    +0.187 C 
ATOM     24  C   UNL     1      34.343 -17.086 -24.903  0.00  0.00    +0.076 C 
ENDBRANCH   6  23
BRANCH   6  25
ATOM     25  O   UNL     1      34.188 -16.471 -21.360  0.00  0.00    -0.449 OA
BRANCH  25  27
ATOM     26  O   UNL     1      32.917 -14.884 -22.458  0.00  0.00    -0.250 OA
ATOM     27  C   UNL     1      33.139 -15.604 -21.494  0.00  0.00    +0.318 C 
ATOM     28  C   UNL     1      32.275 -15.660 -20.271  0.00  0.00    +0.121 C 
ENDBRANCH  25  27
ENDBRANCH   6  25
TORSDOF 3
ENDMDL
