MODEL 1
REMARK VINA RESULT:      -5.0      0.000      0.000
REMARK  Name = 157922
REMARK  6 active torsions:
REMARK  status: ('A' for Active; 'I' for Inactive)
REMARK    1  A    between atoms: C_2  and  C_3
REMARK    2  A    between atoms: C_2  and  C_9
REMARK    3  A    between atoms: C_3  and  C_4
REMARK    4  A    between atoms: C_4  and  C_6
REMARK    5  A    between atoms: C_6  and  O_7
REMARK    6  A    between atoms: C_9  and  N_10
REMARK                            x       y       z     vdW  Elec       q    Type
REMARK                         _______ _______ _______ _____ _____    ______ ____
ROOT
ATOM      1  O   UNL     1      38.234 -23.806 -14.558  0.00  0.00    -0.298 OA
ATOM      2  C   UNL     1      38.167 -24.691 -13.707  0.00  0.00    +0.129 C 
ENDROOT
BRANCH   2   3
ATOM      3  C   UNL     1      38.138 -24.381 -12.215  0.00  0.00    +0.074 C 
BRANCH   3   4
ATOM      4  C   UNL     1      36.961 -23.502 -11.800  0.00  0.00    +0.117 C 
BRANCH   4   6
ATOM      5  O   UNL     1      35.938 -24.249  -9.721  0.00  0.00    -0.250 OA
ATOM      6  C   UNL     1      35.954 -24.238 -10.945  0.00  0.00    +0.318 C 
BRANCH   6   7
ATOM      7  O   UNL     1      35.075 -24.892 -11.762  0.00  0.00    -0.444 OA
ATOM      8  C   UNL     1      34.555 -24.121 -12.850  0.00  0.00    +0.256 C 
ENDBRANCH   6   7
ENDBRANCH   4   6
ENDBRANCH   3   4
ENDBRANCH   2   3
BRANCH   2   9
ATOM      9  C   UNL     1      38.098 -26.166 -14.061  0.00  0.00    -0.020 C 
BRANCH   9  10
ATOM     10  N   UNL     1      36.891 -26.744 -13.490  0.00  0.00    +0.385 N 
ATOM     11  H   UNL     1      37.126 -27.248 -12.634  0.00  0.00    -0.089 HD
ATOM     12  H   UNL     1      36.474 -27.391 -14.160  0.00  0.00    -0.089 HD
ATOM     13  H   UNL     1      36.226 -26.002 -13.275  0.00  0.00    -0.089 HD
ENDBRANCH   9  10
ENDBRANCH   2   9
TORSDOF 6
ENDMDL
MODEL 2
REMARK VINA RESULT:      -4.9      2.139      2.784
REMARK  Name = 157922
REMARK  6 active torsions:
REMARK  status: ('A' for Active; 'I' for Inactive)
REMARK    1  A    between atoms: C_2  and  C_3
REMARK    2  A    between atoms: C_2  and  C_9
REMARK    3  A    between atoms: C_3  and  C_4
REMARK    4  A    between atoms: C_4  and  C_6
REMARK    5  A    between atoms: C_6  and  O_7
REMARK    6  A    between atoms: C_9  and  N_10
REMARK                            x       y       z     vdW  Elec       q    Type
REMARK                         _______ _______ _______ _____ _____    ______ ____
ROOT
ATOM      1  O   UNL     1      36.781 -27.116 -15.914  0.00  0.00    -0.298 OA
ATOM      2  C   UNL     1      36.707 -26.261 -15.032  0.00  0.00    +0.129 C 
ENDROOT
BRANCH   2   3
ATOM      3  C   UNL     1      37.535 -26.341 -13.755  0.00  0.00    +0.074 C 
BRANCH   3   4
ATOM      4  C   UNL     1      38.386 -25.099 -13.504  0.00  0.00    +0.117 C 
BRANCH   4   6
ATOM      5  O   UNL     1      38.703 -23.511 -11.685  0.00  0.00    -0.250 OA
ATOM      6  C   UNL     1      38.063 -24.425 -12.189  0.00  0.00    +0.318 C 
BRANCH   6   7
ATOM      7  O   UNL     1      36.948 -25.008 -11.656  0.00  0.00    -0.444 OA
ATOM      8  C   UNL     1      36.016 -24.111 -11.044  0.00  0.00    +0.256 C 
ENDBRANCH   6   7
ENDBRANCH   4   6
ENDBRANCH   3   4
ENDBRANCH   2   3
BRANCH   2   9
ATOM      9  C   UNL     1      35.799 -25.049 -15.138  0.00  0.00    -0.020 C 
BRANCH   9  10
ATOM     10  N   UNL     1      34.781 -25.116 -14.100  0.00  0.00    +0.385 N 
ATOM     11  H   UNL     1      34.440 -24.176 -13.897  0.00  0.00    -0.089 HD
ATOM     12  H   UNL     1      35.183 -25.521 -13.255  0.00  0.00    -0.089 HD
ATOM     13  H   UNL     1      34.006 -25.696 -14.420  0.00  0.00    -0.089 HD
ENDBRANCH   9  10
ENDBRANCH   2   9
TORSDOF 6
ENDMDL
MODEL 3
REMARK VINA RESULT:      -4.9      1.757      2.532
REMARK  Name = 157922
REMARK  6 active torsions:
REMARK  status: ('A' for Active; 'I' for Inactive)
REMARK    1  A    between atoms: C_2  and  C_3
REMARK    2  A    between atoms: C_2  and  C_9
REMARK    3  A    between atoms: C_3  and  C_4
REMARK    4  A    between atoms: C_4  and  C_6
REMARK    5  A    between atoms: C_6  and  O_7
REMARK    6  A    between atoms: C_9  and  N_10
REMARK                            x       y       z     vdW  Elec       q    Type
REMARK                         _______ _______ _______ _____ _____    ______ ____
ROOT
ATOM      1  O   UNL     1      37.238 -23.407 -15.310  0.00  0.00    -0.298 OA
ATOM      2  C   UNL     1      37.103 -24.603 -15.055  0.00  0.00    +0.129 C 
ENDROOT
BRANCH   2   3
ATOM      3  C   UNL     1      38.272 -25.472 -14.606  0.00  0.00    +0.074 C 
BRANCH   3   4
ATOM      4  C   UNL     1      38.805 -25.108 -13.223  0.00  0.00    +0.117 C 
BRANCH   4   6
ATOM      5  O   UNL     1      37.060 -26.329 -12.043  0.00  0.00    -0.250 OA
ATOM      6  C   UNL     1      37.794 -25.354 -12.124  0.00  0.00    +0.318 C 
BRANCH   6   7
ATOM      7  O   UNL     1      37.833 -24.307 -11.246  0.00  0.00    -0.444 OA
ATOM      8  C   UNL     1      37.078 -23.154 -11.628  0.00  0.00    +0.256 C 
ENDBRANCH   6   7
ENDBRANCH   4   6
ENDBRANCH   3   4
ENDBRANCH   2   3
BRANCH   2   9
ATOM      9  C   UNL     1      35.768 -25.318 -15.153  0.00  0.00    -0.020 C 
BRANCH   9  10
ATOM     10  N   UNL     1      35.976 -26.752 -15.020  0.00  0.00    +0.385 N 
ATOM     11  H   UNL     1      35.704 -27.049 -14.083  0.00  0.00    -0.089 HD
ATOM     12  H   UNL     1      36.961 -26.968 -15.173  0.00  0.00    -0.089 HD
ATOM     13  H   UNL     1      35.409 -27.243 -15.710  0.00  0.00    -0.089 HD
ENDBRANCH   9  10
ENDBRANCH   2   9
TORSDOF 6
ENDMDL
MODEL 4
REMARK VINA RESULT:      -4.8      1.650      2.162
REMARK  Name = 157922
REMARK  6 active torsions:
REMARK  status: ('A' for Active; 'I' for Inactive)
REMARK    1  A    between atoms: C_2  and  C_3
REMARK    2  A    between atoms: C_2  and  C_9
REMARK    3  A    between atoms: C_3  and  C_4
REMARK    4  A    between atoms: C_4  and  C_6
REMARK    5  A    between atoms: C_6  and  O_7
REMARK    6  A    between atoms: C_9  and  N_10
REMARK                            x       y       z     vdW  Elec       q    Type
REMARK                         _______ _______ _______ _____ _____    ______ ____
ROOT
ATOM      1  O   UNL     1      39.437 -26.151 -13.670  0.00  0.00    -0.298 OA
ATOM      2  C   UNL     1      38.268 -25.832 -13.881  0.00  0.00    +0.129 C 
ENDROOT
BRANCH   2   3
ATOM      3  C   UNL     1      37.872 -24.412 -14.269  0.00  0.00    +0.074 C 
BRANCH   3   4
ATOM      4  C   UNL     1      37.046 -23.699 -13.202  0.00  0.00    +0.117 C 
BRANCH   4   6
ATOM      5  O   UNL     1      38.844 -23.039 -11.699  0.00  0.00    -0.250 OA
ATOM      6  C   UNL     1      37.768 -23.593 -11.877  0.00  0.00    +0.318 C 
BRANCH   6   7
ATOM      7  O   UNL     1      37.024 -24.221 -10.917  0.00  0.00    -0.444 OA
ATOM      8  C   UNL     1      35.660 -24.480 -11.266  0.00  0.00    +0.256 C 
ENDBRANCH   6   7
ENDBRANCH   4   6
ENDBRANCH   3   4
ENDBRANCH   2   3
BRANCH   2   9
ATOM      9  C   UNL     1      37.118 -26.819 -13.787  0.00  0.00    -0.020 C 
BRANCH   9  10
ATOM     10  N   UNL     1      36.414 -26.865 -15.060  0.00  0.00    +0.385 N 
ATOM     11  H   UNL     1      36.728 -26.095 -15.651  0.00  0.00    -0.089 HD
ATOM     12  H   UNL     1      35.411 -26.781 -14.897  0.00  0.00    -0.089 HD
ATOM     13  H   UNL     1      36.610 -27.751 -15.525  0.00  0.00    -0.089 HD
ENDBRANCH   9  10
ENDBRANCH   2   9
TORSDOF 6
ENDMDL
MODEL 5
REMARK VINA RESULT:      -4.8      2.391      4.414
REMARK  Name = 157922
REMARK  6 active torsions:
REMARK  status: ('A' for Active; 'I' for Inactive)
REMARK    1  A    between atoms: C_2  and  C_3
REMARK    2  A    between atoms: C_2  and  C_9
REMARK    3  A    between atoms: C_3  and  C_4
REMARK    4  A    between atoms: C_4  and  C_6
REMARK    5  A    between atoms: C_6  and  O_7
REMARK    6  A    between atoms: C_9  and  N_10
REMARK                            x       y       z     vdW  Elec       q    Type
REMARK                         _______ _______ _______ _____ _____    ______ ____
ROOT
ATOM      1  O   UNL     1      36.490 -25.860 -11.723  0.00  0.00    -0.298 OA
ATOM      2  C   UNL     1      36.439 -24.859 -12.436  0.00  0.00    +0.129 C 
ENDROOT
BRANCH   2   3
ATOM      3  C   UNL     1      35.892 -24.904 -13.858  0.00  0.00    +0.074 C 
BRANCH   3   4
ATOM      4  C   UNL     1      36.977 -25.042 -14.922  0.00  0.00    +0.117 C 
BRANCH   4   6
ATOM      5  O   UNL     1      36.654 -27.212 -15.979  0.00  0.00    -0.250 OA
ATOM      6  C   UNL     1      37.304 -26.485 -15.240  0.00  0.00    +0.318 C 
BRANCH   6   7
ATOM      7  O   UNL     1      38.437 -26.840 -14.562  0.00  0.00    -0.444 OA
ATOM      8  C   UNL     1      39.445 -25.828 -14.473  0.00  0.00    +0.256 C 
ENDBRANCH   6   7
ENDBRANCH   4   6
ENDBRANCH   3   4
ENDBRANCH   2   3
BRANCH   2   9
ATOM      9  C   UNL     1      36.904 -23.492 -11.966  0.00  0.00    -0.020 C 
BRANCH   9  10
ATOM     10  N   UNL     1      38.322 -23.547 -11.643  0.00  0.00    +0.385 N 
ATOM     11  H   UNL     1      38.456 -24.093 -10.792  0.00  0.00    -0.089 HD
ATOM     12  H   UNL     1      38.674 -22.601 -11.499  0.00  0.00    -0.089 HD
ATOM     13  H   UNL     1      38.828 -23.985 -12.411  0.00  0.00    -0.089 HD
ENDBRANCH   9  10
ENDBRANCH   2   9
TORSDOF 6
ENDMDL
MODEL 6
REMARK VINA RESULT:      -4.8      1.885      4.326
REMARK  Name = 157922
REMARK  6 active torsions:
REMARK  status: ('A' for Active; 'I' for Inactive)
REMARK    1  A    between atoms: C_2  and  C_3
REMARK    2  A    between atoms: C_2  and  C_9
REMARK    3  A    between atoms: C_3  and  C_4
REMARK    4  A    between atoms: C_4  and  C_6
REMARK    5  A    between atoms: C_6  and  O_7
REMARK    6  A    between atoms: C_9  and  N_10
REMARK                            x       y       z     vdW  Elec       q    Type
REMARK                         _______ _______ _______ _____ _____    ______ ____
ROOT
ATOM      1  O   UNL     1      35.329 -25.171 -10.793  0.00  0.00    -0.298 OA
ATOM      2  C   UNL     1      35.716 -24.731 -11.874  0.00  0.00    +0.129 C 
ENDROOT
BRANCH   2   3
ATOM      3  C   UNL     1      37.153 -24.904 -12.353  0.00  0.00    +0.074 C 
BRANCH   3   4
ATOM      4  C   UNL     1      37.432 -26.278 -12.956  0.00  0.00    +0.117 C 
BRANCH   4   6
ATOM      5  O   UNL     1      36.836 -25.805 -15.269  0.00  0.00    -0.250 OA
ATOM      6  C   UNL     1      37.645 -26.227 -14.452  0.00  0.00    +0.318 C 
BRANCH   6   7
ATOM      7  O   UNL     1      38.881 -26.734 -14.740  0.00  0.00    -0.444 OA
ATOM      8  C   UNL     1      39.973 -25.824 -14.577  0.00  0.00    +0.256 C 
ENDBRANCH   6   7
ENDBRANCH   4   6
ENDBRANCH   3   4
ENDBRANCH   2   3
BRANCH   2   9
ATOM      9  C   UNL     1      34.802 -23.988 -12.832  0.00  0.00    -0.020 C 
BRANCH   9  10
ATOM     10  N   UNL     1      34.214 -24.932 -13.771  0.00  0.00    +0.385 N 
ATOM     11  H   UNL     1      34.899 -25.169 -14.489  0.00  0.00    -0.089 HD
ATOM     12  H   UNL     1      33.396 -24.510 -14.209  0.00  0.00    -0.089 HD
ATOM     13  H   UNL     1      33.937 -25.778 -13.275  0.00  0.00    -0.089 HD
ENDBRANCH   9  10
ENDBRANCH   2   9
TORSDOF 6
ENDMDL
MODEL 7
REMARK VINA RESULT:      -4.7      2.063      3.830
REMARK  Name = 157922
REMARK  6 active torsions:
REMARK  status: ('A' for Active; 'I' for Inactive)
REMARK    1  A    between atoms: C_2  and  C_3
REMARK    2  A    between atoms: C_2  and  C_9
REMARK    3  A    between atoms: C_3  and  C_4
REMARK    4  A    between atoms: C_4  and  C_6
REMARK    5  A    between atoms: C_6  and  O_7
REMARK    6  A    between atoms: C_9  and  N_10
REMARK                            x       y       z     vdW  Elec       q    Type
REMARK                         _______ _______ _______ _____ _____    ______ ____
ROOT
ATOM      1  O   UNL     1      38.548 -23.153 -11.643  0.00  0.00    -0.298 OA
ATOM      2  C   UNL     1      37.704 -23.986 -11.968  0.00  0.00    +0.129 C 
ENDROOT
BRANCH   2   3
ATOM      3  C   UNL     1      38.084 -25.322 -12.597  0.00  0.00    +0.074 C 
BRANCH   3   4
ATOM      4  C   UNL     1      38.712 -25.185 -13.982  0.00  0.00    +0.117 C 
BRANCH   4   6
ATOM      5  O   UNL     1      36.692 -24.972 -15.326  0.00  0.00    -0.250 OA
ATOM      6  C   UNL     1      37.783 -24.535 -14.983  0.00  0.00    +0.318 C 
BRANCH   6   7
ATOM      7  O   UNL     1      38.364 -23.386 -15.444  0.00  0.00    -0.444 OA
ATOM      8  C   UNL     1      37.489 -22.486 -16.131  0.00  0.00    +0.256 C 
ENDBRANCH   6   7
ENDBRANCH   4   6
ENDBRANCH   3   4
ENDBRANCH   2   3
BRANCH   2   9
ATOM      9  C   UNL     1      36.215 -23.769 -11.766  0.00  0.00    -0.020 C 
BRANCH   9  10
ATOM     10  N   UNL     1      35.483 -24.906 -12.302  0.00  0.00    +0.385 N 
ATOM     11  H   UNL     1      36.091 -25.725 -12.322  0.00  0.00    -0.089 HD
ATOM     12  H   UNL     1      35.170 -24.693 -13.249  0.00  0.00    -0.089 HD
ATOM     13  H   UNL     1      34.674 -25.098 -11.712  0.00  0.00    -0.089 HD
ENDBRANCH   9  10
ENDBRANCH   2   9
TORSDOF 6
ENDMDL
MODEL 8
REMARK VINA RESULT:      -4.7      9.823     10.773
REMARK  Name = 157922
REMARK  6 active torsions:
REMARK  status: ('A' for Active; 'I' for Inactive)
REMARK    1  A    between atoms: C_2  and  C_3
REMARK    2  A    between atoms: C_2  and  C_9
REMARK    3  A    between atoms: C_3  and  C_4
REMARK    4  A    between atoms: C_4  and  C_6
REMARK    5  A    between atoms: C_6  and  O_7
REMARK    6  A    between atoms: C_9  and  N_10
REMARK                            x       y       z     vdW  Elec       q    Type
REMARK                         _______ _______ _______ _____ _____    ______ ____
ROOT
ATOM      1  O   UNL     1      35.321 -16.965 -20.412  0.00  0.00    -0.298 OA
ATOM      2  C   UNL     1      35.114 -17.513 -21.493  0.00  0.00    +0.129 C 
ENDROOT
BRANCH   2   3
ATOM      3  C   UNL     1      34.802 -19.001 -21.600  0.00  0.00    +0.074 C 
BRANCH   3   4
ATOM      4  C   UNL     1      33.475 -19.392 -20.955  0.00  0.00    +0.117 C 
BRANCH   4   6
ATOM      5  O   UNL     1      32.682 -21.099 -19.410  0.00  0.00    -0.250 OA
ATOM      6  C   UNL     1      33.599 -20.592 -20.043  0.00  0.00    +0.318 C 
BRANCH   6   7
ATOM      7  O   UNL     1      34.901 -21.010 -20.038  0.00  0.00    -0.444 OA
ATOM      8  C   UNL     1      35.251 -21.921 -18.991  0.00  0.00    +0.256 C 
ENDBRANCH   6   7
ENDBRANCH   4   6
ENDBRANCH   3   4
ENDBRANCH   2   3
BRANCH   2   9
ATOM      9  C   UNL     1      35.140 -16.762 -22.812  0.00  0.00    -0.020 C 
BRANCH   9  10
ATOM     10  N   UNL     1      35.545 -17.668 -23.877  0.00  0.00    +0.385 N 
ATOM     11  H   UNL     1      34.758 -17.826 -24.507  0.00  0.00    -0.089 HD
ATOM     12  H   UNL     1      35.839 -18.557 -23.473  0.00  0.00    -0.089 HD
ATOM     13  H   UNL     1      36.319 -17.257 -24.396  0.00  0.00    -0.089 HD
ENDBRANCH   9  10
ENDBRANCH   2   9
TORSDOF 6
ENDMDL
MODEL 9
REMARK VINA RESULT:      -4.7      9.240     10.529
REMARK  Name = 157922
REMARK  6 active torsions:
REMARK  status: ('A' for Active; 'I' for Inactive)
REMARK    1  A    between atoms: C_2  and  C_3
REMARK    2  A    between atoms: C_2  and  C_9
REMARK    3  A    between atoms: C_3  and  C_4
REMARK    4  A    between atoms: C_4  and  C_6
REMARK    5  A    between atoms: C_6  and  O_7
REMARK    6  A    between atoms: C_9  and  N_10
REMARK                            x       y       z     vdW  Elec       q    Type
REMARK                         _______ _______ _______ _____ _____    ______ ____
ROOT
ATOM      1  O   UNL     1      32.391 -20.445 -19.749  0.00  0.00    -0.298 OA
ATOM      2  C   UNL     1      33.517 -20.931 -19.837  0.00  0.00    +0.129 C 
ENDROOT
BRANCH   2   3
ATOM      3  C   UNL     1      34.652 -20.219 -20.564  0.00  0.00    +0.074 C 
BRANCH   3   4
ATOM      4  C   UNL     1      34.204 -18.964 -21.309  0.00  0.00    +0.117 C 
BRANCH   4   6
ATOM      5  O   UNL     1      35.358 -16.988 -20.476  0.00  0.00    -0.250 OA
ATOM      6  C   UNL     1      35.257 -17.878 -21.310  0.00  0.00    +0.318 C 
BRANCH   6   7
ATOM      7  O   UNL     1      36.069 -18.051 -22.396  0.00  0.00    -0.444 OA
ATOM      8  C   UNL     1      35.395 -18.254 -23.642  0.00  0.00    +0.256 C 
ENDBRANCH   6   7
ENDBRANCH   4   6
ENDBRANCH   3   4
ENDBRANCH   2   3
BRANCH   2   9
ATOM      9  C   UNL     1      33.883 -22.271 -19.226  0.00  0.00    -0.020 C 
BRANCH   9  10
ATOM     10  N   UNL     1      32.855 -22.666 -18.275  0.00  0.00    +0.385 N 
ATOM     11  H   UNL     1      32.854 -22.020 -17.486  0.00  0.00    -0.089 HD
ATOM     12  H   UNL     1      33.046 -23.610 -17.940  0.00  0.00    -0.089 HD
ATOM     13  H   UNL     1      31.943 -22.646 -18.731  0.00  0.00    -0.089 HD
ENDBRANCH   9  10
ENDBRANCH   2   9
TORSDOF 6
ENDMDL
