MODEL 1
REMARK VINA RESULT:     -10.9      0.000      0.000
REMARK  Name = 192706
REMARK  3 active torsions:
REMARK  status: ('A' for Active; 'I' for Inactive)
REMARK    1  A    between atoms: C_14  and  O_17
REMARK    2  A    between atoms: O_17  and  C_20
REMARK    3  A    between atoms: N_19  and  C_22
REMARK                            x       y       z     vdW  Elec       q    Type
REMARK                         _______ _______ _______ _____ _____    ______ ____
ROOT
ATOM      1  N   UNL     1      33.447  -9.613 -23.054  0.00  0.00    +0.398 N 
ATOM      2  N   UNL     1      31.836 -11.606 -22.652  0.00  0.00    -0.327 N 
ATOM      3  C   UNL     1      33.581 -11.636 -24.332  0.00  0.00    +0.017 C 
ATOM      4  C   UNL     1      32.574 -10.704 -23.553  0.00  0.00    +0.023 C 
ATOM      5  C   UNL     1      34.918 -10.889 -24.310  0.00  0.00    -0.019 C 
ATOM      6  C   UNL     1      33.565 -12.882 -23.489  0.00  0.00    -0.007 C 
ATOM      7  C   UNL     1      34.520  -9.451 -24.033  0.00  0.00    -0.075 C 
ATOM      8  C   UNL     1      32.533 -12.797 -22.547  0.00  0.00    +0.042 C 
ATOM      9  C   UNL     1      33.104 -11.922 -25.759  0.00  0.00    +0.004 C 
ATOM     10  C   UNL     1      32.728  -8.368 -22.822  0.00  0.00    -0.098 C 
ATOM     11  C   UNL     1      34.389 -13.996 -23.575  0.00  0.00    +0.035 C 
ATOM     12  C   UNL     1      30.830 -11.155 -21.726  0.00  0.00    +0.110 C 
ATOM     13  C   UNL     1      32.316 -13.848 -21.669  0.00  0.00    +0.017 C 
ATOM     14  C   UNL     1      34.170 -15.049 -22.688  0.00  0.00    +0.150 C 
ATOM     15  C   UNL     1      33.140 -14.976 -21.741  0.00  0.00    +0.039 C 
ATOM     16  H   UNL     1      33.823  -9.861 -22.139  0.00  0.00    -0.077 HD
ENDROOT
BRANCH  14  17
ATOM     17  O   UNL     1      34.961 -16.157 -22.743  0.00  0.00    -0.410 OA
BRANCH  17  20
ATOM     18  O   UNL     1      35.191 -16.550 -20.473  0.00  0.00    -0.226 OA
ATOM     19  N   UNL     1      34.578 -18.265 -21.946  0.00  0.00    -0.250 N 
ATOM     20  C   UNL     1      34.932 -16.976 -21.592  0.00  0.00    +0.410 C 
ATOM     21  H   UNL     1      34.406 -18.418 -22.903  0.00  0.00    +0.158 HD
BRANCH  19  22
ATOM     22  C   UNL     1      34.433 -19.390 -21.102  0.00  0.00    +0.053 C 
ATOM     23  C   UNL     1      35.564 -20.072 -20.681  0.00  0.00    +0.015 C 
ATOM     24  C   UNL     1      33.164 -19.790 -20.714  0.00  0.00    +0.015 C 
ATOM     25  C   UNL     1      35.421 -21.182 -19.848  0.00  0.00    +0.001 C 
ATOM     26  C   UNL     1      33.022 -20.900 -19.882  0.00  0.00    +0.001 C 
ATOM     27  C   UNL     1      34.150 -21.596 -19.449  0.00  0.00    +0.000 C 
ENDBRANCH  19  22
ENDBRANCH  17  20
ENDBRANCH  14  17
TORSDOF 3
ENDMDL
MODEL 2
REMARK VINA RESULT:     -10.8      1.266      1.827
REMARK  Name = 192706
REMARK  3 active torsions:
REMARK  status: ('A' for Active; 'I' for Inactive)
REMARK    1  A    between atoms: C_14  and  O_17
REMARK    2  A    between atoms: O_17  and  C_20
REMARK    3  A    between atoms: N_19  and  C_22
REMARK                            x       y       z     vdW  Elec       q    Type
REMARK                         _______ _______ _______ _____ _____    ______ ____
ROOT
ATOM      1  N   UNL     1      33.281 -10.919 -23.402  0.00  0.00    +0.398 N 
ATOM      2  N   UNL     1      32.261 -12.850 -22.003  0.00  0.00    -0.327 N 
ATOM      3  C   UNL     1      33.228 -13.178 -24.200  0.00  0.00    +0.017 C 
ATOM      4  C   UNL     1      32.460 -12.149 -23.283  0.00  0.00    +0.023 C 
ATOM      5  C   UNL     1      34.346 -12.368 -24.864  0.00  0.00    -0.019 C 
ATOM      6  C   UNL     1      33.719 -14.183 -23.194  0.00  0.00    -0.007 C 
ATOM      7  C   UNL     1      33.869 -10.932 -24.740  0.00  0.00    -0.075 C 
ATOM      8  C   UNL     1      33.117 -13.936 -21.954  0.00  0.00    +0.042 C 
ATOM      9  C   UNL     1      32.298 -13.828 -25.229  0.00  0.00    +0.004 C 
ATOM     10  C   UNL     1      32.523  -9.700 -23.152  0.00  0.00    -0.098 C 
ATOM     11  C   UNL     1      34.608 -15.232 -23.380  0.00  0.00    +0.035 C 
ATOM     12  C   UNL     1      31.621 -12.251 -20.861  0.00  0.00    +0.110 C 
ATOM     13  C   UNL     1      33.408 -14.756 -20.873  0.00  0.00    +0.017 C 
ATOM     14  C   UNL     1      34.901 -16.052 -22.292  0.00  0.00    +0.150 C 
ATOM     15  C   UNL     1      34.305 -15.816 -21.046  0.00  0.00    +0.039 C 
ATOM     16  H   UNL     1      34.006 -10.915 -22.685  0.00  0.00    -0.077 HD
ENDROOT
BRANCH  14  17
ATOM     17  O   UNL     1      35.770 -17.091 -22.439  0.00  0.00    -0.410 OA
BRANCH  17  20
ATOM     18  O   UNL     1      34.700 -18.991 -23.215  0.00  0.00    -0.226 OA
ATOM     19  N   UNL     1      35.324 -18.781 -20.967  0.00  0.00    -0.250 N 
ATOM     20  C   UNL     1      35.205 -18.376 -22.283  0.00  0.00    +0.410 C 
ATOM     21  H   UNL     1      35.764 -18.145 -20.358  0.00  0.00    +0.158 HD
BRANCH  19  22
ATOM     22  C   UNL     1      34.891 -19.996 -20.389  0.00  0.00    +0.053 C 
ATOM     23  C   UNL     1      33.533 -20.264 -20.310  0.00  0.00    +0.015 C 
ATOM     24  C   UNL     1      35.831 -20.895 -19.910  0.00  0.00    +0.015 C 
ATOM     25  C   UNL     1      33.105 -21.462 -19.739  0.00  0.00    +0.001 C 
ATOM     26  C   UNL     1      35.403 -22.093 -19.339  0.00  0.00    +0.001 C 
ATOM     27  C   UNL     1      34.040 -22.377 -19.253  0.00  0.00    +0.000 C 
ENDBRANCH  19  22
ENDBRANCH  17  20
ENDBRANCH  14  17
TORSDOF 3
ENDMDL
MODEL 3
REMARK VINA RESULT:     -10.0      2.333      3.290
REMARK  Name = 192706
REMARK  3 active torsions:
REMARK  status: ('A' for Active; 'I' for Inactive)
REMARK    1  A    between atoms: C_14  and  O_17
REMARK    2  A    between atoms: O_17  and  C_20
REMARK    3  A    between atoms: N_19  and  C_22
REMARK                            x       y       z     vdW  Elec       q    Type
REMARK                         _______ _______ _______ _____ _____    ______ ____
ROOT
ATOM      1  N   UNL     1      32.894  -8.226 -20.755  0.00  0.00    +0.398 N 
ATOM      2  N   UNL     1      31.401 -10.321 -21.085  0.00  0.00    -0.327 N 
ATOM      3  C   UNL     1      32.424  -9.124 -22.926  0.00  0.00    +0.017 C 
ATOM      4  C   UNL     1      31.828  -8.966 -21.474  0.00  0.00    +0.023 C 
ATOM      5  C   UNL     1      33.728  -8.321 -22.915  0.00  0.00    -0.019 C 
ATOM      6  C   UNL     1      32.624 -10.612 -23.019  0.00  0.00    -0.007 C 
ATOM      7  C   UNL     1      33.555  -7.375 -21.742  0.00  0.00    -0.075 C 
ATOM      8  C   UNL     1      32.006 -11.236 -21.929  0.00  0.00    +0.042 C 
ATOM      9  C   UNL     1      31.449  -8.626 -23.998  0.00  0.00    +0.004 C 
ATOM     10  C   UNL     1      32.393  -7.461 -19.621  0.00  0.00    -0.098 C 
ATOM     11  C   UNL     1      33.284 -11.338 -24.001  0.00  0.00    +0.035 C 
ATOM     12  C   UNL     1      30.826 -10.636 -19.803  0.00  0.00    +0.110 C 
ATOM     13  C   UNL     1      32.045 -12.618 -21.815  0.00  0.00    +0.017 C 
ATOM     14  C   UNL     1      33.325 -12.726 -23.881  0.00  0.00    +0.150 C 
ATOM     15  C   UNL     1      32.710 -13.363 -22.796  0.00  0.00    +0.039 C 
ATOM     16  H   UNL     1      33.554  -8.885 -20.341  0.00  0.00    -0.077 HD
ENDROOT
BRANCH  14  17
ATOM     17  O   UNL     1      33.966 -13.470 -24.826  0.00  0.00    -0.410 OA
BRANCH  17  20
ATOM     18  O   UNL     1      33.024 -15.486 -25.461  0.00  0.00    -0.226 OA
ATOM     19  N   UNL     1      34.561 -15.366 -23.698  0.00  0.00    -0.250 N 
ATOM     20  C   UNL     1      33.780 -14.866 -24.723  0.00  0.00    +0.410 C 
ATOM     21  H   UNL     1      35.108 -14.708 -23.212  0.00  0.00    +0.158 HD
BRANCH  19  22
ATOM     22  C   UNL     1      34.671 -16.707 -23.263  0.00  0.00    +0.053 C 
ATOM     23  C   UNL     1      34.908 -17.705 -24.195  0.00  0.00    +0.015 C 
ATOM     24  C   UNL     1      34.536 -16.997 -21.915  0.00  0.00    +0.015 C 
ATOM     25  C   UNL     1      35.015 -19.028 -23.766  0.00  0.00    +0.001 C 
ATOM     26  C   UNL     1      34.643 -18.320 -21.486  0.00  0.00    +0.001 C 
ATOM     27  C   UNL     1      34.882 -19.336 -22.412  0.00  0.00    +0.000 C 
ENDBRANCH  19  22
ENDBRANCH  17  20
ENDBRANCH  14  17
TORSDOF 3
ENDMDL
MODEL 4
REMARK VINA RESULT:      -9.8      7.001     12.763
REMARK  Name = 192706
REMARK  3 active torsions:
REMARK  status: ('A' for Active; 'I' for Inactive)
REMARK    1  A    between atoms: C_14  and  O_17
REMARK    2  A    between atoms: O_17  and  C_20
REMARK    3  A    between atoms: N_19  and  C_22
REMARK                            x       y       z     vdW  Elec       q    Type
REMARK                         _______ _______ _______ _____ _____    ______ ____
ROOT
ATOM      1  N   UNL     1      36.917 -25.959 -13.188  0.00  0.00    +0.398 N 
ATOM      2  N   UNL     1      35.402 -23.875 -12.889  0.00  0.00    -0.327 N 
ATOM      3  C   UNL     1      36.630 -24.334 -14.926  0.00  0.00    +0.017 C 
ATOM      4  C   UNL     1      36.645 -24.510 -13.358  0.00  0.00    +0.023 C 
ATOM      5  C   UNL     1      37.040 -25.699 -15.488  0.00  0.00    -0.019 C 
ATOM      6  C   UNL     1      35.192 -23.975 -15.184  0.00  0.00    -0.007 C 
ATOM      7  C   UNL     1      37.743 -26.369 -14.322  0.00  0.00    -0.075 C 
ATOM      8  C   UNL     1      34.548 -23.720 -13.967  0.00  0.00    +0.042 C 
ATOM      9  C   UNL     1      37.573 -23.217 -15.382  0.00  0.00    +0.004 C 
ATOM     10  C   UNL     1      37.544 -26.276 -11.912  0.00  0.00    -0.098 C 
ATOM     11  C   UNL     1      34.530 -23.870 -16.399  0.00  0.00    +0.035 C 
ATOM     12  C   UNL     1      35.000 -23.840 -11.507  0.00  0.00    +0.110 C 
ATOM     13  C   UNL     1      33.211 -23.350 -13.962  0.00  0.00    +0.017 C 
ATOM     14  C   UNL     1      33.186 -23.502 -16.390  0.00  0.00    +0.150 C 
ATOM     15  C   UNL     1      32.530 -23.243 -15.179  0.00  0.00    +0.039 C 
ATOM     16  H   UNL     1      36.038 -26.477 -13.172  0.00  0.00    -0.077 HD
ENDROOT
BRANCH  14  17
ATOM     17  O   UNL     1      32.505 -23.390 -17.565  0.00  0.00    -0.410 OA
BRANCH  17  20
ATOM     18  O   UNL     1      33.902 -23.813 -19.361  0.00  0.00    -0.226 OA
ATOM     19  N   UNL     1      33.218 -21.634 -18.841  0.00  0.00    -0.250 N 
ATOM     20  C   UNL     1      33.283 -23.005 -18.678  0.00  0.00    +0.410 C 
ATOM     21  H   UNL     1      32.665 -21.148 -18.188  0.00  0.00    +0.158 HD
BRANCH  19  22
ATOM     22  C   UNL     1      33.849 -20.845 -19.830  0.00  0.00    +0.053 C 
ATOM     23  C   UNL     1      33.070 -20.123 -20.721  0.00  0.00    +0.015 C 
ATOM     24  C   UNL     1      35.233 -20.810 -19.891  0.00  0.00    +0.015 C 
ATOM     25  C   UNL     1      33.692 -19.345 -21.697  0.00  0.00    +0.001 C 
ATOM     26  C   UNL     1      35.855 -20.032 -20.868  0.00  0.00    +0.001 C 
ATOM     27  C   UNL     1      35.084 -19.300 -21.771  0.00  0.00    +0.000 C 
ENDBRANCH  19  22
ENDBRANCH  17  20
ENDBRANCH  14  17
TORSDOF 3
ENDMDL
MODEL 5
REMARK VINA RESULT:      -9.7      2.683      5.145
REMARK  Name = 192706
REMARK  3 active torsions:
REMARK  status: ('A' for Active; 'I' for Inactive)
REMARK    1  A    between atoms: C_14  and  O_17
REMARK    2  A    between atoms: O_17  and  C_20
REMARK    3  A    between atoms: N_19  and  C_22
REMARK                            x       y       z     vdW  Elec       q    Type
REMARK                         _______ _______ _______ _____ _____    ______ ____
ROOT
ATOM      1  N   UNL     1      32.678 -14.425 -22.844  0.00  0.00    +0.398 N 
ATOM      2  N   UNL     1      34.721 -15.837 -23.592  0.00  0.00    -0.327 N 
ATOM      3  C   UNL     1      33.985 -15.695 -21.288  0.00  0.00    +0.017 C 
ATOM      4  C   UNL     1      34.068 -14.909 -22.653  0.00  0.00    +0.023 C 
ATOM      5  C   UNL     1      32.565 -15.453 -20.769  0.00  0.00    -0.019 C 
ATOM      6  C   UNL     1      34.241 -17.111 -21.730  0.00  0.00    -0.007 C 
ATOM      7  C   UNL     1      32.122 -14.205 -21.510  0.00  0.00    -0.075 C 
ATOM      8  C   UNL     1      34.664 -17.115 -23.064  0.00  0.00    +0.042 C 
ATOM      9  C   UNL     1      35.051 -15.222 -20.294  0.00  0.00    +0.004 C 
ATOM     10  C   UNL     1      32.598 -13.231 -23.673  0.00  0.00    -0.098 C 
ATOM     11  C   UNL     1      34.120 -18.282 -20.996  0.00  0.00    +0.035 C 
ATOM     12  C   UNL     1      34.965 -15.526 -24.976  0.00  0.00    +0.110 C 
ATOM     13  C   UNL     1      34.978 -18.317 -23.682  0.00  0.00    +0.017 C 
ATOM     14  C   UNL     1      34.432 -19.488 -21.621  0.00  0.00    +0.150 C 
ATOM     15  C   UNL     1      34.858 -19.506 -22.955  0.00  0.00    +0.039 C 
ATOM     16  H   UNL     1      32.135 -15.123 -23.354  0.00  0.00    -0.077 HD
ENDROOT
BRANCH  14  17
ATOM     17  O   UNL     1      34.324 -20.658 -20.930  0.00  0.00    -0.410 OA
BRANCH  17  20
ATOM     18  O   UNL     1      36.329 -20.230 -19.855  0.00  0.00    -0.226 OA
ATOM     19  N   UNL     1      34.778 -21.748 -18.973  0.00  0.00    -0.250 N 
ATOM     20  C   UNL     1      35.262 -20.832 -19.888  0.00  0.00    +0.410 C 
ATOM     21  H   UNL     1      33.893 -22.129 -19.171  0.00  0.00    +0.158 HD
BRANCH  19  22
ATOM     22  C   UNL     1      35.401 -22.205 -17.789  0.00  0.00    +0.053 C 
ATOM     23  C   UNL     1      34.664 -22.946 -16.877  0.00  0.00    +0.015 C 
ATOM     24  C   UNL     1      36.734 -21.903 -17.561  0.00  0.00    +0.015 C 
ATOM     25  C   UNL     1      35.277 -23.396 -15.708  0.00  0.00    +0.001 C 
ATOM     26  C   UNL     1      37.347 -22.354 -16.392  0.00  0.00    +0.001 C 
ATOM     27  C   UNL     1      36.619 -23.100 -15.466  0.00  0.00    +0.000 C 
ENDBRANCH  19  22
ENDBRANCH  17  20
ENDBRANCH  14  17
TORSDOF 3
ENDMDL
MODEL 6
REMARK VINA RESULT:      -9.6      2.154      3.751
REMARK  Name = 192706
REMARK  3 active torsions:
REMARK  status: ('A' for Active; 'I' for Inactive)
REMARK    1  A    between atoms: C_14  and  O_17
REMARK    2  A    between atoms: O_17  and  C_20
REMARK    3  A    between atoms: N_19  and  C_22
REMARK                            x       y       z     vdW  Elec       q    Type
REMARK                         _______ _______ _______ _____ _____    ______ ____
ROOT
ATOM      1  N   UNL     1      32.036 -13.323 -22.037  0.00  0.00    +0.398 N 
ATOM      2  N   UNL     1      33.860 -13.975 -23.761  0.00  0.00    -0.327 N 
ATOM      3  C   UNL     1      33.926 -14.670 -21.441  0.00  0.00    +0.017 C 
ATOM      4  C   UNL     1      33.456 -13.524 -22.419  0.00  0.00    +0.023 C 
ATOM      5  C   UNL     1      32.743 -14.905 -20.498  0.00  0.00    -0.019 C 
ATOM      6  C   UNL     1      34.181 -15.805 -22.395  0.00  0.00    -0.007 C 
ATOM      7  C   UNL     1      31.936 -13.625 -20.610  0.00  0.00    -0.075 C 
ATOM      8  C   UNL     1      34.132 -15.331 -23.711  0.00  0.00    +0.042 C 
ATOM      9  C   UNL     1      35.200 -14.283 -20.683  0.00  0.00    +0.004 C 
ATOM     10  C   UNL     1      31.545 -11.988 -22.348  0.00  0.00    -0.098 C 
ATOM     11  C   UNL     1      34.450 -17.136 -22.105  0.00  0.00    +0.035 C 
ATOM     12  C   UNL     1      33.589 -13.232 -24.964  0.00  0.00    +0.110 C 
ATOM     13  C   UNL     1      34.358 -16.204 -24.765  0.00  0.00    +0.017 C 
ATOM     14  C   UNL     1      34.673 -18.011 -23.167  0.00  0.00    +0.150 C 
ATOM     15  C   UNL     1      34.628 -17.548 -24.488  0.00  0.00    +0.039 C 
ATOM     16  H   UNL     1      31.439 -13.944 -22.583  0.00  0.00    -0.077 HD
ENDROOT
BRANCH  14  17
ATOM     17  O   UNL     1      34.939 -19.324 -22.919  0.00  0.00    -0.410 OA
BRANCH  17  20
ATOM     18  O   UNL     1      33.297 -19.600 -21.311  0.00  0.00    -0.226 OA
ATOM     19  N   UNL     1      35.422 -20.551 -21.052  0.00  0.00    -0.250 N 
ATOM     20  C   UNL     1      34.440 -19.820 -21.694  0.00  0.00    +0.410 C 
ATOM     21  H   UNL     1      36.285 -20.618 -21.520  0.00  0.00    +0.158 HD
BRANCH  19  22
ATOM     22  C   UNL     1      35.337 -21.215 -19.807  0.00  0.00    +0.053 C 
ATOM     23  C   UNL     1      36.447 -21.245 -18.977  0.00  0.00    +0.015 C 
ATOM     24  C   UNL     1      34.148 -21.825 -19.441  0.00  0.00    +0.015 C 
ATOM     25  C   UNL     1      36.365 -21.900 -17.748  0.00  0.00    +0.001 C 
ATOM     26  C   UNL     1      34.065 -22.480 -18.212  0.00  0.00    +0.001 C 
ATOM     27  C   UNL     1      35.174 -22.518 -17.366  0.00  0.00    +0.000 C 
ENDBRANCH  19  22
ENDBRANCH  17  20
ENDBRANCH  14  17
TORSDOF 3
ENDMDL
MODEL 7
REMARK VINA RESULT:      -9.5      3.543      9.611
REMARK  Name = 192706
REMARK  3 active torsions:
REMARK  status: ('A' for Active; 'I' for Inactive)
REMARK    1  A    between atoms: C_14  and  O_17
REMARK    2  A    between atoms: O_17  and  C_20
REMARK    3  A    between atoms: N_19  and  C_22
REMARK                            x       y       z     vdW  Elec       q    Type
REMARK                         _______ _______ _______ _____ _____    ______ ____
ROOT
ATOM      1  N   UNL     1      34.741 -16.195 -23.600  0.00  0.00    +0.398 N 
ATOM      2  N   UNL     1      33.229 -14.726 -25.110  0.00  0.00    -0.327 N 
ATOM      3  C   UNL     1      33.505 -14.332 -22.735  0.00  0.00    +0.017 C 
ATOM      4  C   UNL     1      33.484 -15.447 -23.852  0.00  0.00    +0.023 C 
ATOM      5  C   UNL     1      34.723 -14.657 -21.866  0.00  0.00    -0.019 C 
ATOM      6  C   UNL     1      33.655 -13.078 -23.553  0.00  0.00    -0.007 C 
ATOM      7  C   UNL     1      34.994 -16.120 -22.162  0.00  0.00    -0.075 C 
ATOM      8  C   UNL     1      33.480 -13.380 -24.909  0.00  0.00    +0.042 C 
ATOM      9  C   UNL     1      32.206 -14.315 -21.924  0.00  0.00    +0.004 C 
ATOM     10  C   UNL     1      34.692 -17.571 -24.074  0.00  0.00    -0.098 C 
ATOM     11  C   UNL     1      33.908 -11.785 -23.117  0.00  0.00    +0.035 C 
ATOM     12  C   UNL     1      33.164 -15.370 -26.396  0.00  0.00    +0.110 C 
ATOM     13  C   UNL     1      33.557 -12.367 -25.854  0.00  0.00    +0.017 C 
ATOM     14  C   UNL     1      33.989 -10.771 -24.069  0.00  0.00    +0.150 C 
ATOM     15  C   UNL     1      33.814 -11.059 -25.429  0.00  0.00    +0.039 C 
ATOM     16  H   UNL     1      35.506 -15.774 -24.127  0.00  0.00    -0.077 HD
ENDROOT
BRANCH  14  17
ATOM     17  O   UNL     1      34.237  -9.490 -23.676  0.00  0.00    -0.410 OA
BRANCH  17  20
ATOM     18  O   UNL     1      31.982  -9.030 -23.424  0.00  0.00    -0.226 OA
ATOM     19  N   UNL     1      33.510  -7.344 -23.982  0.00  0.00    -0.250 N 
ATOM     20  C   UNL     1      33.114  -8.632 -23.672  0.00  0.00    +0.410 C 
ATOM     21  H   UNL     1      34.471  -7.218 -24.152  0.00  0.00    +0.158 HD
BRANCH  19  22
ATOM     22  C   UNL     1      32.704  -6.188 -24.084  0.00  0.00    +0.053 C 
ATOM     23  C   UNL     1      32.599  -5.540 -25.305  0.00  0.00    +0.015 C 
ATOM     24  C   UNL     1      32.035  -5.724 -22.962  0.00  0.00    +0.015 C 
ATOM     25  C   UNL     1      31.803  -4.398 -25.406  0.00  0.00    +0.001 C 
ATOM     26  C   UNL     1      31.240  -4.582 -23.064  0.00  0.00    +0.001 C 
ATOM     27  C   UNL     1      31.125  -3.919 -24.285  0.00  0.00    +0.000 C 
ENDBRANCH  19  22
ENDBRANCH  17  20
ENDBRANCH  14  17
TORSDOF 3
ENDMDL
MODEL 8
REMARK VINA RESULT:      -9.2      3.700     10.596
REMARK  Name = 192706
REMARK  3 active torsions:
REMARK  status: ('A' for Active; 'I' for Inactive)
REMARK    1  A    between atoms: C_14  and  O_17
REMARK    2  A    between atoms: O_17  and  C_20
REMARK    3  A    between atoms: N_19  and  C_22
REMARK                            x       y       z     vdW  Elec       q    Type
REMARK                         _______ _______ _______ _____ _____    ______ ____
ROOT
ATOM      1  N   UNL     1      33.207 -22.896 -15.166  0.00  0.00    +0.398 N 
ATOM      2  N   UNL     1      35.597 -23.081 -16.155  0.00  0.00    -0.327 N 
ATOM      3  C   UNL     1      33.593 -23.436 -17.469  0.00  0.00    +0.017 C 
ATOM      4  C   UNL     1      34.214 -23.569 -16.024  0.00  0.00    +0.023 C 
ATOM      5  C   UNL     1      32.209 -22.815 -17.256  0.00  0.00    -0.019 C 
ATOM      6  C   UNL     1      34.575 -22.520 -18.146  0.00  0.00    -0.007 C 
ATOM      7  C   UNL     1      31.906 -23.107 -15.798  0.00  0.00    -0.075 C 
ATOM      8  C   UNL     1      35.706 -22.365 -17.334  0.00  0.00    +0.042 C 
ATOM      9  C   UNL     1      33.513 -24.790 -18.180  0.00  0.00    +0.004 C 
ATOM     10  C   UNL     1      33.227 -23.367 -13.787  0.00  0.00    -0.098 C 
ATOM     11  C   UNL     1      34.470 -21.899 -19.383  0.00  0.00    +0.035 C 
ATOM     12  C   UNL     1      36.519 -22.999 -15.052  0.00  0.00    +0.110 C 
ATOM     13  C   UNL     1      36.759 -21.572 -17.768  0.00  0.00    +0.017 C 
ATOM     14  C   UNL     1      35.528 -21.100 -19.813  0.00  0.00    +0.150 C 
ATOM     15  C   UNL     1      36.666 -20.938 -19.011  0.00  0.00    +0.039 C 
ATOM     16  H   UNL     1      33.421 -21.901 -15.095  0.00  0.00    -0.077 HD
ENDROOT
BRANCH  14  17
ATOM     17  O   UNL     1      35.458 -20.475 -21.022  0.00  0.00    -0.410 OA
BRANCH  17  20
ATOM     18  O   UNL     1      33.525 -19.260 -20.640  0.00  0.00    -0.226 OA
ATOM     19  N   UNL     1      35.422 -18.259 -21.581  0.00  0.00    -0.250 N 
ATOM     20  C   UNL     1      34.681 -19.297 -21.046  0.00  0.00    +0.410 C 
ATOM     21  H   UNL     1      36.341 -18.482 -21.854  0.00  0.00    +0.158 HD
BRANCH  19  22
ATOM     22  C   UNL     1      35.022 -16.919 -21.783  0.00  0.00    +0.053 C 
ATOM     23  C   UNL     1      34.721 -16.127 -20.686  0.00  0.00    +0.015 C 
ATOM     24  C   UNL     1      34.937 -16.423 -23.075  0.00  0.00    +0.015 C 
ATOM     25  C   UNL     1      34.326 -14.805 -20.886  0.00  0.00    +0.001 C 
ATOM     26  C   UNL     1      34.541 -15.100 -23.274  0.00  0.00    +0.001 C 
ATOM     27  C   UNL     1      34.235 -14.291 -22.180  0.00  0.00    +0.000 C 
ENDBRANCH  19  22
ENDBRANCH  17  20
ENDBRANCH  14  17
TORSDOF 3
ENDMDL
MODEL 9
REMARK VINA RESULT:      -9.2      3.280      8.309
REMARK  Name = 192706
REMARK  3 active torsions:
REMARK  status: ('A' for Active; 'I' for Inactive)
REMARK    1  A    between atoms: C_14  and  O_17
REMARK    2  A    between atoms: O_17  and  C_20
REMARK    3  A    between atoms: N_19  and  C_22
REMARK                            x       y       z     vdW  Elec       q    Type
REMARK                         _______ _______ _______ _____ _____    ______ ____
ROOT
ATOM      1  N   UNL     1      33.570 -16.161 -25.069  0.00  0.00    +0.398 N 
ATOM      2  N   UNL     1      34.491 -15.267 -22.815  0.00  0.00    -0.327 N 
ATOM      3  C   UNL     1      33.569 -13.826 -24.530  0.00  0.00    +0.017 C 
ATOM      4  C   UNL     1      34.348 -15.174 -24.278  0.00  0.00    +0.023 C 
ATOM      5  C   UNL     1      32.495 -14.169 -25.567  0.00  0.00    -0.019 C 
ATOM      6  C   UNL     1      33.021 -13.523 -23.161  0.00  0.00    -0.007 C 
ATOM      7  C   UNL     1      33.015 -15.440 -26.213  0.00  0.00    -0.075 C 
ATOM      8  C   UNL     1      33.600 -14.389 -22.225  0.00  0.00    +0.042 C 
ATOM      9  C   UNL     1      34.503 -12.712 -25.014  0.00  0.00    +0.004 C 
ATOM     10  C   UNL     1      34.361 -17.312 -25.481  0.00  0.00    -0.098 C 
ATOM     11  C   UNL     1      32.103 -12.550 -22.791  0.00  0.00    +0.035 C 
ATOM     12  C   UNL     1      35.121 -16.376 -22.147  0.00  0.00    +0.110 C 
ATOM     13  C   UNL     1      33.256 -14.280 -20.885  0.00  0.00    +0.017 C 
ATOM     14  C   UNL     1      31.757 -12.447 -21.445  0.00  0.00    +0.150 C 
ATOM     15  C   UNL     1      32.329 -13.306 -20.498  0.00  0.00    +0.039 C 
ATOM     16  H   UNL     1      32.827 -16.558 -24.493  0.00  0.00    -0.077 HD
ENDROOT
BRANCH  14  17
ATOM     17  O   UNL     1      30.858 -11.504 -21.046  0.00  0.00    -0.410 OA
BRANCH  17  20
ATOM     18  O   UNL     1      31.563  -9.481 -20.168  0.00  0.00    -0.226 OA
ATOM     19  N   UNL     1      31.383  -9.803 -22.481  0.00  0.00    -0.250 N 
ATOM     20  C   UNL     1      31.302 -10.167 -21.149  0.00  0.00    +0.410 C 
ATOM     21  H   UNL     1      31.130 -10.496 -23.133  0.00  0.00    +0.158 HD
BRANCH  19  22
ATOM     22  C   UNL     1      31.782  -8.559 -23.020  0.00  0.00    +0.053 C 
ATOM     23  C   UNL     1      33.125  -8.218 -23.017  0.00  0.00    +0.015 C 
ATOM     24  C   UNL     1      30.823  -7.703 -23.538  0.00  0.00    +0.015 C 
ATOM     25  C   UNL     1      33.520  -6.990 -23.548  0.00  0.00    +0.001 C 
ATOM     26  C   UNL     1      31.217  -6.475 -24.069  0.00  0.00    +0.001 C 
ATOM     27  C   UNL     1      32.566  -6.118 -24.073  0.00  0.00    +0.000 C 
ENDBRANCH  19  22
ENDBRANCH  17  20
ENDBRANCH  14  17
TORSDOF 3
ENDMDL
