MODEL 1
REMARK VINA RESULT:      -9.1      0.000      0.000
REMARK  Name = 16089915
REMARK  4 active torsions:
REMARK  status: ('A' for Active; 'I' for Inactive)
REMARK    1  A    between atoms: N_3  and  C_25
REMARK    2  A    between atoms: C_5  and  O_21
REMARK    3  A    between atoms: C_19  and  O_23
REMARK    4  A    between atoms: C_25  and  C_26
REMARK                            x       y       z     vdW  Elec       q    Type
REMARK                         _______ _______ _______ _____ _____    ______ ____
ROOT
ATOM      1  O   UNL     1      31.392 -10.973 -22.543  0.00  0.00    -0.469 OA
ATOM      2  O   UNL     1      31.936 -11.054 -19.895  0.00  0.00    -0.292 OA
ATOM      3  N   UNL     1      32.052  -6.018 -24.071  0.00  0.00    +0.392 N 
ATOM      4  C   UNL     1      31.668  -8.571 -22.594  0.00  0.00    +0.084 C 
ATOM      5  C   UNL     1      32.216  -7.353 -21.839  0.00  0.00    +0.080 C 
ATOM      6  C   UNL     1      33.017  -6.501 -22.888  0.00  0.00    -0.024 C 
ATOM      7  C   UNL     1      30.661  -8.124 -23.677  0.00  0.00    -0.012 C 
ATOM      8  C   UNL     1      31.267  -7.170 -24.710  0.00  0.00    -0.072 C 
ATOM      9  C   UNL     1      31.135  -9.756 -21.769  0.00  0.00    +0.228 C 
ATOM     10  C   UNL     1      32.790  -9.308 -23.244  0.00  0.00    +0.016 C 
ATOM     11  C   UNL     1      34.243  -7.302 -23.454  0.00  0.00    +0.008 C 
ATOM     12  C   UNL     1      33.066  -7.774 -20.619  0.00  0.00    +0.033 C 
ATOM     13  C   UNL     1      33.963  -8.758 -23.727  0.00  0.00    -0.025 C 
ATOM     14  C   UNL     1      31.064  -4.941 -23.576  0.00  0.00    -0.096 C 
ATOM     15  C   UNL     1      32.290  -8.702 -19.685  0.00  0.00    +0.071 C 
ATOM     16  C   UNL     1      31.825  -9.942 -20.414  0.00  0.00    +0.191 C 
ATOM     17  C   UNL     1      32.533 -10.664 -23.247  0.00  0.00    +0.168 C 
ATOM     18  C   UNL     1      34.867  -9.633 -24.329  0.00  0.00    -0.001 C 
ATOM     19  C   UNL     1      33.403 -11.543 -23.850  0.00  0.00    +0.167 C 
ATOM     20  C   UNL     1      34.576 -11.013 -24.407  0.00  0.00    +0.039 C 
ENDROOT
BRANCH   5  21
ATOM     21  O   UNL     1      31.159  -6.568 -21.286  0.00  0.00    -0.388 OA
ATOM     22  H   UNL     1      30.620  -7.120 -20.698  0.00  0.00    +0.210 HD
ENDBRANCH   5  21
BRANCH  19  23
ATOM     23  O   UNL     1      33.162 -12.877 -23.877  0.00  0.00    -0.503 OA
ATOM     24  H   UNL     1      32.916 -13.325 -23.092  0.00  0.00    +0.292 HD
ENDBRANCH  19  23
BRANCH   3  25
ATOM     25  C   UNL     1      32.865  -5.319 -25.180  0.00  0.00    -0.073 C 
BRANCH  25  26
ATOM     26  C   UNL     1      32.081  -4.349 -25.997  0.00  0.00    -0.020 C 
ATOM     27  C   UNL     1      32.545  -4.016 -27.384  0.00  0.00    -0.002 C 
ATOM     28  C   UNL     1      32.665  -2.997 -26.290  0.00  0.00    -0.002 C 
ENDBRANCH  25  26
ENDBRANCH   3  25
TORSDOF 4
ENDMDL
MODEL 2
REMARK VINA RESULT:      -7.1     17.121     19.267
REMARK  Name = 16089915
REMARK  4 active torsions:
REMARK  status: ('A' for Active; 'I' for Inactive)
REMARK    1  A    between atoms: N_3  and  C_25
REMARK    2  A    between atoms: C_5  and  O_21
REMARK    3  A    between atoms: C_19  and  O_23
REMARK    4  A    between atoms: C_25  and  C_26
REMARK                            x       y       z     vdW  Elec       q    Type
REMARK                         _______ _______ _______ _____ _____    ______ ____
ROOT
ATOM      1  O   UNL     1      38.705 -23.906 -14.148  0.00  0.00    -0.469 OA
ATOM      2  O   UNL     1      39.296 -26.539 -14.308  0.00  0.00    -0.292 OA
ATOM      3  N   UNL     1      33.678 -23.400 -15.490  0.00  0.00    +0.392 N 
ATOM      4  C   UNL     1      36.477 -24.286 -15.008  0.00  0.00    +0.084 C 
ATOM      5  C   UNL     1      35.403 -25.344 -15.292  0.00  0.00    +0.080 C 
ATOM      6  C   UNL     1      34.050 -24.766 -14.741  0.00  0.00    -0.024 C 
ATOM      7  C   UNL     1      36.181 -22.994 -15.802  0.00  0.00    -0.012 C 
ATOM      8  C   UNL     1      34.820 -22.377 -15.469  0.00  0.00    -0.072 C 
ATOM      9  C   UNL     1      37.954 -24.703 -15.121  0.00  0.00    +0.228 C 
ATOM     10  C   UNL     1      36.501 -23.970 -13.551  0.00  0.00    +0.016 C 
ATOM     11  C   UNL     1      34.113 -24.555 -13.186  0.00  0.00    +0.008 C 
ATOM     12  C   UNL     1      35.776 -26.712 -14.678  0.00  0.00    +0.033 C 
ATOM     13  C   UNL     1      35.423 -24.004 -12.685  0.00  0.00    -0.025 C 
ATOM     14  C   UNL     1      33.260 -23.667 -16.952  0.00  0.00    -0.096 C 
ATOM     15  C   UNL     1      37.154 -27.182 -15.144  0.00  0.00    +0.071 C 
ATOM     16  C   UNL     1      38.221 -26.173 -14.786  0.00  0.00    +0.191 C 
ATOM     17  C   UNL     1      37.790 -23.690 -13.144  0.00  0.00    +0.168 C 
ATOM     18  C   UNL     1      35.668 -23.637 -11.362  0.00  0.00    -0.001 C 
ATOM     19  C   UNL     1      38.051 -23.310 -11.848  0.00  0.00    +0.167 C 
ATOM     20  C   UNL     1      36.970 -23.274 -10.955  0.00  0.00    +0.039 C 
ENDROOT
BRANCH   5  21
ATOM     21  O   UNL     1      35.284 -25.599 -16.692  0.00  0.00    -0.388 OA
ATOM     22  H   UNL     1      35.126 -24.765 -17.160  0.00  0.00    +0.210 HD
ENDBRANCH   5  21
BRANCH  19  23
ATOM     23  O   UNL     1      39.308 -23.017 -11.431  0.00  0.00    -0.503 OA
ATOM     24  H   UNL     1      39.994 -23.646 -11.535  0.00  0.00    +0.292 HD
ENDBRANCH  19  23
BRANCH   3  25
ATOM     25  C   UNL     1      32.438 -22.750 -14.844  0.00  0.00    -0.073 C 
BRANCH  25  26
ATOM     26  C   UNL     1      31.137 -23.269 -15.353  0.00  0.00    -0.020 C 
ATOM     27  C   UNL     1      29.859 -22.696 -14.816  0.00  0.00    -0.002 C 
ATOM     28  C   UNL     1      30.269 -24.091 -14.444  0.00  0.00    -0.002 C 
ENDBRANCH  25  26
ENDBRANCH   3  25
TORSDOF 4
ENDMDL
MODEL 3
REMARK VINA RESULT:      -6.8     16.129     18.764
REMARK  Name = 16089915
REMARK  4 active torsions:
REMARK  status: ('A' for Active; 'I' for Inactive)
REMARK    1  A    between atoms: N_3  and  C_25
REMARK    2  A    between atoms: C_5  and  O_21
REMARK    3  A    between atoms: C_19  and  O_23
REMARK    4  A    between atoms: C_25  and  C_26
REMARK                            x       y       z     vdW  Elec       q    Type
REMARK                         _______ _______ _______ _____ _____    ______ ____
ROOT
ATOM      1  O   UNL     1      37.868 -26.629 -13.346  0.00  0.00    -0.469 OA
ATOM      2  O   UNL     1      38.178 -25.605 -10.863  0.00  0.00    -0.292 OA
ATOM      3  N   UNL     1      34.783 -23.325 -15.970  0.00  0.00    +0.392 N 
ATOM      4  C   UNL     1      36.311 -24.879 -13.945  0.00  0.00    +0.084 C 
ATOM      5  C   UNL     1      35.765 -23.498 -13.562  0.00  0.00    +0.080 C 
ATOM      6  C   UNL     1      35.740 -22.645 -14.881  0.00  0.00    -0.024 C 
ATOM      7  C   UNL     1      35.345 -25.586 -14.923  0.00  0.00    -0.012 C 
ATOM      8  C   UNL     1      35.113 -24.802 -16.217  0.00  0.00    -0.072 C 
ATOM      9  C   UNL     1      36.771 -25.816 -12.815  0.00  0.00    +0.228 C 
ATOM     10  C   UNL     1      37.645 -24.731 -14.597  0.00  0.00    +0.016 C 
ATOM     11  C   UNL     1      37.189 -22.443 -15.454  0.00  0.00    +0.008 C 
ATOM     12  C   UNL     1      36.597 -22.849 -12.433  0.00  0.00    +0.033 C 
ATOM     13  C   UNL     1      38.069 -23.663 -15.366  0.00  0.00    -0.025 C 
ATOM     14  C   UNL     1      33.300 -23.195 -15.561  0.00  0.00    -0.096 C 
ATOM     15  C   UNL     1      36.700 -23.763 -11.212  0.00  0.00    +0.071 C 
ATOM     16  C   UNL     1      37.317 -25.093 -11.580  0.00  0.00    +0.191 C 
ATOM     17  C   UNL     1      38.456 -25.800 -14.272  0.00  0.00    +0.168 C 
ATOM     18  C   UNL     1      39.351 -23.749 -15.907  0.00  0.00    -0.001 C 
ATOM     19  C   UNL     1      39.718 -25.912 -14.809  0.00  0.00    +0.167 C 
ATOM     20  C   UNL     1      40.160 -24.876 -15.645  0.00  0.00    +0.039 C 
ENDROOT
BRANCH   5  21
ATOM     21  O   UNL     1      34.445 -23.593 -13.025  0.00  0.00    -0.388 OA
ATOM     22  H   UNL     1      33.816 -23.767 -13.743  0.00  0.00    +0.210 HD
ENDBRANCH   5  21
BRANCH  19  23
ATOM     23  O   UNL     1      40.525 -26.961 -14.515  0.00  0.00    -0.503 OA
ATOM     24  H   UNL     1      41.437 -26.820 -14.354  0.00  0.00    +0.292 HD
ENDBRANCH  19  23
BRANCH   3  25
ATOM     25  C   UNL     1      34.880 -22.579 -17.316  0.00  0.00    -0.073 C 
BRANCH  25  26
ATOM     26  C   UNL     1      33.704 -22.771 -18.211  0.00  0.00    -0.020 C 
ATOM     27  C   UNL     1      33.926 -22.953 -19.684  0.00  0.00    -0.002 C 
ATOM     28  C   UNL     1      33.325 -21.678 -19.168  0.00  0.00    -0.002 C 
ENDBRANCH  25  26
ENDBRANCH   3  25
TORSDOF 4
ENDMDL
