MODEL 1
REMARK VINA RESULT:      -8.3      0.000      0.000
REMARK  Name = 5462328
REMARK  4 active torsions:
REMARK  status: ('A' for Active; 'I' for Inactive)
REMARK    1  A    between atoms: C_12  and  O_21
REMARK    2  A    between atoms: C_18  and  O_25
REMARK    3  A    between atoms: O_21  and  C_23
REMARK    4  A    between atoms: O_25  and  C_27
REMARK                            x       y       z     vdW  Elec       q    Type
REMARK                         _______ _______ _______ _____ _____    ______ ____
ROOT
ATOM      1  O   UNL     1      32.085 -10.396 -22.587  0.00  0.00    -0.472 OA
ATOM      2  N   UNL     1      31.038  -5.503 -24.165  0.00  0.00    +0.387 N 
ATOM      3  C   UNL     1      31.536  -8.035 -22.836  0.00  0.00    +0.062 C 
ATOM      4  C   UNL     1      31.763  -6.681 -22.148  0.00  0.00    +0.011 C 
ATOM      5  C   UNL     1      32.202  -5.676 -23.262  0.00  0.00    -0.049 C 
ATOM      6  C   UNL     1      31.378  -9.284 -21.936  0.00  0.00    +0.214 C 
ATOM      7  C   UNL     1      30.402  -7.900 -23.872  0.00  0.00    -0.015 C 
ATOM      8  C   UNL     1      32.805  -8.438 -23.514  0.00  0.00    +0.014 C 
ATOM      9  C   UNL     1      33.532  -6.103 -23.973  0.00  0.00    +0.006 C 
ATOM     10  C   UNL     1      30.628  -6.734 -24.849  0.00  0.00    -0.077 C 
ATOM     11  C   UNL     1      33.723  -7.590 -24.105  0.00  0.00    -0.025 C 
ATOM     12  C   UNL     1      31.873  -9.089 -20.478  0.00  0.00    +0.230 C 
ATOM     13  C   UNL     1      32.725  -6.799 -20.993  0.00  0.00    -0.029 C 
ATOM     14  C   UNL     1      33.020  -9.792 -23.383  0.00  0.00    +0.169 C 
ATOM     15  C   UNL     1      32.782  -7.912 -20.246  0.00  0.00    +0.016 C 
ATOM     16  C   UNL     1      31.191  -4.397 -25.104  0.00  0.00    -0.101 C 
ATOM     17  C   UNL     1      34.844  -8.176 -24.695  0.00  0.00    -0.001 C 
ATOM     18  C   UNL     1      34.114 -10.394 -23.964  0.00  0.00    +0.182 C 
ATOM     19  C   UNL     1      35.026  -9.574 -24.641  0.00  0.00    +0.040 C 
ATOM     20  H   UNL     1      30.274  -5.256 -23.536  0.00  0.00    -0.080 HD
ENDROOT
BRANCH  12  21
ATOM     21  O   UNL     1      32.483 -10.288 -20.008  0.00  0.00    -0.444 OA
BRANCH  21  23
ATOM     22  O   UNL     1      30.872 -10.976 -18.503  0.00  0.00    -0.250 OA
ATOM     23  C   UNL     1      31.640 -11.194 -19.430  0.00  0.00    +0.318 C 
ATOM     24  C   UNL     1      31.787 -12.525 -20.102  0.00  0.00    +0.121 C 
ENDBRANCH  21  23
ENDBRANCH  12  21
BRANCH  18  25
ATOM     25  O   UNL     1      34.328 -11.728 -23.860  0.00  0.00    -0.421 OA
BRANCH  25  27
ATOM     26  O   UNL     1      33.640 -12.216 -26.042  0.00  0.00    -0.250 OA
ATOM     27  C   UNL     1      33.695 -12.497 -24.853  0.00  0.00    +0.322 C 
ATOM     28  C   UNL     1      33.085 -13.727 -24.247  0.00  0.00    +0.122 C 
ENDBRANCH  25  27
ENDBRANCH  18  25
TORSDOF 4
ENDMDL
MODEL 2
REMARK VINA RESULT:      -7.3      5.609      9.613
REMARK  Name = 5462328
REMARK  4 active torsions:
REMARK  status: ('A' for Active; 'I' for Inactive)
REMARK    1  A    between atoms: C_12  and  O_21
REMARK    2  A    between atoms: C_18  and  O_25
REMARK    3  A    between atoms: O_21  and  C_23
REMARK    4  A    between atoms: O_25  and  C_27
REMARK                            x       y       z     vdW  Elec       q    Type
REMARK                         _______ _______ _______ _____ _____    ______ ____
ROOT
ATOM      1  O   UNL     1      34.801 -15.483 -23.005  0.00  0.00    -0.472 OA
ATOM      2  N   UNL     1      35.708 -19.884 -20.296  0.00  0.00    +0.387 N 
ATOM      3  C   UNL     1      34.883 -17.344 -21.435  0.00  0.00    +0.062 C 
ATOM      4  C   UNL     1      33.964 -18.186 -20.537  0.00  0.00    +0.011 C 
ATOM      5  C   UNL     1      34.326 -19.684 -20.798  0.00  0.00    -0.049 C 
ATOM      6  C   UNL     1      34.549 -15.843 -21.602  0.00  0.00    +0.214 C 
ATOM      7  C   UNL     1      36.352 -17.587 -21.035  0.00  0.00    -0.015 C 
ATOM      8  C   UNL     1      34.662 -17.757 -22.854  0.00  0.00    +0.014 C 
ATOM      9  C   UNL     1      34.097 -20.113 -22.288  0.00  0.00    +0.006 C 
ATOM     10  C   UNL     1      36.716 -19.080 -20.995  0.00  0.00    -0.077 C 
ATOM     11  C   UNL     1      34.360 -19.030 -23.300  0.00  0.00    -0.025 C 
ATOM     12  C   UNL     1      33.106 -15.457 -21.181  0.00  0.00    +0.230 C 
ATOM     13  C   UNL     1      32.511 -17.844 -20.753  0.00  0.00    -0.029 C 
ATOM     14  C   UNL     1      34.688 -16.663 -23.690  0.00  0.00    +0.169 C 
ATOM     15  C   UNL     1      32.129 -16.598 -21.067  0.00  0.00    +0.016 C 
ATOM     16  C   UNL     1      36.102 -21.287 -20.221  0.00  0.00    -0.101 C 
ATOM     17  C   UNL     1      34.202 -19.203 -24.675  0.00  0.00    -0.001 C 
ATOM     18  C   UNL     1      34.544 -16.809 -25.052  0.00  0.00    +0.182 C 
ATOM     19  C   UNL     1      34.315 -18.099 -25.547  0.00  0.00    +0.040 C 
ATOM     20  H   UNL     1      35.674 -19.532 -19.339  0.00  0.00    -0.080 HD
ENDROOT
BRANCH  12  21
ATOM     21  O   UNL     1      32.597 -14.453 -22.055  0.00  0.00    -0.444 OA
BRANCH  21  23
ATOM     22  O   UNL     1      32.232 -13.035 -20.269  0.00  0.00    -0.250 OA
ATOM     23  C   UNL     1      32.297 -13.256 -21.471  0.00  0.00    +0.318 C 
ATOM     24  C   UNL     1      32.054 -12.222 -22.528  0.00  0.00    +0.121 C 
ENDBRANCH  21  23
ENDBRANCH  12  21
BRANCH  18  25
ATOM     25  O   UNL     1      34.586 -15.744 -25.888  0.00  0.00    -0.421 OA
BRANCH  25  27
ATOM     26  O   UNL     1      32.452 -15.760 -26.850  0.00  0.00    -0.250 OA
ATOM     27  C   UNL     1      33.326 -15.201 -26.201  0.00  0.00    +0.322 C 
ATOM     28  C   UNL     1      33.197 -13.822 -25.624  0.00  0.00    +0.122 C 
ENDBRANCH  25  27
ENDBRANCH  18  25
TORSDOF 4
ENDMDL
MODEL 3
REMARK VINA RESULT:      -6.9     13.426     17.539
REMARK  Name = 5462328
REMARK  4 active torsions:
REMARK  status: ('A' for Active; 'I' for Inactive)
REMARK    1  A    between atoms: C_12  and  O_21
REMARK    2  A    between atoms: C_18  and  O_25
REMARK    3  A    between atoms: O_21  and  C_23
REMARK    4  A    between atoms: O_25  and  C_27
REMARK                            x       y       z     vdW  Elec       q    Type
REMARK                         _______ _______ _______ _____ _____    ______ ____
ROOT
ATOM      1  O   UNL     1      33.782 -24.064 -16.877  0.00  0.00    -0.472 OA
ATOM      2  N   UNL     1      37.645 -25.330 -13.561  0.00  0.00    +0.387 N 
ATOM      3  C   UNL     1      35.845 -24.338 -15.610  0.00  0.00    +0.062 C 
ATOM      4  C   UNL     1      37.046 -23.527 -15.101  0.00  0.00    +0.011 C 
ATOM      5  C   UNL     1      37.240 -23.903 -13.596  0.00  0.00    -0.049 C 
ATOM      6  C   UNL     1      35.244 -23.951 -16.982  0.00  0.00    +0.214 C 
ATOM      7  C   UNL     1      36.160 -25.843 -15.501  0.00  0.00    -0.015 C 
ATOM      8  C   UNL     1      34.657 -23.999 -14.770  0.00  0.00    +0.014 C 
ATOM      9  C   UNL     1      35.990 -23.550 -12.718  0.00  0.00    +0.006 C 
ATOM     10  C   UNL     1      36.635 -26.248 -14.096  0.00  0.00    -0.077 C 
ATOM     11  C   UNL     1      34.668 -23.690 -13.422  0.00  0.00    -0.025 C 
ATOM     12  C   UNL     1      35.657 -22.543 -17.489  0.00  0.00    +0.230 C 
ATOM     13  C   UNL     1      36.872 -22.052 -15.364  0.00  0.00    -0.029 C 
ATOM     14  C   UNL     1      33.520 -23.919 -15.542  0.00  0.00    +0.169 C 
ATOM     15  C   UNL     1      36.218 -21.611 -16.448  0.00  0.00    +0.016 C 
ATOM     16  C   UNL     1      38.122 -25.765 -12.252  0.00  0.00    -0.101 C 
ATOM     17  C   UNL     1      33.439 -23.412 -12.823  0.00  0.00    -0.001 C 
ATOM     18  C   UNL     1      32.294 -23.655 -14.971  0.00  0.00    +0.182 C 
ATOM     19  C   UNL     1      32.257 -23.415 -13.592  0.00  0.00    +0.040 C 
ATOM     20  H   UNL     1      38.440 -25.375 -14.198  0.00  0.00    -0.080 HD
ENDROOT
BRANCH  12  21
ATOM     21  O   UNL     1      34.562 -21.931 -18.165  0.00  0.00    -0.444 OA
BRANCH  21  23
ATOM     22  O   UNL     1      35.847 -21.702 -20.071  0.00  0.00    -0.250 OA
ATOM     23  C   UNL     1      34.807 -21.532 -19.448  0.00  0.00    +0.318 C 
ATOM     24  C   UNL     1      33.599 -20.844 -20.005  0.00  0.00    +0.121 C 
ENDBRANCH  21  23
ENDBRANCH  12  21
BRANCH  18  25
ATOM     25  O   UNL     1      31.163 -23.593 -15.716  0.00  0.00    -0.421 OA
BRANCH  25  27
ATOM     26  O   UNL     1      30.428 -25.714 -15.055  0.00  0.00    -0.250 OA
ATOM     27  C   UNL     1      30.196 -24.558 -15.385  0.00  0.00    +0.322 C 
ATOM     28  C   UNL     1      28.819 -23.972 -15.493  0.00  0.00    +0.122 C 
ENDBRANCH  25  27
ENDBRANCH  18  25
TORSDOF 4
ENDMDL
MODEL 4
REMARK VINA RESULT:      -6.7      1.064      1.307
REMARK  Name = 5462328
REMARK  4 active torsions:
REMARK  status: ('A' for Active; 'I' for Inactive)
REMARK    1  A    between atoms: C_12  and  O_21
REMARK    2  A    between atoms: C_18  and  O_25
REMARK    3  A    between atoms: O_21  and  C_23
REMARK    4  A    between atoms: O_25  and  C_27
REMARK                            x       y       z     vdW  Elec       q    Type
REMARK                         _______ _______ _______ _____ _____    ______ ____
ROOT
ATOM      1  O   UNL     1      31.907 -10.642 -23.566  0.00  0.00    -0.472 OA
ATOM      2  N   UNL     1      31.142  -5.459 -23.289  0.00  0.00    +0.387 N 
ATOM      3  C   UNL     1      31.383  -8.336 -22.982  0.00  0.00    +0.062 C 
ATOM      4  C   UNL     1      31.429  -7.369 -21.789  0.00  0.00    +0.011 C 
ATOM      5  C   UNL     1      32.083  -6.047 -22.304  0.00  0.00    -0.049 C 
ATOM      6  C   UNL     1      31.055  -9.820 -22.695  0.00  0.00    +0.214 C 
ATOM      7  C   UNL     1      30.501  -7.734 -24.094  0.00  0.00    -0.015 C 
ATOM      8  C   UNL     1      32.777  -8.534 -23.482  0.00  0.00    +0.014 C 
ATOM      9  C   UNL     1      33.544  -6.258 -22.832  0.00  0.00    +0.006 C 
ATOM     10  C   UNL     1      30.914  -6.301 -24.468  0.00  0.00    -0.077 C 
ATOM     11  C   UNL     1      33.787  -7.589 -23.490  0.00  0.00    -0.025 C 
ATOM     12  C   UNL     1      31.215 -10.236 -21.208  0.00  0.00    +0.230 C 
ATOM     13  C   UNL     1      32.118  -7.989 -20.599  0.00  0.00    -0.029 C 
ATOM     14  C   UNL     1      32.983  -9.845 -23.849  0.00  0.00    +0.169 C 
ATOM     15  C   UNL     1      32.030  -9.304 -20.351  0.00  0.00    +0.016 C 
ATOM     16  C   UNL     1      31.477  -4.090 -23.668  0.00  0.00    -0.101 C 
ATOM     17  C   UNL     1      35.020  -7.979 -24.014  0.00  0.00    -0.001 C 
ATOM     18  C   UNL     1      34.188 -10.252 -24.377  0.00  0.00    +0.182 C 
ATOM     19  C   UNL     1      35.211  -9.299 -24.473  0.00  0.00    +0.040 C 
ATOM     20  H   UNL     1      30.255  -5.421 -22.788  0.00  0.00    -0.080 HD
ENDROOT
BRANCH  12  21
ATOM     21  O   UNL     1      31.729 -11.563 -21.128  0.00  0.00    -0.444 OA
BRANCH  21  23
ATOM     22  O   UNL     1      31.469 -11.542 -18.833  0.00  0.00    -0.250 OA
ATOM     23  C   UNL     1      31.829 -12.084 -19.870  0.00  0.00    +0.318 C 
ATOM     24  C   UNL     1      32.453 -13.444 -19.932  0.00  0.00    +0.121 C 
ENDBRANCH  21  23
ENDBRANCH  12  21
BRANCH  18  25
ATOM     25  O   UNL     1      34.399 -11.535 -24.759  0.00  0.00    -0.421 OA
BRANCH  25  27
ATOM     26  O   UNL     1      33.266 -12.406 -26.613  0.00  0.00    -0.250 OA
ATOM     27  C   UNL     1      34.196 -11.772 -26.131  0.00  0.00    +0.322 C 
ATOM     28  C   UNL     1      35.291 -11.137 -26.936  0.00  0.00    +0.122 C 
ENDBRANCH  25  27
ENDBRANCH  18  25
TORSDOF 4
ENDMDL
MODEL 5
REMARK VINA RESULT:      -6.6     14.914     18.200
REMARK  Name = 5462328
REMARK  4 active torsions:
REMARK  status: ('A' for Active; 'I' for Inactive)
REMARK    1  A    between atoms: C_12  and  O_21
REMARK    2  A    between atoms: C_18  and  O_25
REMARK    3  A    between atoms: O_21  and  C_23
REMARK    4  A    between atoms: O_25  and  C_27
REMARK                            x       y       z     vdW  Elec       q    Type
REMARK                         _______ _______ _______ _____ _____    ______ ____
ROOT
ATOM      1  O   UNL     1      34.058 -24.699 -15.289  0.00  0.00    -0.472 OA
ATOM      2  N   UNL     1      39.155 -25.685 -14.533  0.00  0.00    +0.387 N 
ATOM      3  C   UNL     1      36.490 -24.837 -15.310  0.00  0.00    +0.062 C 
ATOM      4  C   UNL     1      37.731 -23.953 -15.511  0.00  0.00    +0.011 C 
ATOM      5  C   UNL     1      38.713 -24.282 -14.340  0.00  0.00    -0.049 C 
ATOM      6  C   UNL     1      35.233 -24.514 -16.152  0.00  0.00    +0.214 C 
ATOM      7  C   UNL     1      36.899 -26.321 -15.394  0.00  0.00    -0.015 C 
ATOM      8  C   UNL     1      35.911 -24.538 -13.966  0.00  0.00    +0.014 C 
ATOM      9  C   UNL     1      38.101 -23.971 -12.930  0.00  0.00    +0.006 C 
ATOM     10  C   UNL     1      38.068 -26.667 -14.457  0.00  0.00    -0.077 C 
ATOM     11  C   UNL     1      36.617 -24.196 -12.827  0.00  0.00    -0.025 C 
ATOM     12  C   UNL     1      35.235 -23.100 -16.792  0.00  0.00    +0.230 C 
ATOM     13  C   UNL     1      37.362 -22.496 -15.631  0.00  0.00    -0.029 C 
ATOM     14  C   UNL     1      34.535 -24.535 -14.017  0.00  0.00    +0.169 C 
ATOM     15  C   UNL     1      36.209 -22.115 -16.201  0.00  0.00    +0.016 C 
ATOM     16  C   UNL     1      40.277 -26.064 -13.680  0.00  0.00    -0.101 C 
ATOM     17  C   UNL     1      35.879 -23.966 -11.666  0.00  0.00    -0.001 C 
ATOM     18  C   UNL     1      33.785 -24.320 -12.881  0.00  0.00    +0.182 C 
ATOM     19  C   UNL     1      34.471 -24.048 -11.691  0.00  0.00    +0.040 C 
ATOM     20  H   UNL     1      39.493 -25.705 -15.495  0.00  0.00    -0.080 HD
ENDROOT
BRANCH  12  21
ATOM     21  O   UNL     1      33.916 -22.561 -16.781  0.00  0.00    -0.444 OA
BRANCH  21  23
ATOM     22  O   UNL     1      32.026 -22.707 -18.101  0.00  0.00    -0.250 OA
ATOM     23  C   UNL     1      33.240 -22.626 -17.966  0.00  0.00    +0.318 C 
ATOM     24  C   UNL     1      34.210 -22.583 -19.107  0.00  0.00    +0.121 C 
ENDBRANCH  21  23
ENDBRANCH  12  21
BRANCH  18  25
ATOM     25  O   UNL     1      32.431 -24.333 -12.913  0.00  0.00    -0.421 OA
BRANCH  25  27
ATOM     26  O   UNL     1      32.171 -22.252 -13.951  0.00  0.00    -0.250 OA
ATOM     27  C   UNL     1      31.863 -23.430 -13.829  0.00  0.00    +0.322 C 
ATOM     28  C   UNL     1      30.810 -24.116 -14.650  0.00  0.00    +0.122 C 
ENDBRANCH  25  27
ENDBRANCH  18  25
TORSDOF 4
ENDMDL
MODEL 6
REMARK VINA RESULT:      -6.0      3.573      6.917
REMARK  Name = 5462328
REMARK  4 active torsions:
REMARK  status: ('A' for Active; 'I' for Inactive)
REMARK    1  A    between atoms: C_12  and  O_21
REMARK    2  A    between atoms: C_18  and  O_25
REMARK    3  A    between atoms: O_21  and  C_23
REMARK    4  A    between atoms: O_25  and  C_27
REMARK                            x       y       z     vdW  Elec       q    Type
REMARK                         _______ _______ _______ _____ _____    ______ ____
ROOT
ATOM      1  O   UNL     1      31.487  -5.679 -24.861  0.00  0.00    -0.472 OA
ATOM      2  N   UNL     1      31.923 -10.116 -22.096  0.00  0.00    +0.387 N 
ATOM      3  C   UNL     1      32.128  -7.778 -23.804  0.00  0.00    +0.062 C 
ATOM      4  C   UNL     1      33.360  -8.495 -23.231  0.00  0.00    +0.011 C 
ATOM      5  C   UNL     1      32.942  -9.069 -21.839  0.00  0.00    -0.049 C 
ATOM      6  C   UNL     1      32.334  -6.867 -25.038  0.00  0.00    +0.214 C 
ATOM      7  C   UNL     1      30.987  -8.796 -23.997  0.00  0.00    -0.015 C 
ATOM      8  C   UNL     1      31.711  -6.716 -22.840  0.00  0.00    +0.014 C 
ATOM      9  C   UNL     1      32.501  -7.953 -20.831  0.00  0.00    +0.006 C 
ATOM     10  C   UNL     1      30.699  -9.612 -22.727  0.00  0.00    -0.077 C 
ATOM     11  C   UNL     1      31.806  -6.777 -21.462  0.00  0.00    -0.025 C 
ATOM     12  C   UNL     1      33.809  -6.464 -25.298  0.00  0.00    +0.230 C 
ATOM     13  C   UNL     1      34.566  -7.590 -23.202  0.00  0.00    -0.029 C 
ATOM     14  C   UNL     1      31.306  -5.582 -23.508  0.00  0.00    +0.169 C 
ATOM     15  C   UNL     1      34.754  -6.651 -24.140  0.00  0.00    +0.016 C 
ATOM     16  C   UNL     1      31.622 -10.934 -20.925  0.00  0.00    -0.101 C 
ATOM     17  C   UNL     1      31.348  -5.672 -20.742  0.00  0.00    -0.001 C 
ATOM     18  C   UNL     1      30.840  -4.483 -22.820  0.00  0.00    +0.182 C 
ATOM     19  C   UNL     1      30.849  -4.541 -21.420  0.00  0.00    +0.040 C 
ATOM     20  H   UNL     1      32.367 -10.728 -22.781  0.00  0.00    -0.080 HD
ENDROOT
BRANCH  12  21
ATOM     21  O   UNL     1      33.869  -5.123 -25.776  0.00  0.00    -0.444 OA
BRANCH  21  23
ATOM     22  O   UNL     1      35.605  -5.122 -27.300  0.00  0.00    -0.250 OA
ATOM     23  C   UNL     1      34.427  -4.959 -27.012  0.00  0.00    +0.318 C 
ATOM     24  C   UNL     1      33.373  -4.544 -27.993  0.00  0.00    +0.121 C 
ENDBRANCH  21  23
ENDBRANCH  12  21
BRANCH  18  25
ATOM     25  O   UNL     1      30.421  -3.368 -23.465  0.00  0.00    -0.421 OA
BRANCH  25  27
ATOM     26  O   UNL     1      32.046  -1.790 -22.877  0.00  0.00    -0.250 OA
ATOM     27  C   UNL     1      31.437  -2.430 -23.723  0.00  0.00    +0.322 C 
ATOM     28  C   UNL     1      31.675  -2.316 -25.200  0.00  0.00    +0.122 C 
ENDBRANCH  25  27
ENDBRANCH  18  25
TORSDOF 4
ENDMDL
