MODEL 1
REMARK VINA RESULT:     -12.6      0.000      0.000
REMARK  Name = 657077
REMARK  7 active torsions:
REMARK  status: ('A' for Active; 'I' for Inactive)
REMARK    1  A    between atoms: C_3  and  C_23
REMARK    2  A    between atoms: C_8  and  C_10
REMARK    3  A    between atoms: C_12  and  C_15
REMARK    4  A    between atoms: C_15  and  C_16
REMARK    5  A    between atoms: C_16  and  C_17
REMARK    6  A    between atoms: C_26  and  C_29
REMARK    7  A    between atoms: C_29  and  N_30
REMARK                            x       y       z     vdW  Elec       q    Type
REMARK                         _______ _______ _______ _____ _____    ______ ____
ROOT
ATOM      1  O   UNL     1      33.104 -15.261 -25.837  0.00  0.00    -0.270 OA
ATOM      2  N   UNL     1      34.458 -15.923 -24.049  0.00  0.00    -0.276 N 
ATOM      3  C   UNL     1      35.089 -18.150 -22.311  0.00  0.00    +0.026 C 
ATOM      4  C   UNL     1      34.730 -16.760 -21.750  0.00  0.00    +0.026 C 
ATOM      5  C   UNL     1      34.449 -18.356 -23.698  0.00  0.00    +0.026 C 
ATOM      6  C   UNL     1      35.088 -15.659 -22.749  0.00  0.00    +0.094 C 
ATOM      7  C   UNL     1      34.808 -17.212 -24.646  0.00  0.00    +0.094 C 
ATOM      8  C   UNL     1      33.611 -15.050 -24.735  0.00  0.00    +0.251 C 
ENDROOT
BRANCH   8  10
ATOM      9  N   UNL     1      32.014 -12.577 -22.423  0.00  0.00    -0.242 NA
ATOM     10  C   UNL     1      33.271 -13.772 -24.099  0.00  0.00    +0.072 C 
ATOM     11  C   UNL     1      33.846 -12.587 -24.534  0.00  0.00    +0.003 C 
ATOM     12  C   UNL     1      33.505 -11.391 -23.912  0.00  0.00    -0.003 C 
ATOM     13  C   UNL     1      32.371 -13.719 -23.053  0.00  0.00    +0.103 C 
ATOM     14  C   UNL     1      32.593 -11.440 -22.870  0.00  0.00    +0.095 C 
BRANCH  12  15
ATOM     15  C   UNL     1      34.101 -10.101 -24.349  0.00  0.00    +0.033 C 
BRANCH  15  16
ATOM     16  C   UNL     1      33.989  -8.968 -23.307  0.00  0.00    +0.031 C 
BRANCH  16  17
ATOM     17  C   UNL     1      33.081  -7.845 -23.748  0.00  0.00    -0.022 C 
ATOM     18  C   UNL     1      33.631  -6.721 -24.345  0.00  0.00    -0.004 C 
ATOM     19  C   UNL     1      31.715  -7.959 -23.549  0.00  0.00    -0.004 C 
ATOM     20  C   UNL     1      32.792  -5.683 -24.751  0.00  0.00    -0.000 C 
ATOM     21  C   UNL     1      30.876  -6.921 -23.957  0.00  0.00    -0.000 C 
ATOM     22  C   UNL     1      31.415  -5.783 -24.558  0.00  0.00    -0.000 C 
ENDBRANCH  16  17
ENDBRANCH  15  16
ENDBRANCH  12  15
ENDBRANCH   8  10
BRANCH   3  23
ATOM     23  C   UNL     1      34.728 -19.263 -21.347  0.00  0.00    -0.023 C 
ATOM     24  C   UNL     1      35.734 -19.945 -20.665  0.00  0.00    -0.011 C 
ATOM     25  C   UNL     1      33.390 -19.599 -21.143  0.00  0.00    -0.004 C 
ATOM     26  C   UNL     1      35.402 -20.968 -19.777  0.00  0.00    -0.045 C 
ATOM     27  C   UNL     1      33.059 -20.623 -20.255  0.00  0.00    -0.001 C 
ATOM     28  C   UNL     1      34.064 -21.306 -19.572  0.00  0.00    -0.006 C 
BRANCH  26  29
ATOM     29  C   UNL     1      36.477 -21.700 -19.045  0.00  0.00    -0.059 C 
BRANCH  29  30
ATOM     30  N   UNL     1      36.874 -21.018 -17.812  0.00  0.00    +0.383 N 
ATOM     31  H   UNL     1      37.584 -20.317 -18.025  0.00  0.00    -0.089 HD
ATOM     32  H   UNL     1      37.253 -21.698 -17.154  0.00  0.00    -0.089 HD
ATOM     33  H   UNL     1      36.060 -20.562 -17.399  0.00  0.00    -0.089 HD
ENDBRANCH  29  30
ENDBRANCH  26  29
ENDBRANCH   3  23
TORSDOF 7
ENDMDL
MODEL 2
REMARK VINA RESULT:     -11.9      1.507      2.315
REMARK  Name = 657077
REMARK  7 active torsions:
REMARK  status: ('A' for Active; 'I' for Inactive)
REMARK    1  A    between atoms: C_3  and  C_23
REMARK    2  A    between atoms: C_8  and  C_10
REMARK    3  A    between atoms: C_12  and  C_15
REMARK    4  A    between atoms: C_15  and  C_16
REMARK    5  A    between atoms: C_16  and  C_17
REMARK    6  A    between atoms: C_26  and  C_29
REMARK    7  A    between atoms: C_29  and  N_30
REMARK                            x       y       z     vdW  Elec       q    Type
REMARK                         _______ _______ _______ _____ _____    ______ ____
ROOT
ATOM      1  O   UNL     1      32.410 -13.896 -24.552  0.00  0.00    -0.270 OA
ATOM      2  N   UNL     1      34.071 -14.629 -23.078  0.00  0.00    -0.276 N 
ATOM      3  C   UNL     1      35.334 -16.995 -21.990  0.00  0.00    +0.026 C 
ATOM      4  C   UNL     1      34.776 -15.882 -21.081  0.00  0.00    +0.026 C 
ATOM      5  C   UNL     1      34.586 -17.019 -23.337  0.00  0.00    +0.026 C 
ATOM      6  C   UNL     1      34.787 -14.533 -21.800  0.00  0.00    +0.094 C 
ATOM      7  C   UNL     1      34.596 -15.640 -23.997  0.00  0.00    +0.094 C 
ATOM      8  C   UNL     1      32.992 -13.833 -23.470  0.00  0.00    +0.251 C 
ENDROOT
BRANCH   8  10
ATOM      9  N   UNL     1      31.617 -12.348 -20.320  0.00  0.00    -0.242 NA
ATOM     10  C   UNL     1      32.485 -12.839 -22.517  0.00  0.00    +0.072 C 
ATOM     11  C   UNL     1      32.387 -11.501 -22.871  0.00  0.00    +0.003 C 
ATOM     12  C   UNL     1      31.902 -10.581 -21.947  0.00  0.00    -0.003 C 
ATOM     13  C   UNL     1      32.093 -13.212 -21.246  0.00  0.00    +0.103 C 
ATOM     14  C   UNL     1      31.534 -11.052 -20.696  0.00  0.00    +0.095 C 
BRANCH  12  15
ATOM     15  C   UNL     1      31.783  -9.139 -22.289  0.00  0.00    +0.033 C 
BRANCH  15  16
ATOM     16  C   UNL     1      33.133  -8.394 -22.359  0.00  0.00    +0.031 C 
BRANCH  16  17
ATOM     17  C   UNL     1      33.202  -7.398 -23.492  0.00  0.00    -0.022 C 
ATOM     18  C   UNL     1      32.077  -6.656 -23.814  0.00  0.00    -0.004 C 
ATOM     19  C   UNL     1      34.390  -7.245 -24.189  0.00  0.00    -0.004 C 
ATOM     20  C   UNL     1      32.141  -5.737 -24.861  0.00  0.00    -0.000 C 
ATOM     21  C   UNL     1      34.454  -6.324 -25.235  0.00  0.00    -0.000 C 
ATOM     22  C   UNL     1      33.329  -5.570 -25.571  0.00  0.00    -0.000 C 
ENDBRANCH  16  17
ENDBRANCH  15  16
ENDBRANCH  12  15
ENDBRANCH   8  10
BRANCH   3  23
ATOM     23  C   UNL     1      35.318 -18.348 -21.306  0.00  0.00    -0.023 C 
ATOM     24  C   UNL     1      34.103 -18.958 -20.999  0.00  0.00    -0.011 C 
ATOM     25  C   UNL     1      36.519 -18.980 -20.987  0.00  0.00    -0.004 C 
ATOM     26  C   UNL     1      34.088 -20.202 -20.372  0.00  0.00    -0.045 C 
ATOM     27  C   UNL     1      36.504 -20.226 -20.359  0.00  0.00    -0.001 C 
ATOM     28  C   UNL     1      35.289 -20.837 -20.052  0.00  0.00    -0.006 C 
BRANCH  26  29
ATOM     29  C   UNL     1      32.788 -20.858 -20.043  0.00  0.00    -0.059 C 
BRANCH  29  30
ATOM     30  N   UNL     1      32.967 -22.101 -19.290  0.00  0.00    +0.383 N 
ATOM     31  H   UNL     1      33.244 -22.848 -19.928  0.00  0.00    -0.089 HD
ATOM     32  H   UNL     1      32.090 -22.352 -18.834  0.00  0.00    -0.089 HD
ATOM     33  H   UNL     1      33.692 -21.970 -18.585  0.00  0.00    -0.089 HD
ENDBRANCH  29  30
ENDBRANCH  26  29
ENDBRANCH   3  23
TORSDOF 7
ENDMDL
MODEL 3
REMARK VINA RESULT:     -11.7      1.866      2.785
REMARK  Name = 657077
REMARK  7 active torsions:
REMARK  status: ('A' for Active; 'I' for Inactive)
REMARK    1  A    between atoms: C_3  and  C_23
REMARK    2  A    between atoms: C_8  and  C_10
REMARK    3  A    between atoms: C_12  and  C_15
REMARK    4  A    between atoms: C_15  and  C_16
REMARK    5  A    between atoms: C_16  and  C_17
REMARK    6  A    between atoms: C_26  and  C_29
REMARK    7  A    between atoms: C_29  and  N_30
REMARK                            x       y       z     vdW  Elec       q    Type
REMARK                         _______ _______ _______ _____ _____    ______ ____
ROOT
ATOM      1  O   UNL     1      32.764 -15.951 -26.094  0.00  0.00    -0.270 OA
ATOM      2  N   UNL     1      34.504 -16.449 -24.614  0.00  0.00    -0.276 N 
ATOM      3  C   UNL     1      35.499 -18.463 -22.790  0.00  0.00    +0.026 C 
ATOM      4  C   UNL     1      35.319 -16.995 -22.357  0.00  0.00    +0.026 C 
ATOM      5  C   UNL     1      34.532 -18.812 -23.937  0.00  0.00    +0.026 C 
ATOM      6  C   UNL     1      35.441 -16.053 -23.555  0.00  0.00    +0.094 C 
ATOM      7  C   UNL     1      34.669 -17.821 -25.093  0.00  0.00    +0.094 C 
ATOM      8  C   UNL     1      33.531 -15.628 -25.189  0.00  0.00    +0.251 C 
ENDROOT
BRANCH   8  10
ATOM      9  N   UNL     1      33.757 -11.897 -24.975  0.00  0.00    -0.242 NA
ATOM     10  C   UNL     1      33.386 -14.262 -24.673  0.00  0.00    +0.072 C 
ATOM     11  C   UNL     1      32.771 -14.024 -23.452  0.00  0.00    +0.003 C 
ATOM     12  C   UNL     1      32.648 -12.718 -22.989  0.00  0.00    -0.003 C 
ATOM     13  C   UNL     1      33.858 -13.180 -25.391  0.00  0.00    +0.103 C 
ATOM     14  C   UNL     1      33.152 -11.700 -23.782  0.00  0.00    +0.095 C 
BRANCH  12  15
ATOM     15  C   UNL     1      31.994 -12.425 -21.686  0.00  0.00    +0.033 C 
BRANCH  15  16
ATOM     16  C   UNL     1      30.966 -11.274 -21.741  0.00  0.00    +0.031 C 
BRANCH  16  17
ATOM     17  C   UNL     1      31.523  -9.959 -21.251  0.00  0.00    -0.022 C 
ATOM     18  C   UNL     1      31.856  -8.977 -22.171  0.00  0.00    -0.004 C 
ATOM     19  C   UNL     1      31.691  -9.758 -19.891  0.00  0.00    -0.004 C 
ATOM     20  C   UNL     1      32.371  -7.762 -21.718  0.00  0.00    -0.000 C 
ATOM     21  C   UNL     1      32.205  -8.542 -19.438  0.00  0.00    -0.000 C 
ATOM     22  C   UNL     1      32.545  -7.545 -20.352  0.00  0.00    -0.000 C 
ENDBRANCH  16  17
ENDBRANCH  15  16
ENDBRANCH  12  15
ENDBRANCH   8  10
BRANCH   3  23
ATOM     23  C   UNL     1      35.365 -19.421 -21.621  0.00  0.00    -0.023 C 
ATOM     24  C   UNL     1      34.100 -19.786 -21.164  0.00  0.00    -0.011 C 
ATOM     25  C   UNL     1      36.507 -19.934 -21.009  0.00  0.00    -0.004 C 
ATOM     26  C   UNL     1      33.977 -20.668 -20.091  0.00  0.00    -0.045 C 
ATOM     27  C   UNL     1      36.383 -20.816 -19.935  0.00  0.00    -0.001 C 
ATOM     28  C   UNL     1      35.118 -21.183 -19.476  0.00  0.00    -0.006 C 
BRANCH  26  29
ATOM     29  C   UNL     1      32.624 -21.062 -19.600  0.00  0.00    -0.059 C 
BRANCH  29  30
ATOM     30  N   UNL     1      32.678 -22.186 -18.663  0.00  0.00    +0.383 N 
ATOM     31  H   UNL     1      33.466 -22.788 -18.900  0.00  0.00    -0.089 HD
ATOM     32  H   UNL     1      31.811 -22.720 -18.723  0.00  0.00    -0.089 HD
ATOM     33  H   UNL     1      32.795 -21.831 -17.714  0.00  0.00    -0.089 HD
ENDBRANCH  29  30
ENDBRANCH  26  29
ENDBRANCH   3  23
TORSDOF 7
ENDMDL
MODEL 4
REMARK VINA RESULT:     -11.1      3.473      6.304
REMARK  Name = 657077
REMARK  7 active torsions:
REMARK  status: ('A' for Active; 'I' for Inactive)
REMARK    1  A    between atoms: C_3  and  C_23
REMARK    2  A    between atoms: C_8  and  C_10
REMARK    3  A    between atoms: C_12  and  C_15
REMARK    4  A    between atoms: C_15  and  C_16
REMARK    5  A    between atoms: C_16  and  C_17
REMARK    6  A    between atoms: C_26  and  C_29
REMARK    7  A    between atoms: C_29  and  N_30
REMARK                            x       y       z     vdW  Elec       q    Type
REMARK                         _______ _______ _______ _____ _____    ______ ____
ROOT
ATOM      1  O   UNL     1      32.051  -8.378 -19.186  0.00  0.00    -0.270 OA
ATOM      2  N   UNL     1      31.468 -10.081 -20.678  0.00  0.00    -0.276 N 
ATOM      3  C   UNL     1      31.840 -12.893 -21.256  0.00  0.00    +0.026 C 
ATOM      4  C   UNL     1      32.084 -11.806 -22.322  0.00  0.00    +0.026 C 
ATOM      5  C   UNL     1      32.047 -12.319 -19.841  0.00  0.00    +0.026 C 
ATOM      6  C   UNL     1      31.233 -10.567 -22.043  0.00  0.00    +0.094 C 
ATOM      7  C   UNL     1      31.202 -11.063 -19.626  0.00  0.00    +0.094 C 
ATOM      8  C   UNL     1      31.879  -8.792 -20.332  0.00  0.00    +0.251 C 
ENDROOT
BRANCH   8  10
ATOM      9  N   UNL     1      31.658  -5.723 -22.464  0.00  0.00    -0.242 NA
ATOM     10  C   UNL     1      32.149  -7.839 -21.414  0.00  0.00    +0.072 C 
ATOM     11  C   UNL     1      33.105  -8.113 -22.381  0.00  0.00    +0.003 C 
ATOM     12  C   UNL     1      33.339  -7.190 -23.395  0.00  0.00    -0.003 C 
ATOM     13  C   UNL     1      31.458  -6.645 -21.494  0.00  0.00    +0.103 C 
ATOM     14  C   UNL     1      32.596  -6.020 -23.390  0.00  0.00    +0.095 C 
BRANCH  12  15
ATOM     15  C   UNL     1      34.356  -7.449 -24.449  0.00  0.00    +0.033 C 
BRANCH  15  16
ATOM     16  C   UNL     1      35.277  -8.652 -24.156  0.00  0.00    +0.031 C 
BRANCH  16  17
ATOM     17  C   UNL     1      35.006  -9.838 -25.051  0.00  0.00    -0.022 C 
ATOM     18  C   UNL     1      34.055 -10.772 -24.671  0.00  0.00    -0.004 C 
ATOM     19  C   UNL     1      35.713  -9.970 -26.235  0.00  0.00    -0.004 C 
ATOM     20  C   UNL     1      33.805 -11.867 -25.497  0.00  0.00    -0.000 C 
ATOM     21  C   UNL     1      35.462 -11.065 -27.062  0.00  0.00    -0.000 C 
ATOM     22  C   UNL     1      34.508 -12.014 -26.692  0.00  0.00    -0.000 C 
ENDBRANCH  16  17
ENDBRANCH  15  16
ENDBRANCH  12  15
ENDBRANCH   8  10
BRANCH   3  23
ATOM     23  C   UNL     1      32.687 -14.128 -21.498  0.00  0.00    -0.023 C 
ATOM     24  C   UNL     1      33.043 -14.481 -22.798  0.00  0.00    -0.011 C 
ATOM     25  C   UNL     1      33.108 -14.904 -20.420  0.00  0.00    -0.004 C 
ATOM     26  C   UNL     1      33.822 -15.615 -23.022  0.00  0.00    -0.045 C 
ATOM     27  C   UNL     1      33.887 -16.040 -20.644  0.00  0.00    -0.001 C 
ATOM     28  C   UNL     1      34.244 -16.395 -21.944  0.00  0.00    -0.006 C 
BRANCH  26  29
ATOM     29  C   UNL     1      34.205 -15.996 -24.413  0.00  0.00    -0.059 C 
BRANCH  29  30
ATOM     30  N   UNL     1      35.290 -16.979 -24.441  0.00  0.00    +0.383 N 
ATOM     31  H   UNL     1      35.027 -17.792 -23.884  0.00  0.00    -0.089 HD
ATOM     32  H   UNL     1      36.137 -16.562 -24.057  0.00  0.00    -0.089 HD
ATOM     33  H   UNL     1      35.460 -17.269 -25.404  0.00  0.00    -0.089 HD
ENDBRANCH  29  30
ENDBRANCH  26  29
ENDBRANCH   3  23
TORSDOF 7
ENDMDL
MODEL 5
REMARK VINA RESULT:     -11.1      1.861     10.793
REMARK  Name = 657077
REMARK  7 active torsions:
REMARK  status: ('A' for Active; 'I' for Inactive)
REMARK    1  A    between atoms: C_3  and  C_23
REMARK    2  A    between atoms: C_8  and  C_10
REMARK    3  A    between atoms: C_12  and  C_15
REMARK    4  A    between atoms: C_15  and  C_16
REMARK    5  A    between atoms: C_16  and  C_17
REMARK    6  A    between atoms: C_26  and  C_29
REMARK    7  A    between atoms: C_29  and  N_30
REMARK                            x       y       z     vdW  Elec       q    Type
REMARK                         _______ _______ _______ _____ _____    ______ ____
ROOT
ATOM      1  O   UNL     1      34.964 -15.770 -25.283  0.00  0.00    -0.270 OA
ATOM      2  N   UNL     1      33.536 -14.264 -24.207  0.00  0.00    -0.276 N 
ATOM      3  C   UNL     1      32.963 -11.448 -23.859  0.00  0.00    +0.026 C 
ATOM      4  C   UNL     1      33.157 -12.391 -22.655  0.00  0.00    +0.026 C 
ATOM      5  C   UNL     1      33.724 -11.977 -25.090  0.00  0.00    +0.026 C 
ATOM      6  C   UNL     1      32.787 -13.828 -23.022  0.00  0.00    +0.094 C 
ATOM      7  C   UNL     1      33.344 -13.427 -25.392  0.00  0.00    +0.094 C 
ATOM      8  C   UNL     1      34.357 -15.391 -24.282  0.00  0.00    +0.251 C 
ENDROOT
BRANCH   8  10
ATOM      9  N   UNL     1      35.037 -16.290 -20.712  0.00  0.00    -0.242 NA
ATOM     10  C   UNL     1      34.536 -16.199 -23.071  0.00  0.00    +0.072 C 
ATOM     11  C   UNL     1      34.386 -17.578 -23.107  0.00  0.00    +0.003 C 
ATOM     12  C   UNL     1      34.562 -18.317 -21.942  0.00  0.00    -0.003 C 
ATOM     13  C   UNL     1      34.858 -15.605 -21.865  0.00  0.00    +0.103 C 
ATOM     14  C   UNL     1      34.883 -17.631 -20.781  0.00  0.00    +0.095 C 
BRANCH  12  15
ATOM     15  C   UNL     1      34.409 -19.796 -21.941  0.00  0.00    +0.033 C 
BRANCH  15  16
ATOM     16  C   UNL     1      33.404 -20.327 -20.897  0.00  0.00    +0.031 C 
BRANCH  16  17
ATOM     17  C   UNL     1      34.060 -21.124 -19.795  0.00  0.00    -0.022 C 
ATOM     18  C   UNL     1      33.278 -21.923 -18.976  0.00  0.00    -0.004 C 
ATOM     19  C   UNL     1      35.433 -21.043 -19.623  0.00  0.00    -0.004 C 
ATOM     20  C   UNL     1      33.884 -22.660 -17.959  0.00  0.00    -0.000 C 
ATOM     21  C   UNL     1      36.039 -21.781 -18.606  0.00  0.00    -0.000 C 
ATOM     22  C   UNL     1      35.264 -22.589 -17.773  0.00  0.00    -0.000 C 
ENDBRANCH  16  17
ENDBRANCH  15  16
ENDBRANCH  12  15
ENDBRANCH   8  10
BRANCH   3  23
ATOM     23  C   UNL     1      33.341 -10.017 -23.528  0.00  0.00    -0.023 C 
ATOM     24  C   UNL     1      32.647  -9.327 -22.536  0.00  0.00    -0.011 C 
ATOM     25  C   UNL     1      34.383  -9.397 -24.215  0.00  0.00    -0.004 C 
ATOM     26  C   UNL     1      32.995  -8.012 -22.230  0.00  0.00    -0.045 C 
ATOM     27  C   UNL     1      34.731  -8.081 -23.909  0.00  0.00    -0.001 C 
ATOM     28  C   UNL     1      34.037  -7.389 -22.917  0.00  0.00    -0.006 C 
BRANCH  26  29
ATOM     29  C   UNL     1      32.254  -7.271 -21.168  0.00  0.00    -0.059 C 
BRANCH  29  30
ATOM     30  N   UNL     1      32.865  -7.433 -19.847  0.00  0.00    +0.383 N 
ATOM     31  H   UNL     1      32.219  -7.098 -19.131  0.00  0.00    -0.089 HD
ATOM     32  H   UNL     1      33.729  -6.894 -19.804  0.00  0.00    -0.089 HD
ATOM     33  H   UNL     1      33.069  -8.419 -19.686  0.00  0.00    -0.089 HD
ENDBRANCH  29  30
ENDBRANCH  26  29
ENDBRANCH   3  23
TORSDOF 7
ENDMDL
MODEL 6
REMARK VINA RESULT:     -10.9      2.354     10.986
REMARK  Name = 657077
REMARK  7 active torsions:
REMARK  status: ('A' for Active; 'I' for Inactive)
REMARK    1  A    between atoms: C_3  and  C_23
REMARK    2  A    between atoms: C_8  and  C_10
REMARK    3  A    between atoms: C_12  and  C_15
REMARK    4  A    between atoms: C_15  and  C_16
REMARK    5  A    between atoms: C_16  and  C_17
REMARK    6  A    between atoms: C_26  and  C_29
REMARK    7  A    between atoms: C_29  and  N_30
REMARK                            x       y       z     vdW  Elec       q    Type
REMARK                         _______ _______ _______ _____ _____    ______ ____
ROOT
ATOM      1  O   UNL     1      34.551 -13.679 -24.703  0.00  0.00    -0.270 OA
ATOM      2  N   UNL     1      32.872 -12.733 -23.378  0.00  0.00    -0.276 N 
ATOM      3  C   UNL     1      31.796 -10.217 -22.435  0.00  0.00    +0.026 C 
ATOM      4  C   UNL     1      32.159 -11.358 -21.465  0.00  0.00    +0.026 C 
ATOM      5  C   UNL     1      32.642 -10.309 -23.720  0.00  0.00    +0.026 C 
ATOM      6  C   UNL     1      32.056 -12.717 -22.158  0.00  0.00    +0.094 C 
ATOM      7  C   UNL     1      32.532 -11.696 -24.353  0.00  0.00    +0.094 C 
ATOM      8  C   UNL     1      33.885 -13.650 -23.669  0.00  0.00    +0.251 C 
ENDROOT
BRANCH   8  10
ATOM      9  N   UNL     1      34.693 -15.203 -20.360  0.00  0.00    -0.242 NA
ATOM     10  C   UNL     1      34.207 -14.667 -22.661  0.00  0.00    +0.072 C 
ATOM     11  C   UNL     1      34.332 -16.003 -23.014  0.00  0.00    +0.003 C 
ATOM     12  C   UNL     1      34.638 -16.944 -22.037  0.00  0.00    -0.003 C 
ATOM     13  C   UNL     1      34.394 -14.318 -21.338  0.00  0.00    +0.103 C 
ATOM     14  C   UNL     1      34.806 -16.497 -20.736  0.00  0.00    +0.095 C 
BRANCH  12  15
ATOM     15  C   UNL     1      34.779 -18.385 -22.377  0.00  0.00    +0.033 C 
BRANCH  15  16
ATOM     16  C   UNL     1      35.720 -19.167 -21.437  0.00  0.00    +0.031 C 
BRANCH  16  17
ATOM     17  C   UNL     1      34.995 -20.175 -20.577  0.00  0.00    -0.022 C 
ATOM     18  C   UNL     1      35.727 -21.122 -19.878  0.00  0.00    -0.004 C 
ATOM     19  C   UNL     1      33.613 -20.134 -20.503  0.00  0.00    -0.004 C 
ATOM     20  C   UNL     1      35.058 -22.053 -19.084  0.00  0.00    -0.000 C 
ATOM     21  C   UNL     1      32.943 -21.065 -19.708  0.00  0.00    -0.000 C 
ATOM     22  C   UNL     1      33.666 -22.025 -18.999  0.00  0.00    -0.000 C 
ENDBRANCH  16  17
ENDBRANCH  15  16
ENDBRANCH  12  15
ENDBRANCH   8  10
BRANCH   3  23
ATOM     23  C   UNL     1      31.908  -8.855 -21.777  0.00  0.00    -0.023 C 
ATOM     24  C   UNL     1      31.587  -7.707 -22.499  0.00  0.00    -0.011 C 
ATOM     25  C   UNL     1      32.329  -8.756 -20.452  0.00  0.00    -0.004 C 
ATOM     26  C   UNL     1      31.688  -6.455 -21.894  0.00  0.00    -0.045 C 
ATOM     27  C   UNL     1      32.431  -7.502 -19.848  0.00  0.00    -0.001 C 
ATOM     28  C   UNL     1      32.110  -6.352 -20.568  0.00  0.00    -0.006 C 
BRANCH  26  29
ATOM     29  C   UNL     1      31.344  -5.223 -22.663  0.00  0.00    -0.059 C 
BRANCH  29  30
ATOM     30  N   UNL     1      30.336  -4.406 -21.984  0.00  0.00    +0.383 N 
ATOM     31  H   UNL     1      29.741  -5.006 -21.413  0.00  0.00    -0.089 HD
ATOM     32  H   UNL     1      29.766  -3.923 -22.678  0.00  0.00    -0.089 HD
ATOM     33  H   UNL     1      30.800  -3.721 -21.388  0.00  0.00    -0.089 HD
ENDBRANCH  29  30
ENDBRANCH  26  29
ENDBRANCH   3  23
TORSDOF 7
ENDMDL
MODEL 7
REMARK VINA RESULT:     -10.8      3.383      6.479
REMARK  Name = 657077
REMARK  7 active torsions:
REMARK  status: ('A' for Active; 'I' for Inactive)
REMARK    1  A    between atoms: C_3  and  C_23
REMARK    2  A    between atoms: C_8  and  C_10
REMARK    3  A    between atoms: C_12  and  C_15
REMARK    4  A    between atoms: C_15  and  C_16
REMARK    5  A    between atoms: C_16  and  C_17
REMARK    6  A    between atoms: C_26  and  C_29
REMARK    7  A    between atoms: C_29  and  N_30
REMARK                            x       y       z     vdW  Elec       q    Type
REMARK                         _______ _______ _______ _____ _____    ______ ____
ROOT
ATOM      1  O   UNL     1      32.141 -20.093 -20.861  0.00  0.00    -0.270 OA
ATOM      2  N   UNL     1      34.086 -21.207 -20.197  0.00  0.00    -0.276 N 
ATOM      3  C   UNL     1      35.297 -22.668 -18.012  0.00  0.00    +0.026 C 
ATOM      4  C   UNL     1      36.003 -21.470 -18.676  0.00  0.00    +0.026 C 
ATOM      5  C   UNL     1      33.768 -22.545 -18.159  0.00  0.00    +0.026 C 
ATOM      6  C   UNL     1      35.549 -21.304 -20.127  0.00  0.00    +0.094 C 
ATOM      7  C   UNL     1      33.370 -22.347 -19.622  0.00  0.00    +0.094 C 
ATOM      8  C   UNL     1      33.366 -20.161 -20.779  0.00  0.00    +0.251 C 
ENDROOT
BRANCH   8  10
ATOM      9  N   UNL     1      35.724 -18.212 -22.938  0.00  0.00    -0.242 NA
ATOM     10  C   UNL     1      34.118 -19.029 -21.334  0.00  0.00    +0.072 C 
ATOM     11  C   UNL     1      33.958 -17.750 -20.820  0.00  0.00    +0.003 C 
ATOM     12  C   UNL     1      34.684 -16.697 -21.366  0.00  0.00    -0.003 C 
ATOM     13  C   UNL     1      35.001 -19.211 -22.380  0.00  0.00    +0.103 C 
ATOM     14  C   UNL     1      35.545 -16.978 -22.415  0.00  0.00    +0.095 C 
BRANCH  12  15
ATOM     15  C   UNL     1      34.539 -15.312 -20.843  0.00  0.00    +0.033 C 
BRANCH  15  16
ATOM     16  C   UNL     1      33.112 -14.963 -20.369  0.00  0.00    +0.031 C 
BRANCH  16  17
ATOM     17  C   UNL     1      32.575 -13.695 -20.991  0.00  0.00    -0.022 C 
ATOM     18  C   UNL     1      31.974 -12.744 -20.181  0.00  0.00    -0.004 C 
ATOM     19  C   UNL     1      32.693 -13.507 -22.358  0.00  0.00    -0.004 C 
ATOM     20  C   UNL     1      31.478 -11.574 -20.755  0.00  0.00    -0.000 C 
ATOM     21  C   UNL     1      32.197 -12.336 -22.932  0.00  0.00    -0.000 C 
ATOM     22  C   UNL     1      31.589 -11.369 -22.130  0.00  0.00    -0.000 C 
ENDBRANCH  16  17
ENDBRANCH  15  16
ENDBRANCH  12  15
ENDBRANCH   8  10
BRANCH   3  23
ATOM     23  C   UNL     1      35.717 -22.843 -16.565  0.00  0.00    -0.023 C 
ATOM     24  C   UNL     1      34.801 -23.320 -15.629  0.00  0.00    -0.011 C 
ATOM     25  C   UNL     1      37.018 -22.530 -16.176  0.00  0.00    -0.004 C 
ATOM     26  C   UNL     1      35.186 -23.483 -14.299  0.00  0.00    -0.045 C 
ATOM     27  C   UNL     1      37.404 -22.693 -14.845  0.00  0.00    -0.001 C 
ATOM     28  C   UNL     1      36.488 -23.169 -13.907  0.00  0.00    -0.006 C 
BRANCH  26  29
ATOM     29  C   UNL     1      34.208 -23.993 -13.294  0.00  0.00    -0.059 C 
BRANCH  29  30
ATOM     30  N   UNL     1      33.258 -24.944 -13.876  0.00  0.00    +0.383 N 
ATOM     31  H   UNL     1      32.942 -24.597 -14.781  0.00  0.00    -0.089 HD
ATOM     32  H   UNL     1      32.458 -25.049 -13.253  0.00  0.00    -0.089 HD
ATOM     33  H   UNL     1      33.715 -25.848 -13.999  0.00  0.00    -0.089 HD
ENDBRANCH  29  30
ENDBRANCH  26  29
ENDBRANCH   3  23
TORSDOF 7
ENDMDL
MODEL 8
REMARK VINA RESULT:     -10.8      4.616     12.835
REMARK  Name = 657077
REMARK  7 active torsions:
REMARK  status: ('A' for Active; 'I' for Inactive)
REMARK    1  A    between atoms: C_3  and  C_23
REMARK    2  A    between atoms: C_8  and  C_10
REMARK    3  A    between atoms: C_12  and  C_15
REMARK    4  A    between atoms: C_15  and  C_16
REMARK    5  A    between atoms: C_16  and  C_17
REMARK    6  A    between atoms: C_26  and  C_29
REMARK    7  A    between atoms: C_29  and  N_30
REMARK                            x       y       z     vdW  Elec       q    Type
REMARK                         _______ _______ _______ _____ _____    ______ ____
ROOT
ATOM      1  O   UNL     1      36.939 -21.802 -18.418  0.00  0.00    -0.270 OA
ATOM      2  N   UNL     1      35.513 -20.933 -20.054  0.00  0.00    -0.276 N 
ATOM      3  C   UNL     1      34.947 -18.569 -21.625  0.00  0.00    +0.026 C 
ATOM      4  C   UNL     1      33.853 -19.277 -20.801  0.00  0.00    +0.026 C 
ATOM      5  C   UNL     1      36.337 -18.823 -21.010  0.00  0.00    +0.026 C 
ATOM      6  C   UNL     1      34.174 -20.761 -20.630  0.00  0.00    +0.094 C 
ATOM      7  C   UNL     1      36.593 -20.319 -20.827  0.00  0.00    +0.094 C 
ATOM      8  C   UNL     1      35.814 -21.637 -18.886  0.00  0.00    +0.251 C 
ENDROOT
BRANCH   8  10
ATOM      9  N   UNL     1      32.355 -22.764 -18.000  0.00  0.00    -0.242 NA
ATOM     10  C   UNL     1      34.704 -22.227 -18.129  0.00  0.00    +0.072 C 
ATOM     11  C   UNL     1      34.915 -22.790 -16.879  0.00  0.00    +0.003 C 
ATOM     12  C   UNL     1      33.844 -23.342 -16.185  0.00  0.00    -0.003 C 
ATOM     13  C   UNL     1      33.422 -22.237 -18.644  0.00  0.00    +0.103 C 
ATOM     14  C   UNL     1      32.595 -23.304 -16.785  0.00  0.00    +0.095 C 
BRANCH  12  15
ATOM     15  C   UNL     1      34.032 -23.955 -14.843  0.00  0.00    +0.033 C 
BRANCH  15  16
ATOM     16  C   UNL     1      35.161 -25.005 -14.782  0.00  0.00    +0.031 C 
BRANCH  16  17
ATOM     17  C   UNL     1      36.239 -24.659 -13.782  0.00  0.00    -0.022 C 
ATOM     18  C   UNL     1      36.137 -23.485 -13.052  0.00  0.00    -0.004 C 
ATOM     19  C   UNL     1      37.311 -25.521 -13.614  0.00  0.00    -0.004 C 
ATOM     20  C   UNL     1      37.133 -23.165 -12.130  0.00  0.00    -0.000 C 
ATOM     21  C   UNL     1      38.306 -25.201 -12.690  0.00  0.00    -0.000 C 
ATOM     22  C   UNL     1      38.217 -24.023 -11.949  0.00  0.00    -0.000 C 
ENDBRANCH  16  17
ENDBRANCH  15  16
ENDBRANCH  12  15
ENDBRANCH   8  10
BRANCH   3  23
ATOM     23  C   UNL     1      34.662 -17.089 -21.796  0.00  0.00    -0.023 C 
ATOM     24  C   UNL     1      34.334 -16.585 -23.053  0.00  0.00    -0.011 C 
ATOM     25  C   UNL     1      34.728 -16.237 -20.694  0.00  0.00    -0.004 C 
ATOM     26  C   UNL     1      34.071 -15.225 -23.210  0.00  0.00    -0.045 C 
ATOM     27  C   UNL     1      34.465 -14.876 -20.851  0.00  0.00    -0.001 C 
ATOM     28  C   UNL     1      34.136 -14.370 -22.109  0.00  0.00    -0.006 C 
BRANCH  26  29
ATOM     29  C   UNL     1      33.717 -14.683 -24.554  0.00  0.00    -0.059 C 
BRANCH  29  30
ATOM     30  N   UNL     1      33.605 -15.734 -25.567  0.00  0.00    +0.383 N 
ATOM     31  H   UNL     1      33.761 -16.643 -25.131  0.00  0.00    -0.089 HD
ATOM     32  H   UNL     1      34.303 -15.581 -26.294  0.00  0.00    -0.089 HD
ATOM     33  H   UNL     1      32.673 -15.710 -25.979  0.00  0.00    -0.089 HD
ENDBRANCH  29  30
ENDBRANCH  26  29
ENDBRANCH   3  23
TORSDOF 7
ENDMDL
MODEL 9
REMARK VINA RESULT:     -10.5      1.999     10.903
REMARK  Name = 657077
REMARK  7 active torsions:
REMARK  status: ('A' for Active; 'I' for Inactive)
REMARK    1  A    between atoms: C_3  and  C_23
REMARK    2  A    between atoms: C_8  and  C_10
REMARK    3  A    between atoms: C_12  and  C_15
REMARK    4  A    between atoms: C_15  and  C_16
REMARK    5  A    between atoms: C_16  and  C_17
REMARK    6  A    between atoms: C_26  and  C_29
REMARK    7  A    between atoms: C_29  and  N_30
REMARK                            x       y       z     vdW  Elec       q    Type
REMARK                         _______ _______ _______ _____ _____    ______ ____
ROOT
ATOM      1  O   UNL     1      34.614 -17.649 -25.612  0.00  0.00    -0.270 OA
ATOM      2  N   UNL     1      33.685 -15.955 -24.295  0.00  0.00    -0.276 N 
ATOM      3  C   UNL     1      33.251 -13.097 -24.151  0.00  0.00    +0.026 C 
ATOM      4  C   UNL     1      33.902 -13.878 -22.992  0.00  0.00    +0.026 C 
ATOM      5  C   UNL     1      33.493 -13.816 -25.492  0.00  0.00    +0.026 C 
ATOM      6  C   UNL     1      33.439 -15.335 -22.987  0.00  0.00    +0.094 C 
ATOM      7  C   UNL     1      33.045 -15.276 -25.422  0.00  0.00    +0.094 C 
ATOM      8  C   UNL     1      34.430 -17.115 -24.519  0.00  0.00    +0.251 C 
ENDROOT
BRANCH   8  10
ATOM      9  N   UNL     1      37.024 -18.032 -21.980  0.00  0.00    -0.242 NA
ATOM     10  C   UNL     1      35.068 -17.761 -23.366  0.00  0.00    +0.072 C 
ATOM     11  C   UNL     1      34.372 -18.674 -22.587  0.00  0.00    +0.003 C 
ATOM     12  C   UNL     1      35.003 -19.270 -21.500  0.00  0.00    -0.003 C 
ATOM     13  C   UNL     1      36.377 -17.474 -23.029  0.00  0.00    +0.103 C 
ATOM     14  C   UNL     1      36.318 -18.917 -21.242  0.00  0.00    +0.095 C 
BRANCH  12  15
ATOM     15  C   UNL     1      34.289 -20.253 -20.643  0.00  0.00    +0.033 C 
BRANCH  15  16
ATOM     16  C   UNL     1      35.178 -21.404 -20.128  0.00  0.00    +0.031 C 
BRANCH  16  17
ATOM     17  C   UNL     1      34.662 -22.026 -18.852  0.00  0.00    -0.022 C 
ATOM     18  C   UNL     1      33.327 -22.387 -18.763  0.00  0.00    -0.004 C 
ATOM     19  C   UNL     1      35.534 -22.225 -17.793  0.00  0.00    -0.004 C 
ATOM     20  C   UNL     1      32.851 -22.961 -17.585  0.00  0.00    -0.000 C 
ATOM     21  C   UNL     1      35.057 -22.801 -16.615  0.00  0.00    -0.000 C 
ATOM     22  C   UNL     1      33.715 -23.168 -16.511  0.00  0.00    -0.000 C 
ENDBRANCH  16  17
ENDBRANCH  15  16
ENDBRANCH  12  15
ENDBRANCH   8  10
BRANCH   3  23
ATOM     23  C   UNL     1      33.709 -11.651 -24.189  0.00  0.00    -0.023 C 
ATOM     24  C   UNL     1      33.132 -10.717 -23.331  0.00  0.00    -0.011 C 
ATOM     25  C   UNL     1      34.706 -11.262 -25.082  0.00  0.00    -0.004 C 
ATOM     26  C   UNL     1      33.553  -9.388 -23.366  0.00  0.00    -0.045 C 
ATOM     27  C   UNL     1      35.127  -9.932 -25.117  0.00  0.00    -0.001 C 
ATOM     28  C   UNL     1      34.551  -8.996 -24.259  0.00  0.00    -0.006 C 
BRANCH  26  29
ATOM     29  C   UNL     1      32.938  -8.385 -22.448  0.00  0.00    -0.059 C 
BRANCH  29  30
ATOM     30  N   UNL     1      32.030  -9.001 -21.478  0.00  0.00    +0.383 N 
ATOM     31  H   UNL     1      32.548  -9.666 -20.903  0.00  0.00    -0.089 HD
ATOM     32  H   UNL     1      31.284  -9.489 -21.973  0.00  0.00    -0.089 HD
ATOM     33  H   UNL     1      31.628  -8.278 -20.883  0.00  0.00    -0.089 HD
ENDBRANCH  29  30
ENDBRANCH  26  29
ENDBRANCH   3  23
TORSDOF 7
ENDMDL
