MODEL 1
REMARK VINA RESULT:      -9.3      0.000      0.000
REMARK  Name = 5754
REMARK  5 active torsions:
REMARK  status: ('A' for Active; 'I' for Inactive)
REMARK    1  A    between atoms: C_6  and  O_21
REMARK    2  A    between atoms: C_6  and  C_26
REMARK    3  A    between atoms: C_9  and  O_23
REMARK    4  A    between atoms: C_26  and  C_27
REMARK    5  A    between atoms: C_27  and  O_28
REMARK                            x       y       z     vdW  Elec       q    Type
REMARK                         _______ _______ _______ _____ _____    ______ ____
ROOT
ATOM      1  O   UNL     1      40.084 -26.208 -14.243  0.00  0.00    -0.291 OA
ATOM      2  C   UNL     1      32.045 -23.671 -14.816  0.00  0.00    +0.031 C 
ATOM      3  C   UNL     1      33.146 -23.581 -15.895  0.00  0.00    +0.003 C 
ATOM      4  C   UNL     1      34.539 -23.267 -15.327  0.00  0.00    +0.003 C 
ATOM      5  C   UNL     1      34.941 -24.397 -14.325  0.00  0.00    +0.030 C 
ATOM      6  C   UNL     1      30.813 -23.922 -15.729  0.00  0.00    +0.141 C 
ATOM      7  C   UNL     1      32.426 -24.823 -13.863  0.00  0.00    +0.032 C 
ATOM      8  C   UNL     1      36.412 -24.227 -13.762  0.00  0.00    +0.018 C 
ATOM      9  C   UNL     1      33.837 -24.666 -13.256  0.00  0.00    +0.111 C 
ATOM     10  C   UNL     1      32.546 -22.641 -16.936  0.00  0.00    +0.003 C 
ATOM     11  C   UNL     1      31.042 -22.990 -16.941  0.00  0.00    +0.034 C 
ATOM     12  C   UNL     1      35.570 -23.169 -16.464  0.00  0.00    +0.004 C 
ATOM     13  C   UNL     1      31.848 -22.347 -14.029  0.00  0.00    +0.003 C 
ATOM     14  C   UNL     1      37.377 -23.999 -14.933  0.00  0.00    -0.042 C 
ATOM     15  C   UNL     1      36.977 -22.943 -15.933  0.00  0.00    +0.022 C 
ATOM     16  C   UNL     1      36.792 -25.533 -13.006  0.00  0.00    +0.012 C 
ATOM     17  C   UNL     1      36.570 -23.027 -12.800  0.00  0.00    +0.004 C 
ATOM     18  C   UNL     1      38.285 -25.679 -12.755  0.00  0.00    +0.069 C 
ATOM     19  C   UNL     1      38.543 -24.648 -15.086  0.00  0.00    +0.029 C 
ATOM     20  C   UNL     1      39.041 -25.587 -14.055  0.00  0.00    +0.173 C 
ENDROOT
BRANCH   6  21
ATOM     21  O   UNL     1      30.770 -25.274 -16.177  0.00  0.00    -0.380 OA
ATOM     22  H   UNL     1      30.413 -25.837 -15.473  0.00  0.00    +0.211 HD
ENDBRANCH   6  21
BRANCH   9  23
ATOM     23  O   UNL     1      33.814 -23.645 -12.268  0.00  0.00    -0.384 OA
ATOM     24  H   UNL     1      34.617 -23.106 -12.342  0.00  0.00    +0.210 HD
ENDBRANCH   9  23
BRANCH   6  26
ATOM     25  O   UNL     1      29.087 -24.475 -14.181  0.00  0.00    -0.291 OA
ATOM     26  C   UNL     1      29.497 -23.700 -15.044  0.00  0.00    +0.204 C 
BRANCH  26  27
ATOM     27  C   UNL     1      28.714 -22.479 -15.476  0.00  0.00    +0.204 C 
BRANCH  27  28
ATOM     28  O   UNL     1      27.358 -22.808 -15.696  0.00  0.00    -0.375 OA
ATOM     29  H   UNL     1      26.825 -21.998 -15.691  0.00  0.00    +0.211 HD
ENDBRANCH  27  28
ENDBRANCH  26  27
ENDBRANCH   6  26
TORSDOF 5
ENDMDL
MODEL 2
REMARK VINA RESULT:      -8.4      3.133      6.839
REMARK  Name = 5754
REMARK  5 active torsions:
REMARK  status: ('A' for Active; 'I' for Inactive)
REMARK    1  A    between atoms: C_6  and  O_21
REMARK    2  A    between atoms: C_6  and  C_26
REMARK    3  A    between atoms: C_9  and  O_23
REMARK    4  A    between atoms: C_26  and  C_27
REMARK    5  A    between atoms: C_27  and  O_28
REMARK                            x       y       z     vdW  Elec       q    Type
REMARK                         _______ _______ _______ _____ _____    ______ ____
ROOT
ATOM      1  O   UNL     1      33.592 -18.674 -21.508  0.00  0.00    -0.291 OA
ATOM      2  C   UNL     1      35.560 -23.808 -15.092  0.00  0.00    +0.031 C 
ATOM      3  C   UNL     1      36.482 -22.806 -15.820  0.00  0.00    +0.003 C 
ATOM      4  C   UNL     1      36.211 -22.706 -17.330  0.00  0.00    +0.003 C 
ATOM      5  C   UNL     1      34.734 -22.245 -17.548  0.00  0.00    +0.030 C 
ATOM      6  C   UNL     1      36.146 -23.698 -13.657  0.00  0.00    +0.141 C 
ATOM      7  C   UNL     1      34.109 -23.314 -15.270  0.00  0.00    +0.032 C 
ATOM      8  C   UNL     1      34.381 -22.005 -19.073  0.00  0.00    +0.018 C 
ATOM      9  C   UNL     1      33.713 -23.115 -16.750  0.00  0.00    +0.111 C 
ATOM     10  C   UNL     1      37.878 -23.200 -15.346  0.00  0.00    +0.003 C 
ATOM     11  C   UNL     1      37.674 -23.622 -13.876  0.00  0.00    +0.034 C 
ATOM     12  C   UNL     1      37.184 -21.711 -17.983  0.00  0.00    +0.004 C 
ATOM     13  C   UNL     1      35.712 -25.266 -15.605  0.00  0.00    +0.003 C 
ATOM     14  C   UNL     1      35.459 -21.113 -19.705  0.00  0.00    -0.042 C 
ATOM     15  C   UNL     1      36.891 -21.522 -19.463  0.00  0.00    +0.022 C 
ATOM     16  C   UNL     1      32.998 -21.296 -19.142  0.00  0.00    +0.012 C 
ATOM     17  C   UNL     1      34.320 -23.306 -19.905  0.00  0.00    +0.004 C 
ATOM     18  C   UNL     1      32.709 -20.653 -20.489  0.00  0.00    +0.069 C 
ATOM     19  C   UNL     1      35.197 -20.042 -20.472  0.00  0.00    +0.029 C 
ATOM     20  C   UNL     1      33.810 -19.690 -20.852  0.00  0.00    +0.173 C 
ENDROOT
BRANCH   6  21
ATOM     21  O   UNL     1      35.704 -22.508 -13.010  0.00  0.00    -0.380 OA
ATOM     22  H   UNL     1      36.455 -22.080 -12.570  0.00  0.00    +0.211 HD
ENDBRANCH   6  21
BRANCH   9  23
ATOM     23  O   UNL     1      33.525 -24.383 -17.362  0.00  0.00    -0.384 OA
ATOM     24  H   UNL     1      33.271 -25.033 -16.689  0.00  0.00    +0.210 HD
ENDBRANCH   9  23
BRANCH   6  26
ATOM     25  O   UNL     1      34.553 -24.948 -12.400  0.00  0.00    -0.291 OA
ATOM     26  C   UNL     1      35.726 -24.812 -12.745  0.00  0.00    +0.204 C 
BRANCH  26  27
ATOM     27  C   UNL     1      36.823 -25.747 -12.280  0.00  0.00    +0.204 C 
BRANCH  27  28
ATOM     28  O   UNL     1      36.807 -26.944 -13.028  0.00  0.00    -0.375 OA
ATOM     29  H   UNL     1      37.509 -26.916 -13.697  0.00  0.00    +0.211 HD
ENDBRANCH  27  28
ENDBRANCH  26  27
ENDBRANCH   6  26
TORSDOF 5
ENDMDL
MODEL 3
REMARK VINA RESULT:      -7.8      1.473      7.116
REMARK  Name = 5754
REMARK  5 active torsions:
REMARK  status: ('A' for Active; 'I' for Inactive)
REMARK    1  A    between atoms: C_6  and  O_21
REMARK    2  A    between atoms: C_6  and  C_26
REMARK    3  A    between atoms: C_9  and  O_23
REMARK    4  A    between atoms: C_26  and  C_27
REMARK    5  A    between atoms: C_27  and  O_28
REMARK                            x       y       z     vdW  Elec       q    Type
REMARK                         _______ _______ _______ _____ _____    ______ ____
ROOT
ATOM      1  O   UNL     1      27.847 -21.661 -16.250  0.00  0.00    -0.291 OA
ATOM      2  C   UNL     1      35.547 -24.187 -13.861  0.00  0.00    +0.031 C 
ATOM      3  C   UNL     1      35.177 -23.273 -15.049  0.00  0.00    +0.003 C 
ATOM      4  C   UNL     1      33.869 -23.675 -15.750  0.00  0.00    +0.003 C 
ATOM      5  C   UNL     1      32.702 -23.611 -14.712  0.00  0.00    +0.030 C 
ATOM      6  C   UNL     1      36.905 -23.546 -13.460  0.00  0.00    +0.141 C 
ATOM      7  C   UNL     1      34.413 -24.076 -12.822  0.00  0.00    +0.032 C 
ATOM      8  C   UNL     1      31.286 -23.902 -15.359  0.00  0.00    +0.018 C 
ATOM      9  C   UNL     1      33.021 -24.402 -13.406  0.00  0.00    +0.111 C 
ATOM     10  C   UNL     1      36.463 -23.216 -15.867  0.00  0.00    +0.003 C 
ATOM     11  C   UNL     1      37.587 -23.224 -14.809  0.00  0.00    +0.034 C 
ATOM     12  C   UNL     1      33.586 -22.734 -16.932  0.00  0.00    +0.004 C 
ATOM     13  C   UNL     1      35.774 -25.667 -14.274  0.00  0.00    +0.003 C 
ATOM     14  C   UNL     1      31.114 -23.032 -16.611  0.00  0.00    -0.042 C 
ATOM     15  C   UNL     1      32.255 -23.049 -17.598  0.00  0.00    +0.022 C 
ATOM     16  C   UNL     1      30.194 -23.545 -14.309  0.00  0.00    +0.012 C 
ATOM     17  C   UNL     1      31.098 -25.373 -15.797  0.00  0.00    +0.004 C 
ATOM     18  C   UNL     1      28.802 -23.396 -14.904  0.00  0.00    +0.069 C 
ATOM     19  C   UNL     1      30.016 -22.307 -16.881  0.00  0.00    +0.029 C 
ATOM     20  C   UNL     1      28.818 -22.375 -16.012  0.00  0.00    +0.173 C 
ENDROOT
BRANCH   6  21
ATOM     21  O   UNL     1      36.709 -22.337 -12.732  0.00  0.00    -0.380 OA
ATOM     22  H   UNL     1      35.759 -22.180 -12.615  0.00  0.00    +0.211 HD
ENDBRANCH   6  21
BRANCH   9  23
ATOM     23  O   UNL     1      32.912 -25.804 -13.610  0.00  0.00    -0.384 OA
ATOM     24  H   UNL     1      33.704 -26.243 -13.264  0.00  0.00    +0.210 HD
ENDBRANCH   9  23
BRANCH   6  26
ATOM     25  O   UNL     1      37.369 -24.685 -11.418  0.00  0.00    -0.291 OA
ATOM     26  C   UNL     1      37.738 -24.408 -12.559  0.00  0.00    +0.204 C 
BRANCH  26  27
ATOM     27  C   UNL     1      39.046 -24.910 -13.132  0.00  0.00    +0.204 C 
BRANCH  27  28
ATOM     28  O   UNL     1      38.939 -26.267 -13.505  0.00  0.00    -0.375 OA
ATOM     29  H   UNL     1      38.684 -26.795 -12.733  0.00  0.00    +0.211 HD
ENDBRANCH  27  28
ENDBRANCH  26  27
ENDBRANCH   6  26
TORSDOF 5
ENDMDL
MODEL 4
REMARK VINA RESULT:      -7.7     10.350     12.963
REMARK  Name = 5754
REMARK  5 active torsions:
REMARK  status: ('A' for Active; 'I' for Inactive)
REMARK    1  A    between atoms: C_6  and  O_21
REMARK    2  A    between atoms: C_6  and  C_26
REMARK    3  A    between atoms: C_9  and  O_23
REMARK    4  A    between atoms: C_26  and  C_27
REMARK    5  A    between atoms: C_27  and  O_28
REMARK                            x       y       z     vdW  Elec       q    Type
REMARK                         _______ _______ _______ _____ _____    ______ ____
ROOT
ATOM      1  O   UNL     1      34.307 -10.180 -25.874  0.00  0.00    -0.291 OA
ATOM      2  C   UNL     1      34.778 -17.686 -22.023  0.00  0.00    +0.031 C 
ATOM      3  C   UNL     1      34.783 -17.398 -23.540  0.00  0.00    +0.003 C 
ATOM      4  C   UNL     1      33.864 -16.236 -23.949  0.00  0.00    +0.003 C 
ATOM      5  C   UNL     1      34.334 -14.939 -23.212  0.00  0.00    +0.030 C 
ATOM      6  C   UNL     1      35.727 -18.916 -21.994  0.00  0.00    +0.141 C 
ATOM      7  C   UNL     1      35.292 -16.418 -21.311  0.00  0.00    +0.032 C 
ATOM      8  C   UNL     1      33.518 -13.653 -23.647  0.00  0.00    +0.018 C 
ATOM      9  C   UNL     1      34.488 -15.150 -21.674  0.00  0.00    +0.111 C 
ATOM     10  C   UNL     1      34.555 -18.772 -24.163  0.00  0.00    +0.003 C 
ATOM     11  C   UNL     1      35.319 -19.741 -23.235  0.00  0.00    +0.034 C 
ATOM     12  C   UNL     1      33.907 -16.030 -25.471  0.00  0.00    +0.004 C 
ATOM     13  C   UNL     1      33.381 -18.094 -21.481  0.00  0.00    +0.003 C 
ATOM     14  C   UNL     1      33.481 -13.574 -25.180  0.00  0.00    -0.042 C 
ATOM     15  C   UNL     1      33.074 -14.834 -25.904  0.00  0.00    +0.022 C 
ATOM     16  C   UNL     1      34.243 -12.404 -23.068  0.00  0.00    +0.012 C 
ATOM     17  C   UNL     1      32.053 -13.655 -23.156  0.00  0.00    +0.004 C 
ATOM     18  C   UNL     1      33.817 -11.097 -23.717  0.00  0.00    +0.069 C 
ATOM     19  C   UNL     1      33.748 -12.462 -25.884  0.00  0.00    +0.029 C 
ATOM     20  C   UNL     1      34.011 -11.170 -25.209  0.00  0.00    +0.173 C 
ENDROOT
BRANCH   6  21
ATOM     21  O   UNL     1      37.090 -18.519 -22.120  0.00  0.00    -0.380 OA
ATOM     22  H   UNL     1      37.374 -18.074 -21.306  0.00  0.00    +0.211 HD
ENDBRANCH   6  21
BRANCH   9  23
ATOM     23  O   UNL     1      33.223 -15.193 -21.028  0.00  0.00    -0.384 OA
ATOM     24  H   UNL     1      33.251 -14.648 -20.226  0.00  0.00    +0.210 HD
ENDBRANCH   9  23
BRANCH   6  26
ATOM     25  O   UNL     1      36.567 -19.615 -19.875  0.00  0.00    -0.291 OA
ATOM     26  C   UNL     1      35.669 -19.694 -20.713  0.00  0.00    +0.204 C 
BRANCH  26  27
ATOM     27  C   UNL     1      34.453 -20.574 -20.517  0.00  0.00    +0.204 C 
BRANCH  27  28
ATOM     28  O   UNL     1      34.684 -21.526 -19.500  0.00  0.00    -0.375 OA
ATOM     29  H   UNL     1      35.620 -21.781 -19.504  0.00  0.00    +0.211 HD
ENDBRANCH  27  28
ENDBRANCH  26  27
ENDBRANCH   6  26
TORSDOF 5
ENDMDL
MODEL 5
REMARK VINA RESULT:      -7.4     14.330     16.950
REMARK  Name = 5754
REMARK  5 active torsions:
REMARK  status: ('A' for Active; 'I' for Inactive)
REMARK    1  A    between atoms: C_6  and  O_21
REMARK    2  A    between atoms: C_6  and  C_26
REMARK    3  A    between atoms: C_9  and  O_23
REMARK    4  A    between atoms: C_26  and  C_27
REMARK    5  A    between atoms: C_27  and  O_28
REMARK                            x       y       z     vdW  Elec       q    Type
REMARK                         _______ _______ _______ _____ _____    ______ ____
ROOT
ATOM      1  O   UNL     1      30.618  -4.559 -23.248  0.00  0.00    -0.291 OA
ATOM      2  C   UNL     1      33.314 -12.565 -23.362  0.00  0.00    +0.031 C 
ATOM      3  C   UNL     1      32.293 -11.923 -22.397  0.00  0.00    +0.003 C 
ATOM      4  C   UNL     1      32.634 -10.474 -22.016  0.00  0.00    +0.003 C 
ATOM      5  C   UNL     1      32.676  -9.608 -23.317  0.00  0.00    +0.030 C 
ATOM      6  C   UNL     1      32.707 -13.992 -23.464  0.00  0.00    +0.141 C 
ATOM      7  C   UNL     1      33.310 -11.733 -24.660  0.00  0.00    +0.032 C 
ATOM      8  C   UNL     1      32.914  -8.070 -23.026  0.00  0.00    +0.018 C 
ATOM      9  C   UNL     1      33.586 -10.232 -24.420  0.00  0.00    +0.111 C 
ATOM     10  C   UNL     1      32.151 -12.963 -21.289  0.00  0.00    +0.003 C 
ATOM     11  C   UNL     1      32.254 -14.317 -22.023  0.00  0.00    +0.034 C 
ATOM     12  C   UNL     1      31.587  -9.919 -21.038  0.00  0.00    +0.004 C 
ATOM     13  C   UNL     1      34.747 -12.653 -22.768  0.00  0.00    +0.003 C 
ATOM     14  C   UNL     1      31.929  -7.603 -21.945  0.00  0.00    -0.042 C 
ATOM     15  C   UNL     1      31.845  -8.457 -20.704  0.00  0.00    +0.022 C 
ATOM     16  C   UNL     1      32.664  -7.285 -24.346  0.00  0.00    +0.012 C 
ATOM     17  C   UNL     1      34.337  -7.750 -22.514  0.00  0.00    +0.004 C 
ATOM     18  C   UNL     1      32.467  -5.791 -24.140  0.00  0.00    +0.069 C 
ATOM     19  C   UNL     1      31.188  -6.486 -22.031  0.00  0.00    +0.029 C 
ATOM     20  C   UNL     1      31.345  -5.546 -23.165  0.00  0.00    +0.173 C 
ENDROOT
BRANCH   6  21
ATOM     21  O   UNL     1      31.574 -14.008 -24.328  0.00  0.00    -0.380 OA
ATOM     22  H   UNL     1      31.786 -14.509 -25.131  0.00  0.00    +0.211 HD
ENDBRANCH   6  21
BRANCH   9  23
ATOM     23  O   UNL     1      34.963 -10.049 -24.120  0.00  0.00    -0.384 OA
ATOM     24  H   UNL     1      35.188 -10.547 -23.318  0.00  0.00    +0.210 HD
ENDBRANCH   9  23
BRANCH   6  26
ATOM     25  O   UNL     1      33.795 -15.127 -25.256  0.00  0.00    -0.291 OA
ATOM     26  C   UNL     1      33.646 -15.010 -24.040  0.00  0.00    +0.204 C 
BRANCH  26  27
ATOM     27  C   UNL     1      34.390 -15.874 -23.045  0.00  0.00    +0.204 C 
BRANCH  27  28
ATOM     28  O   UNL     1      35.703 -16.135 -23.495  0.00  0.00    -0.375 OA
ATOM     29  H   UNL     1      35.865 -17.091 -23.480  0.00  0.00    +0.211 HD
ENDBRANCH  27  28
ENDBRANCH  26  27
ENDBRANCH   6  26
TORSDOF 5
ENDMDL
MODEL 6
REMARK VINA RESULT:      -7.2     14.292     16.396
REMARK  Name = 5754
REMARK  5 active torsions:
REMARK  status: ('A' for Active; 'I' for Inactive)
REMARK    1  A    between atoms: C_6  and  O_21
REMARK    2  A    between atoms: C_6  and  C_26
REMARK    3  A    between atoms: C_9  and  O_23
REMARK    4  A    between atoms: C_26  and  C_27
REMARK    5  A    between atoms: C_27  and  O_28
REMARK                            x       y       z     vdW  Elec       q    Type
REMARK                         _______ _______ _______ _____ _____    ______ ____
ROOT
ATOM      1  O   UNL     1      34.539 -16.847 -20.821  0.00  0.00    -0.291 OA
ATOM      2  C   UNL     1      33.239  -8.990 -23.646  0.00  0.00    +0.031 C 
ATOM      3  C   UNL     1      32.858  -9.577 -22.269  0.00  0.00    +0.003 C 
ATOM      4  C   UNL     1      32.396 -11.041 -22.331  0.00  0.00    +0.003 C 
ATOM      5  C   UNL     1      33.555 -11.910 -22.919  0.00  0.00    +0.030 C 
ATOM      6  C   UNL     1      33.575  -7.534 -23.218  0.00  0.00    +0.141 C 
ATOM      7  C   UNL     1      34.417  -9.823 -24.193  0.00  0.00    +0.032 C 
ATOM      8  C   UNL     1      33.221 -13.459 -22.926  0.00  0.00    +0.018 C 
ATOM      9  C   UNL     1      34.110 -11.336 -24.259  0.00  0.00    +0.111 C 
ATOM     10  C   UNL     1      31.913  -8.530 -21.687  0.00  0.00    +0.003 C 
ATOM     11  C   UNL     1      32.490  -7.184 -22.175  0.00  0.00    +0.034 C 
ATOM     12  C   UNL     1      32.012 -11.540 -20.929  0.00  0.00    +0.004 C 
ATOM     13  C   UNL     1      32.059  -8.976 -24.654  0.00  0.00    +0.003 C 
ATOM     14  C   UNL     1      32.716 -13.871 -21.537  0.00  0.00    -0.042 C 
ATOM     15  C   UNL     1      31.630 -13.012 -20.938  0.00  0.00    +0.022 C 
ATOM     16  C   UNL     1      34.528 -14.231 -23.268  0.00  0.00    +0.012 C 
ATOM     17  C   UNL     1      32.126 -13.851 -23.944  0.00  0.00    +0.004 C 
ATOM     18  C   UNL     1      34.466 -15.712 -22.929  0.00  0.00    +0.069 C 
ATOM     19  C   UNL     1      33.153 -14.950 -20.865  0.00  0.00    +0.029 C 
ATOM     20  C   UNL     1      34.113 -15.898 -21.476  0.00  0.00    +0.173 C 
ENDROOT
BRANCH   6  21
ATOM     21  O   UNL     1      34.859  -7.461 -22.604  0.00  0.00    -0.380 OA
ATOM     22  H   UNL     1      35.328  -6.675 -22.926  0.00  0.00    +0.211 HD
ENDBRANCH   6  21
BRANCH   9  23
ATOM     23  O   UNL     1      33.222 -11.589 -25.339  0.00  0.00    -0.384 OA
ATOM     24  H   UNL     1      33.159 -12.546 -25.488  0.00  0.00    +0.210 HD
ENDBRANCH   9  23
BRANCH   6  26
ATOM     25  O   UNL     1      34.604  -6.544 -25.127  0.00  0.00    -0.291 OA
ATOM     26  C   UNL     1      33.640  -6.567 -24.363  0.00  0.00    +0.204 C 
BRANCH  26  27
ATOM     27  C   UNL     1      32.459  -5.632 -24.518  0.00  0.00    +0.204 C 
BRANCH  27  28
ATOM     28  O   UNL     1      32.574  -4.876 -25.705  0.00  0.00    -0.375 OA
ATOM     29  H   UNL     1      32.521  -5.468 -26.471  0.00  0.00    +0.211 HD
ENDBRANCH  27  28
ENDBRANCH  26  27
ENDBRANCH   6  26
TORSDOF 5
ENDMDL
