MODEL 1
REMARK VINA RESULT:      -7.1      0.000      0.000
REMARK  Name = 17753917
REMARK  9 active torsions:
REMARK  status: ('A' for Active; 'I' for Inactive)
REMARK    1  A    between atoms: N_2  and  C_22
REMARK    2  A    between atoms: C_4  and  O_7
REMARK    3  A    between atoms: C_4  and  C_9
REMARK    4  A    between atoms: C_5  and  C_18
REMARK    5  A    between atoms: C_9  and  N_10
REMARK    6  A    between atoms: C_9  and  C_14
REMARK    7  A    between atoms: C_14  and  O_16
REMARK    8  A    between atoms: C_18  and  C_19
REMARK    9  A    between atoms: C_22  and  C_24
REMARK                            x       y       z     vdW  Elec       q    Type
REMARK                         _______ _______ _______ _____ _____    ______ ____
ROOT
ATOM      1  O   UNL     1      33.651 -23.821 -12.843  0.00  0.00    -0.269 OA
ATOM      2  N   UNL     1      35.978 -23.731 -13.245  0.00  0.00    -0.232 N 
ATOM      3  N   UNL     1      35.807 -24.207 -15.543  0.00  0.00    -0.232 NA
ATOM      4  C   UNL     1      36.776 -23.916 -14.447  0.00  0.00    +0.227 C 
ATOM      5  C   UNL     1      34.633 -24.179 -14.991  0.00  0.00    +0.111 C 
ATOM      6  C   UNL     1      34.650 -23.885 -13.523  0.00  0.00    +0.266 C 
ENDROOT
BRANCH   4   7
ATOM      7  O   UNL     1      37.581 -22.754 -14.646  0.00  0.00    -0.354 OA
ATOM      8  H   UNL     1      37.309 -22.062 -14.024  0.00  0.00    +0.214 HD
ENDBRANCH   4   7
BRANCH   4   9
ATOM      9  C   UNL     1      37.713 -25.117 -14.335  0.00  0.00    +0.029 C 
BRANCH   9  10
ATOM     10  N   UNL     1      37.362 -26.101 -15.361  0.00  0.00    +0.387 N 
ATOM     11  H   UNL     1      38.157 -26.242 -15.983  0.00  0.00    -0.089 HD
ATOM     12  H   UNL     1      36.564 -25.763 -15.898  0.00  0.00    -0.089 HD
ATOM     13  H   UNL     1      37.121 -26.986 -14.914  0.00  0.00    -0.089 HD
ENDBRANCH   9  10
BRANCH   9  14
ATOM     14  C   UNL     1      39.206 -24.745 -14.428  0.00  0.00    +0.097 C 
ATOM     15  C   UNL     1      40.171 -25.879 -14.102  0.00  0.00    +0.030 C 
BRANCH  14  16
ATOM     16  O   UNL     1      39.506 -24.290 -15.749  0.00  0.00    -0.386 OA
ATOM     17  H   UNL     1      40.356 -23.823 -15.744  0.00  0.00    +0.210 HD
ENDBRANCH  14  16
ENDBRANCH   9  14
ENDBRANCH   4   9
BRANCH   5  18
ATOM     18  C   UNL     1      33.347 -24.412 -15.698  0.00  0.00    +0.050 C 
BRANCH  18  19
ATOM     19  C   UNL     1      32.809 -23.113 -16.316  0.00  0.00    +0.006 C 
ATOM     20  C   UNL     1      33.202 -22.988 -17.790  0.00  0.00    +0.000 C 
ATOM     21  C   UNL     1      31.288 -23.049 -16.178  0.00  0.00    +0.000 C 
ENDBRANCH  18  19
ENDBRANCH   5  18
BRANCH   2  22
ATOM     22  C   UNL     1      36.540 -23.424 -11.943  0.00  0.00    +0.170 C 
BRANCH  22  24
ATOM     23  O   UNL     1      35.984 -24.236  -9.756  0.00  0.00    -0.286 OA
ATOM     24  C   UNL     1      36.055 -24.454 -10.963  0.00  0.00    +0.229 C 
ENDBRANCH  22  24
ENDBRANCH   2  22
TORSDOF 9
ENDMDL
MODEL 2
REMARK VINA RESULT:      -7.1      2.212      4.592
REMARK  Name = 17753917
REMARK  9 active torsions:
REMARK  status: ('A' for Active; 'I' for Inactive)
REMARK    1  A    between atoms: N_2  and  C_22
REMARK    2  A    between atoms: C_4  and  O_7
REMARK    3  A    between atoms: C_4  and  C_9
REMARK    4  A    between atoms: C_5  and  C_18
REMARK    5  A    between atoms: C_9  and  N_10
REMARK    6  A    between atoms: C_9  and  C_14
REMARK    7  A    between atoms: C_14  and  O_16
REMARK    8  A    between atoms: C_18  and  C_19
REMARK    9  A    between atoms: C_22  and  C_24
REMARK                            x       y       z     vdW  Elec       q    Type
REMARK                         _______ _______ _______ _____ _____    ______ ____
ROOT
ATOM      1  O   UNL     1      38.174 -22.552 -15.638  0.00  0.00    -0.269 OA
ATOM      2  N   UNL     1      36.743 -24.264 -14.861  0.00  0.00    -0.232 N 
ATOM      3  N   UNL     1      34.943 -23.675 -16.256  0.00  0.00    -0.232 NA
ATOM      4  C   UNL     1      35.381 -24.638 -15.205  0.00  0.00    +0.227 C 
ATOM      5  C   UNL     1      35.952 -22.883 -16.449  0.00  0.00    +0.111 C 
ATOM      6  C   UNL     1      37.145 -23.186 -15.596  0.00  0.00    +0.266 C 
ENDROOT
BRANCH   4   7
ATOM      7  O   UNL     1      35.368 -26.010 -15.601  0.00  0.00    -0.354 OA
ATOM      8  H   UNL     1      34.759 -26.505 -15.031  0.00  0.00    +0.214 HD
ENDBRANCH   4   7
BRANCH   4   9
ATOM      9  C   UNL     1      34.427 -24.487 -14.022  0.00  0.00    +0.029 C 
BRANCH   9  10
ATOM     10  N   UNL     1      34.936 -23.454 -13.118  0.00  0.00    +0.387 N 
ATOM     11  H   UNL     1      34.228 -22.732 -12.994  0.00  0.00    -0.089 HD
ATOM     12  H   UNL     1      35.779 -23.041 -13.515  0.00  0.00    -0.089 HD
ATOM     13  H   UNL     1      35.156 -23.872 -12.214  0.00  0.00    -0.089 HD
ENDBRANCH   9  10
BRANCH   9  14
ATOM     14  C   UNL     1      32.974 -24.178 -14.436  0.00  0.00    +0.097 C 
ATOM     15  C   UNL     1      31.911 -24.978 -13.692  0.00  0.00    +0.030 C 
BRANCH  14  16
ATOM     16  O   UNL     1      32.699 -22.793 -14.223  0.00  0.00    -0.386 OA
ATOM     17  H   UNL     1      32.634 -22.341 -15.079  0.00  0.00    +0.210 HD
ENDBRANCH  14  16
ENDBRANCH   9  14
ENDBRANCH   4   9
BRANCH   5  18
ATOM     18  C   UNL     1      35.984 -21.754 -17.416  0.00  0.00    +0.050 C 
BRANCH  18  19
ATOM     19  C   UNL     1      35.459 -22.187 -18.793  0.00  0.00    +0.006 C 
ATOM     20  C   UNL     1      33.964 -21.898 -18.939  0.00  0.00    +0.000 C 
ATOM     21  C   UNL     1      36.236 -21.477 -19.903  0.00  0.00    +0.000 C 
ENDBRANCH  18  19
ENDBRANCH   5  18
BRANCH   2  22
ATOM     22  C   UNL     1      37.545 -24.958 -13.871  0.00  0.00    +0.170 C 
BRANCH  22  24
ATOM     23  O   UNL     1      38.165 -27.077 -14.806  0.00  0.00    -0.286 OA
ATOM     24  C   UNL     1      38.464 -25.906 -14.584  0.00  0.00    +0.229 C 
ENDBRANCH  22  24
ENDBRANCH   2  22
TORSDOF 9
ENDMDL
MODEL 3
REMARK VINA RESULT:      -7.0      9.594     12.628
REMARK  Name = 17753917
REMARK  9 active torsions:
REMARK  status: ('A' for Active; 'I' for Inactive)
REMARK    1  A    between atoms: N_2  and  C_22
REMARK    2  A    between atoms: C_4  and  O_7
REMARK    3  A    between atoms: C_4  and  C_9
REMARK    4  A    between atoms: C_5  and  C_18
REMARK    5  A    between atoms: C_9  and  N_10
REMARK    6  A    between atoms: C_9  and  C_14
REMARK    7  A    between atoms: C_14  and  O_16
REMARK    8  A    between atoms: C_18  and  C_19
REMARK    9  A    between atoms: C_22  and  C_24
REMARK                            x       y       z     vdW  Elec       q    Type
REMARK                         _______ _______ _______ _____ _____    ______ ____
ROOT
ATOM      1  O   UNL     1      34.892 -18.018 -24.668  0.00  0.00    -0.269 OA
ATOM      2  N   UNL     1      34.461 -16.018 -23.485  0.00  0.00    -0.232 N 
ATOM      3  N   UNL     1      34.323 -17.054 -21.378  0.00  0.00    -0.232 NA
ATOM      4  C   UNL     1      34.234 -15.739 -22.077  0.00  0.00    +0.227 C 
ATOM      5  C   UNL     1      34.568 -17.928 -22.304  0.00  0.00    +0.111 C 
ATOM      6  C   UNL     1      34.670 -17.353 -23.682  0.00  0.00    +0.266 C 
ENDROOT
BRANCH   4   7
ATOM      7  O   UNL     1      35.180 -14.761 -21.645  0.00  0.00    -0.354 OA
ATOM      8  H   UNL     1      35.542 -14.299 -22.416  0.00  0.00    +0.214 HD
ENDBRANCH   4   7
BRANCH   4   9
ATOM      9  C   UNL     1      32.837 -15.179 -21.820  0.00  0.00    +0.029 C 
BRANCH   9  10
ATOM     10  N   UNL     1      32.230 -15.889 -20.692  0.00  0.00    +0.387 N 
ATOM     11  H   UNL     1      31.574 -15.271 -20.215  0.00  0.00    -0.089 HD
ATOM     12  H   UNL     1      32.959 -16.180 -20.042  0.00  0.00    -0.089 HD
ATOM     13  H   UNL     1      31.733 -16.710 -21.036  0.00  0.00    -0.089 HD
ENDBRANCH   9  10
BRANCH   9  14
ATOM     14  C   UNL     1      32.818 -13.656 -21.576  0.00  0.00    +0.097 C 
ATOM     15  C   UNL     1      32.066 -12.848 -22.627  0.00  0.00    +0.030 C 
BRANCH  14  16
ATOM     16  O   UNL     1      32.218 -13.380 -20.310  0.00  0.00    -0.386 OA
ATOM     17  H   UNL     1      32.239 -14.180 -19.761  0.00  0.00    +0.210 HD
ENDBRANCH  14  16
ENDBRANCH   9  14
ENDBRANCH   4   9
BRANCH   5  18
ATOM     18  C   UNL     1      34.743 -19.387 -22.081  0.00  0.00    +0.050 C 
BRANCH  18  19
ATOM     19  C   UNL     1      34.391 -19.775 -20.637  0.00  0.00    +0.006 C 
ATOM     20  C   UNL     1      32.956 -20.295 -20.530  0.00  0.00    +0.000 C 
ATOM     21  C   UNL     1      35.367 -20.833 -20.119  0.00  0.00    +0.000 C 
ENDBRANCH  18  19
ENDBRANCH   5  18
BRANCH   2  22
ATOM     22  C   UNL     1      34.462 -15.001 -24.520  0.00  0.00    +0.170 C 
BRANCH  22  24
ATOM     23  O   UNL     1      33.471 -15.357 -26.674  0.00  0.00    -0.286 OA
ATOM     24  C   UNL     1      33.322 -15.276 -25.458  0.00  0.00    +0.229 C 
ENDBRANCH  22  24
ENDBRANCH   2  22
TORSDOF 9
ENDMDL
MODEL 4
REMARK VINA RESULT:      -7.0     11.455     14.440
REMARK  Name = 17753917
REMARK  9 active torsions:
REMARK  status: ('A' for Active; 'I' for Inactive)
REMARK    1  A    between atoms: N_2  and  C_22
REMARK    2  A    between atoms: C_4  and  O_7
REMARK    3  A    between atoms: C_4  and  C_9
REMARK    4  A    between atoms: C_5  and  C_18
REMARK    5  A    between atoms: C_9  and  N_10
REMARK    6  A    between atoms: C_9  and  C_14
REMARK    7  A    between atoms: C_14  and  O_16
REMARK    8  A    between atoms: C_18  and  C_19
REMARK    9  A    between atoms: C_22  and  C_24
REMARK                            x       y       z     vdW  Elec       q    Type
REMARK                         _______ _______ _______ _____ _____    ______ ____
ROOT
ATOM      1  O   UNL     1      34.136 -16.541 -25.714  0.00  0.00    -0.269 OA
ATOM      2  N   UNL     1      33.422 -14.509 -24.742  0.00  0.00    -0.232 N 
ATOM      3  N   UNL     1      34.606 -14.817 -22.732  0.00  0.00    -0.232 NA
ATOM      4  C   UNL     1      33.693 -13.886 -23.456  0.00  0.00    +0.227 C 
ATOM      5  C   UNL     1      34.798 -15.816 -23.537  0.00  0.00    +0.111 C 
ATOM      6  C   UNL     1      34.076 -15.703 -24.843  0.00  0.00    +0.266 C 
ENDROOT
BRANCH   4   7
ATOM      7  O   UNL     1      34.220 -12.579 -23.683  0.00  0.00    -0.354 OA
ATOM      8  H   UNL     1      34.807 -12.596 -24.454  0.00  0.00    +0.214 HD
ENDBRANCH   4   7
BRANCH   4   9
ATOM      9  C   UNL     1      32.429 -13.737 -22.612  0.00  0.00    +0.029 C 
BRANCH   9  10
ATOM     10  N   UNL     1      32.308 -14.887 -21.714  0.00  0.00    +0.387 N 
ATOM     11  H   UNL     1      31.353 -15.241 -21.743  0.00  0.00    -0.089 HD
ATOM     12  H   UNL     1      32.538 -14.602 -20.763  0.00  0.00    -0.089 HD
ATOM     13  H   UNL     1      32.951 -15.621 -22.014  0.00  0.00    -0.089 HD
ENDBRANCH   9  10
BRANCH   9  14
ATOM     14  C   UNL     1      32.372 -12.418 -21.815  0.00  0.00    +0.097 C 
ATOM     15  C   UNL     1      31.244 -11.475 -22.216  0.00  0.00    +0.030 C 
BRANCH  14  16
ATOM     16  O   UNL     1      32.221 -12.704 -20.424  0.00  0.00    -0.386 OA
ATOM     17  H   UNL     1      31.903 -11.912 -19.963  0.00  0.00    +0.210 HD
ENDBRANCH  14  16
ENDBRANCH   9  14
ENDBRANCH   4   9
BRANCH   5  18
ATOM     18  C   UNL     1      35.648 -17.001 -23.245  0.00  0.00    +0.050 C 
BRANCH  18  19
ATOM     19  C   UNL     1      34.809 -18.168 -22.705  0.00  0.00    +0.006 C 
ATOM     20  C   UNL     1      34.846 -19.370 -23.652  0.00  0.00    +0.000 C 
ATOM     21  C   UNL     1      35.306 -18.583 -21.320  0.00  0.00    +0.000 C 
ENDBRANCH  18  19
ENDBRANCH   5  18
BRANCH   2  22
ATOM     22  C   UNL     1      32.571 -13.922 -25.760  0.00  0.00    +0.170 C 
BRANCH  22  24
ATOM     23  O   UNL     1      33.833 -13.752 -27.791  0.00  0.00    -0.286 OA
ATOM     24  C   UNL     1      33.443 -13.216 -26.757  0.00  0.00    +0.229 C 
ENDBRANCH  22  24
ENDBRANCH   2  22
TORSDOF 9
ENDMDL
MODEL 5
REMARK VINA RESULT:      -6.9     12.123     14.384
REMARK  Name = 17753917
REMARK  9 active torsions:
REMARK  status: ('A' for Active; 'I' for Inactive)
REMARK    1  A    between atoms: N_2  and  C_22
REMARK    2  A    between atoms: C_4  and  O_7
REMARK    3  A    between atoms: C_4  and  C_9
REMARK    4  A    between atoms: C_5  and  C_18
REMARK    5  A    between atoms: C_9  and  N_10
REMARK    6  A    between atoms: C_9  and  C_14
REMARK    7  A    between atoms: C_14  and  O_16
REMARK    8  A    between atoms: C_18  and  C_19
REMARK    9  A    between atoms: C_22  and  C_24
REMARK                            x       y       z     vdW  Elec       q    Type
REMARK                         _______ _______ _______ _____ _____    ______ ____
ROOT
ATOM      1  O   UNL     1      31.944 -12.314 -22.114  0.00  0.00    -0.269 OA
ATOM      2  N   UNL     1      33.110 -14.300 -22.643  0.00  0.00    -0.232 N 
ATOM      3  N   UNL     1      34.247 -13.383 -24.487  0.00  0.00    -0.232 NA
ATOM      4  C   UNL     1      34.068 -14.628 -23.687  0.00  0.00    +0.227 C 
ATOM      5  C   UNL     1      33.478 -12.497 -23.935  0.00  0.00    +0.111 C 
ATOM      6  C   UNL     1      32.711 -12.999 -22.751  0.00  0.00    +0.266 C 
ENDROOT
BRANCH   4   7
ATOM      7  O   UNL     1      35.257 -15.130 -23.076  0.00  0.00    -0.354 OA
ATOM      8  H   UNL     1      35.778 -14.390 -22.727  0.00  0.00    +0.214 HD
ENDBRANCH   4   7
BRANCH   4   9
ATOM      9  C   UNL     1      33.541 -15.706 -24.631  0.00  0.00    +0.029 C 
BRANCH   9  10
ATOM     10  N   UNL     1      33.209 -15.099 -25.921  0.00  0.00    +0.387 N 
ATOM     11  H   UNL     1      33.851 -15.445 -26.635  0.00  0.00    -0.089 HD
ATOM     12  H   UNL     1      33.291 -14.086 -25.852  0.00  0.00    -0.089 HD
ATOM     13  H   UNL     1      32.254 -15.347 -26.177  0.00  0.00    -0.089 HD
ENDBRANCH   9  10
BRANCH   9  14
ATOM     14  C   UNL     1      34.514 -16.889 -24.822  0.00  0.00    +0.097 C 
ATOM     15  C   UNL     1      33.846 -18.225 -25.125  0.00  0.00    +0.030 C 
BRANCH  14  16
ATOM     16  O   UNL     1      35.413 -16.602 -25.893  0.00  0.00    -0.386 OA
ATOM     17  H   UNL     1      35.305 -15.678 -26.168  0.00  0.00    +0.210 HD
ENDBRANCH  14  16
ENDBRANCH   9  14
ENDBRANCH   4   9
BRANCH   5  18
ATOM     18  C   UNL     1      33.324 -11.090 -24.392  0.00  0.00    +0.050 C 
BRANCH  18  19
ATOM     19  C   UNL     1      34.664 -10.341 -24.345  0.00  0.00    +0.006 C 
ATOM     20  C   UNL     1      35.356 -10.344 -25.710  0.00  0.00    +0.000 C 
ATOM     21  C   UNL     1      34.451  -8.902 -23.874  0.00  0.00    +0.000 C 
ENDBRANCH  18  19
ENDBRANCH   5  18
BRANCH   2  22
ATOM     22  C   UNL     1      32.659 -15.242 -21.637  0.00  0.00    +0.170 C 
BRANCH  22  24
ATOM     23  O   UNL     1      34.615 -15.301 -20.252  0.00  0.00    -0.286 OA
ATOM     24  C   UNL     1      33.432 -14.994 -20.374  0.00  0.00    +0.229 C 
ENDBRANCH  22  24
ENDBRANCH   2  22
TORSDOF 9
ENDMDL
MODEL 6
REMARK VINA RESULT:      -6.8      8.202     10.742
REMARK  Name = 17753917
REMARK  9 active torsions:
REMARK  status: ('A' for Active; 'I' for Inactive)
REMARK    1  A    between atoms: N_2  and  C_22
REMARK    2  A    between atoms: C_4  and  O_7
REMARK    3  A    between atoms: C_4  and  C_9
REMARK    4  A    between atoms: C_5  and  C_18
REMARK    5  A    between atoms: C_9  and  N_10
REMARK    6  A    between atoms: C_9  and  C_14
REMARK    7  A    between atoms: C_14  and  O_16
REMARK    8  A    between atoms: C_18  and  C_19
REMARK    9  A    between atoms: C_22  and  C_24
REMARK                            x       y       z     vdW  Elec       q    Type
REMARK                         _______ _______ _______ _____ _____    ______ ____
ROOT
ATOM      1  O   UNL     1      35.356 -15.769 -23.275  0.00  0.00    -0.269 OA
ATOM      2  N   UNL     1      35.033 -18.072 -22.855  0.00  0.00    -0.232 N 
ATOM      3  N   UNL     1      34.360 -17.779 -20.619  0.00  0.00    -0.232 NA
ATOM      4  C   UNL     1      34.605 -18.805 -21.674  0.00  0.00    +0.227 C 
ATOM      5  C   UNL     1      34.626 -16.636 -21.173  0.00  0.00    +0.111 C 
ATOM      6  C   UNL     1      35.066 -16.731 -22.601  0.00  0.00    +0.266 C 
ENDROOT
BRANCH   4   7
ATOM      7  O   UNL     1      33.470 -19.602 -22.015  0.00  0.00    -0.354 OA
ATOM      8  H   UNL     1      32.687 -19.260 -21.557  0.00  0.00    +0.214 HD
ENDBRANCH   4   7
BRANCH   4   9
ATOM      9  C   UNL     1      35.692 -19.743 -21.155  0.00  0.00    +0.029 C 
BRANCH   9  10
ATOM     10  N   UNL     1      36.648 -18.979 -20.351  0.00  0.00    +0.387 N 
ATOM     11  H   UNL     1      36.175 -18.597 -19.532  0.00  0.00    -0.089 HD
ATOM     12  H   UNL     1      37.030 -18.217 -20.910  0.00  0.00    -0.089 HD
ATOM     13  H   UNL     1      37.405 -19.592 -20.050  0.00  0.00    -0.089 HD
ENDBRANCH   9  10
BRANCH   9  14
ATOM     14  C   UNL     1      35.142 -20.940 -20.352  0.00  0.00    +0.097 C 
ATOM     15  C   UNL     1      36.101 -21.509 -19.312  0.00  0.00    +0.030 C 
BRANCH  14  16
ATOM     16  O   UNL     1      33.948 -20.553 -19.671  0.00  0.00    -0.386 OA
ATOM     17  H   UNL     1      33.178 -20.765 -20.222  0.00  0.00    +0.210 HD
ENDBRANCH  14  16
ENDBRANCH   9  14
ENDBRANCH   4   9
BRANCH   5  18
ATOM     18  C   UNL     1      34.523 -15.314 -20.502  0.00  0.00    +0.050 C 
BRANCH  18  19
ATOM     19  C   UNL     1      33.084 -14.779 -20.545  0.00  0.00    +0.006 C 
ATOM     20  C   UNL     1      32.861 -13.869 -21.755  0.00  0.00    +0.000 C 
ATOM     21  C   UNL     1      32.087 -15.938 -20.576  0.00  0.00    +0.000 C 
ENDBRANCH  18  19
ENDBRANCH   5  18
BRANCH   2  22
ATOM     22  C   UNL     1      35.370 -18.702 -24.117  0.00  0.00    +0.170 C 
BRANCH  22  24
ATOM     23  O   UNL     1      34.302 -17.451 -25.861  0.00  0.00    -0.286 OA
ATOM     24  C   UNL     1      34.272 -18.414 -25.100  0.00  0.00    +0.229 C 
ENDBRANCH  22  24
ENDBRANCH   2  22
TORSDOF 9
ENDMDL
MODEL 7
REMARK VINA RESULT:      -6.7      1.795      3.831
REMARK  Name = 17753917
REMARK  9 active torsions:
REMARK  status: ('A' for Active; 'I' for Inactive)
REMARK    1  A    between atoms: N_2  and  C_22
REMARK    2  A    between atoms: C_4  and  O_7
REMARK    3  A    between atoms: C_4  and  C_9
REMARK    4  A    between atoms: C_5  and  C_18
REMARK    5  A    between atoms: C_9  and  N_10
REMARK    6  A    between atoms: C_9  and  C_14
REMARK    7  A    between atoms: C_14  and  O_16
REMARK    8  A    between atoms: C_18  and  C_19
REMARK    9  A    between atoms: C_22  and  C_24
REMARK                            x       y       z     vdW  Elec       q    Type
REMARK                         _______ _______ _______ _____ _____    ______ ____
ROOT
ATOM      1  O   UNL     1      37.879 -22.185 -15.720  0.00  0.00    -0.269 OA
ATOM      2  N   UNL     1      37.815 -24.434 -14.997  0.00  0.00    -0.232 N 
ATOM      3  N   UNL     1      35.598 -24.808 -15.690  0.00  0.00    -0.232 NA
ATOM      4  C   UNL     1      36.777 -25.451 -15.040  0.00  0.00    +0.227 C 
ATOM      5  C   UNL     1      35.966 -23.594 -15.961  0.00  0.00    +0.111 C 
ATOM      6  C   UNL     1      37.368 -23.268 -15.549  0.00  0.00    +0.266 C 
ENDROOT
BRANCH   4   7
ATOM      7  O   UNL     1      37.287 -26.599 -15.718  0.00  0.00    -0.354 OA
ATOM      8  H   UNL     1      37.395 -26.397 -16.660  0.00  0.00    +0.214 HD
ENDBRANCH   4   7
BRANCH   4   9
ATOM      9  C   UNL     1      36.344 -25.891 -13.643  0.00  0.00    +0.029 C 
BRANCH   9  10
ATOM     10  N   UNL     1      37.089 -27.092 -13.262  0.00  0.00    +0.387 N 
ATOM     11  H   UNL     1      37.961 -27.133 -13.788  0.00  0.00    -0.089 HD
ATOM     12  H   UNL     1      36.528 -27.919 -13.465  0.00  0.00    -0.089 HD
ATOM     13  H   UNL     1      37.297 -27.060 -12.264  0.00  0.00    -0.089 HD
ENDBRANCH   9  10
BRANCH   9  14
ATOM     14  C   UNL     1      36.503 -24.791 -12.574  0.00  0.00    +0.097 C 
ATOM     15  C   UNL     1      35.194 -24.205 -12.057  0.00  0.00    +0.030 C 
BRANCH  14  16
ATOM     16  O   UNL     1      37.216 -25.313 -11.451  0.00  0.00    -0.386 OA
ATOM     17  H   UNL     1      36.866 -26.188 -11.225  0.00  0.00    +0.210 HD
ENDBRANCH  14  16
ENDBRANCH   9  14
ENDBRANCH   4   9
BRANCH   5  18
ATOM     18  C   UNL     1      35.116 -22.567 -16.620  0.00  0.00    +0.050 C 
BRANCH  18  19
ATOM     19  C   UNL     1      33.954 -23.216 -17.386  0.00  0.00    +0.006 C 
ATOM     20  C   UNL     1      32.658 -23.182 -16.573  0.00  0.00    +0.000 C 
ATOM     21  C   UNL     1      33.744 -22.511 -18.727  0.00  0.00    +0.000 C 
ENDBRANCH  18  19
ENDBRANCH   5  18
BRANCH   2  22
ATOM     22  C   UNL     1      39.137 -24.653 -14.441  0.00  0.00    +0.170 C 
BRANCH  22  24
ATOM     23  O   UNL     1      40.912 -26.059 -15.230  0.00  0.00    -0.286 OA
ATOM     24  C   UNL     1      39.998 -25.283 -15.497  0.00  0.00    +0.229 C 
ENDBRANCH  22  24
ENDBRANCH   2  22
TORSDOF 9
ENDMDL
MODEL 8
REMARK VINA RESULT:      -6.6      2.192      3.948
REMARK  Name = 17753917
REMARK  9 active torsions:
REMARK  status: ('A' for Active; 'I' for Inactive)
REMARK    1  A    between atoms: N_2  and  C_22
REMARK    2  A    between atoms: C_4  and  O_7
REMARK    3  A    between atoms: C_4  and  C_9
REMARK    4  A    between atoms: C_5  and  C_18
REMARK    5  A    between atoms: C_9  and  N_10
REMARK    6  A    between atoms: C_9  and  C_14
REMARK    7  A    between atoms: C_14  and  O_16
REMARK    8  A    between atoms: C_18  and  C_19
REMARK    9  A    between atoms: C_22  and  C_24
REMARK                            x       y       z     vdW  Elec       q    Type
REMARK                         _______ _______ _______ _____ _____    ______ ____
ROOT
ATOM      1  O   UNL     1      34.437 -22.739 -17.372  0.00  0.00    -0.269 OA
ATOM      2  N   UNL     1      35.556 -23.751 -15.553  0.00  0.00    -0.232 N 
ATOM      3  N   UNL     1      33.589 -24.412 -14.445  0.00  0.00    -0.232 NA
ATOM      4  C   UNL     1      35.078 -24.432 -14.361  0.00  0.00    +0.227 C 
ATOM      5  C   UNL     1      33.308 -23.794 -15.551  0.00  0.00    +0.111 C 
ATOM      6  C   UNL     1      34.507 -23.334 -16.321  0.00  0.00    +0.266 C 
ENDROOT
BRANCH   4   7
ATOM      7  O   UNL     1      35.661 -25.734 -14.312  0.00  0.00    -0.354 OA
ATOM      8  H   UNL     1      36.617 -25.655 -14.169  0.00  0.00    +0.214 HD
ENDBRANCH   4   7
BRANCH   4   9
ATOM      9  C   UNL     1      35.473 -23.698 -13.081  0.00  0.00    +0.029 C 
BRANCH   9  10
ATOM     10  N   UNL     1      34.300 -23.572 -12.214  0.00  0.00    +0.387 N 
ATOM     11  H   UNL     1      33.477 -23.374 -12.782  0.00  0.00    -0.089 HD
ATOM     12  H   UNL     1      34.448 -22.811 -11.551  0.00  0.00    -0.089 HD
ATOM     13  H   UNL     1      34.159 -24.444 -11.705  0.00  0.00    -0.089 HD
ENDBRANCH   9  10
BRANCH   9  14
ATOM     14  C   UNL     1      36.640 -24.363 -12.324  0.00  0.00    +0.097 C 
ATOM     15  C   UNL     1      37.609 -23.392 -11.659  0.00  0.00    +0.030 C 
BRANCH  14  16
ATOM     16  O   UNL     1      36.123 -25.222 -11.306  0.00  0.00    -0.386 OA
ATOM     17  H   UNL     1      36.763 -25.285 -10.580  0.00  0.00    +0.210 HD
ENDBRANCH  14  16
ENDBRANCH   9  14
ENDBRANCH   4   9
BRANCH   5  18
ATOM     18  C   UNL     1      31.938 -23.532 -16.063  0.00  0.00    +0.050 C 
BRANCH  18  19
ATOM     19  C   UNL     1      30.880 -23.792 -14.980  0.00  0.00    +0.006 C 
ATOM     20  C   UNL     1      29.850 -22.662 -14.919  0.00  0.00    +0.000 C 
ATOM     21  C   UNL     1      30.174 -25.124 -15.236  0.00  0.00    +0.000 C 
ENDBRANCH  18  19
ENDBRANCH   5  18
BRANCH   2  22
ATOM     22  C   UNL     1      36.960 -23.556 -15.862  0.00  0.00    +0.170 C 
BRANCH  22  24
ATOM     23  O   UNL     1      37.408 -21.375 -16.753  0.00  0.00    -0.286 OA
ATOM     24  C   UNL     1      37.268 -22.089 -15.764  0.00  0.00    +0.229 C 
ENDBRANCH  22  24
ENDBRANCH   2  22
TORSDOF 9
ENDMDL
MODEL 9
REMARK VINA RESULT:      -6.3     12.665     14.849
REMARK  Name = 17753917
REMARK  9 active torsions:
REMARK  status: ('A' for Active; 'I' for Inactive)
REMARK    1  A    between atoms: N_2  and  C_22
REMARK    2  A    between atoms: C_4  and  O_7
REMARK    3  A    between atoms: C_4  and  C_9
REMARK    4  A    between atoms: C_5  and  C_18
REMARK    5  A    between atoms: C_9  and  N_10
REMARK    6  A    between atoms: C_9  and  C_14
REMARK    7  A    between atoms: C_14  and  O_16
REMARK    8  A    between atoms: C_18  and  C_19
REMARK    9  A    between atoms: C_22  and  C_24
REMARK                            x       y       z     vdW  Elec       q    Type
REMARK                         _______ _______ _______ _____ _____    ______ ____
ROOT
ATOM      1  O   UNL     1      31.424 -11.671 -21.845  0.00  0.00    -0.269 OA
ATOM      2  N   UNL     1      32.756 -13.506 -22.510  0.00  0.00    -0.232 N 
ATOM      3  N   UNL     1      33.884 -12.334 -24.210  0.00  0.00    -0.232 NA
ATOM      4  C   UNL     1      33.772 -13.662 -23.539  0.00  0.00    +0.227 C 
ATOM      5  C   UNL     1      33.030 -11.564 -23.610  0.00  0.00    +0.111 C 
ATOM      6  C   UNL     1      32.263 -12.233 -22.511  0.00  0.00    +0.266 C 
ENDROOT
BRANCH   4   7
ATOM      7  O   UNL     1      34.974 -14.132 -22.929  0.00  0.00    -0.354 OA
ATOM      8  H   UNL     1      35.693 -14.115 -23.578  0.00  0.00    +0.214 HD
ENDBRANCH   4   7
BRANCH   4   9
ATOM      9  C   UNL     1      33.362 -14.678 -24.602  0.00  0.00    +0.029 C 
BRANCH   9  10
ATOM     10  N   UNL     1      33.115 -13.982 -25.867  0.00  0.00    +0.387 N 
ATOM     11  H   UNL     1      33.903 -13.370 -26.078  0.00  0.00    -0.089 HD
ATOM     12  H   UNL     1      32.263 -13.427 -25.788  0.00  0.00    -0.089 HD
ATOM     13  H   UNL     1      33.007 -14.666 -26.615  0.00  0.00    -0.089 HD
ENDBRANCH   9  10
BRANCH   9  14
ATOM     14  C   UNL     1      34.387 -15.813 -24.799  0.00  0.00    +0.097 C 
ATOM     15  C   UNL     1      34.281 -16.954 -23.793  0.00  0.00    +0.030 C 
BRANCH  14  16
ATOM     16  O   UNL     1      34.239 -16.373 -26.104  0.00  0.00    -0.386 OA
ATOM     17  H   UNL     1      34.259 -17.341 -26.045  0.00  0.00    +0.210 HD
ENDBRANCH  14  16
ENDBRANCH   9  14
ENDBRANCH   4   9
BRANCH   5  18
ATOM     18  C   UNL     1      32.786 -10.135 -23.937  0.00  0.00    +0.050 C 
BRANCH  18  19
ATOM     19  C   UNL     1      33.714  -9.213 -23.131  0.00  0.00    +0.006 C 
ATOM     20  C   UNL     1      34.669  -8.442 -24.044  0.00  0.00    +0.000 C 
ATOM     21  C   UNL     1      32.891  -8.233 -22.294  0.00  0.00    +0.000 C 
ENDBRANCH  18  19
ENDBRANCH   5  18
BRANCH   2  22
ATOM     22  C   UNL     1      32.342 -14.572 -21.617  0.00  0.00    +0.170 C 
BRANCH  22  24
ATOM     23  O   UNL     1      34.258 -15.244 -20.342  0.00  0.00    -0.286 OA
ATOM     24  C   UNL     1      33.241 -14.559 -20.414  0.00  0.00    +0.229 C 
ENDBRANCH  22  24
ENDBRANCH   2  22
TORSDOF 9
ENDMDL
