MODEL 1
REMARK VINA RESULT:      -4.0      0.000      0.000
REMARK  Name = 5139
REMARK  2 active torsions:
REMARK  status: ('A' for Active; 'I' for Inactive)
REMARK    1  A    between atoms: C_3  and  S_7
REMARK    2  A    between atoms: S_7  and  C_8
REMARK                            x       y       z     vdW  Elec       q    Type
REMARK                         _______ _______ _______ _____ _____    ______ ____
ROOT
ATOM      1  N   UNL     1      40.644 -13.207 -13.878  0.00  0.00    -0.338 N 
ATOM      2  N   UNL     1      40.424 -15.323 -14.906  0.00  0.00    -0.280 NA
ATOM      3  C   UNL     1      40.907 -14.121 -14.860  0.00  0.00    +0.144 C 
ATOM      4  H   UNL     1      41.052 -12.313 -13.918  0.00  0.00    +0.144 HD
ATOM      5  H   UNL     1      40.047 -13.445 -13.133  0.00  0.00    +0.144 HD
ATOM      6  H   UNL     1      40.665 -15.921 -15.651  0.00  0.00    +0.189 HD
ENDROOT
BRANCH   3   7
ATOM      7  S   UNL     1      41.990 -13.548 -16.126  0.00  0.00    -0.081 S 
BRANCH   7   8
ATOM      8  C   UNL     1      41.193 -14.186 -17.617  0.00  0.00    +0.065 C 
ATOM      9  C   UNL     1      41.990 -15.340 -18.195  0.00  0.00    +0.013 C 
ENDBRANCH   7   8
ENDBRANCH   3   7
TORSDOF 2
ENDMDL
MODEL 2
REMARK VINA RESULT:      -4.0     12.278     12.557
REMARK  Name = 5139
REMARK  2 active torsions:
REMARK  status: ('A' for Active; 'I' for Inactive)
REMARK    1  A    between atoms: C_3  and  S_7
REMARK    2  A    between atoms: S_7  and  C_8
REMARK                            x       y       z     vdW  Elec       q    Type
REMARK                         _______ _______ _______ _____ _____    ______ ____
ROOT
ATOM      1  N   UNL     1      36.881 -27.128 -13.634  0.00  0.00    -0.338 N 
ATOM      2  N   UNL     1      36.834 -27.043 -15.994  0.00  0.00    -0.280 NA
ATOM      3  C   UNL     1      37.118 -26.529 -14.839  0.00  0.00    +0.144 C 
ATOM      4  H   UNL     1      37.127 -26.668 -12.799  0.00  0.00    +0.144 HD
ATOM      5  H   UNL     1      36.464 -28.019 -13.601  0.00  0.00    +0.144 HD
ATOM      6  H   UNL     1      37.039 -26.543 -16.818  0.00  0.00    +0.189 HD
ENDROOT
BRANCH   3   7
ATOM      7  S   UNL     1      37.866 -24.937 -14.733  0.00  0.00    -0.081 S 
BRANCH   7   8
ATOM      8  C   UNL     1      39.275 -25.256 -13.650  0.00  0.00    +0.065 C 
ATOM      9  C   UNL     1      40.416 -25.881 -14.429  0.00  0.00    +0.013 C 
ENDBRANCH   7   8
ENDBRANCH   3   7
TORSDOF 2
ENDMDL
MODEL 3
REMARK VINA RESULT:      -3.9     11.677     12.197
REMARK  Name = 5139
REMARK  2 active torsions:
REMARK  status: ('A' for Active; 'I' for Inactive)
REMARK    1  A    between atoms: C_3  and  S_7
REMARK    2  A    between atoms: S_7  and  C_8
REMARK                            x       y       z     vdW  Elec       q    Type
REMARK                         _______ _______ _______ _____ _____    ______ ____
ROOT
ATOM      1  N   UNL     1      37.154 -27.045 -13.839  0.00  0.00    -0.338 N 
ATOM      2  N   UNL     1      36.768 -27.199 -16.165  0.00  0.00    -0.280 NA
ATOM      3  C   UNL     1      36.729 -26.554 -15.042  0.00  0.00    +0.144 C 
ATOM      4  H   UNL     1      37.088 -26.489 -13.030  0.00  0.00    +0.144 HD
ATOM      5  H   UNL     1      37.523 -27.956 -13.783  0.00  0.00    +0.144 HD
ATOM      6  H   UNL     1      36.441 -26.771 -16.990  0.00  0.00    +0.189 HD
ENDROOT
BRANCH   3   7
ATOM      7  S   UNL     1      36.089 -24.913 -14.981  0.00  0.00    -0.081 S 
BRANCH   7   8
ATOM      8  C   UNL     1      37.599 -23.925 -14.922  0.00  0.00    +0.065 C 
ATOM      9  C   UNL     1      37.526 -22.780 -15.914  0.00  0.00    +0.013 C 
ENDBRANCH   7   8
ENDBRANCH   3   7
TORSDOF 2
ENDMDL
MODEL 4
REMARK VINA RESULT:      -3.9     12.260     12.887
REMARK  Name = 5139
REMARK  2 active torsions:
REMARK  status: ('A' for Active; 'I' for Inactive)
REMARK    1  A    between atoms: C_3  and  S_7
REMARK    2  A    between atoms: S_7  and  C_8
REMARK                            x       y       z     vdW  Elec       q    Type
REMARK                         _______ _______ _______ _____ _____    ______ ____
ROOT
ATOM      1  N   UNL     1      35.587 -25.766 -14.751  0.00  0.00    -0.338 N 
ATOM      2  N   UNL     1      36.729 -27.237 -16.205  0.00  0.00    -0.280 NA
ATOM      3  C   UNL     1      36.704 -26.406 -15.212  0.00  0.00    +0.144 C 
ATOM      4  H   UNL     1      35.655 -25.147 -13.988  0.00  0.00    +0.144 HD
ATOM      5  H   UNL     1      34.717 -25.925 -15.182  0.00  0.00    +0.144 HD
ATOM      6  H   UNL     1      37.578 -27.656 -16.474  0.00  0.00    +0.189 HD
ENDROOT
BRANCH   3   7
ATOM      7  S   UNL     1      38.186 -26.017 -14.340  0.00  0.00    -0.081 S 
BRANCH   7   8
ATOM      8  C   UNL     1      37.596 -25.889 -12.638  0.00  0.00    +0.065 C 
ATOM      9  C   UNL     1      37.941 -24.533 -12.054  0.00  0.00    +0.013 C 
ENDBRANCH   7   8
ENDBRANCH   3   7
TORSDOF 2
ENDMDL
MODEL 5
REMARK VINA RESULT:      -3.7      9.506     10.058
REMARK  Name = 5139
REMARK  2 active torsions:
REMARK  status: ('A' for Active; 'I' for Inactive)
REMARK    1  A    between atoms: C_3  and  S_7
REMARK    2  A    between atoms: S_7  and  C_8
REMARK                            x       y       z     vdW  Elec       q    Type
REMARK                         _______ _______ _______ _____ _____    ______ ____
ROOT
ATOM      1  N   UNL     1      35.583 -16.856 -23.085  0.00  0.00    -0.338 N 
ATOM      2  N   UNL     1      35.222 -17.178 -20.772  0.00  0.00    -0.280 NA
ATOM      3  C   UNL     1      35.212 -17.597 -21.998  0.00  0.00    +0.144 C 
ATOM      4  H   UNL     1      35.546 -17.250 -23.985  0.00  0.00    +0.144 HD
ATOM      5  H   UNL     1      35.886 -15.927 -22.966  0.00  0.00    +0.144 HD
ATOM      6  H   UNL     1      34.939 -17.778 -20.045  0.00  0.00    +0.189 HD
ENDROOT
BRANCH   3   7
ATOM      7  S   UNL     1      34.690 -19.238 -22.372  0.00  0.00    -0.081 S 
BRANCH   7   8
ATOM      8  C   UNL     1      34.456 -19.941 -20.726  0.00  0.00    +0.065 C 
ATOM      9  C   UNL     1      32.988 -20.225 -20.471  0.00  0.00    +0.013 C 
ENDBRANCH   7   8
ENDBRANCH   3   7
TORSDOF 2
ENDMDL
MODEL 6
REMARK VINA RESULT:      -3.7      1.964      2.366
REMARK  Name = 5139
REMARK  2 active torsions:
REMARK  status: ('A' for Active; 'I' for Inactive)
REMARK    1  A    between atoms: C_3  and  S_7
REMARK    2  A    between atoms: S_7  and  C_8
REMARK                            x       y       z     vdW  Elec       q    Type
REMARK                         _______ _______ _______ _____ _____    ______ ____
ROOT
ATOM      1  N   UNL     1      40.593 -15.065 -15.205  0.00  0.00    -0.338 N 
ATOM      2  N   UNL     1      42.346 -16.485 -15.908  0.00  0.00    -0.280 NA
ATOM      3  C   UNL     1      41.511 -15.515 -16.112  0.00  0.00    +0.144 C 
ATOM      4  H   UNL     1      39.994 -14.321 -15.440  0.00  0.00    +0.144 HD
ATOM      5  H   UNL     1      40.531 -15.486 -14.318  0.00  0.00    +0.144 HD
ATOM      6  H   UNL     1      42.977 -16.747 -16.616  0.00  0.00    +0.189 HD
ENDROOT
BRANCH   3   7
ATOM      7  S   UNL     1      41.498 -14.663 -17.655  0.00  0.00    -0.081 S 
BRANCH   7   8
ATOM      8  C   UNL     1      42.887 -13.525 -17.466  0.00  0.00    +0.065 C 
ATOM      9  C   UNL     1      42.400 -12.089 -17.434  0.00  0.00    +0.013 C 
ENDBRANCH   7   8
ENDBRANCH   3   7
TORSDOF 2
ENDMDL
MODEL 7
REMARK VINA RESULT:      -3.7     11.292     11.654
REMARK  Name = 5139
REMARK  2 active torsions:
REMARK  status: ('A' for Active; 'I' for Inactive)
REMARK    1  A    between atoms: C_3  and  S_7
REMARK    2  A    between atoms: S_7  and  C_8
REMARK                            x       y       z     vdW  Elec       q    Type
REMARK                         _______ _______ _______ _____ _____    ______ ____
ROOT
ATOM      1  N   UNL     1      32.423  -9.414 -19.309  0.00  0.00    -0.338 N 
ATOM      2  N   UNL     1      33.017  -7.154 -19.660  0.00  0.00    -0.280 NA
ATOM      3  C   UNL     1      32.625  -8.312 -20.092  0.00  0.00    +0.144 C 
ATOM      4  H   UNL     1      32.124 -10.258 -19.717  0.00  0.00    +0.144 HD
ATOM      5  H   UNL     1      32.577  -9.363 -18.339  0.00  0.00    +0.144 HD
ATOM      6  H   UNL     1      33.139  -6.409 -20.293  0.00  0.00    +0.189 HD
ENDROOT
BRANCH   3   7
ATOM      7  S   UNL     1      32.310  -8.561 -21.807  0.00  0.00    -0.081 S 
BRANCH   7   8
ATOM      8  C   UNL     1      33.185  -7.170 -22.555  0.00  0.00    +0.065 C 
ATOM      9  C   UNL     1      34.471  -7.637 -23.209  0.00  0.00    +0.013 C 
ENDBRANCH   7   8
ENDBRANCH   3   7
TORSDOF 2
ENDMDL
MODEL 8
REMARK VINA RESULT:      -3.7      9.657     10.133
REMARK  Name = 5139
REMARK  2 active torsions:
REMARK  status: ('A' for Active; 'I' for Inactive)
REMARK    1  A    between atoms: C_3  and  S_7
REMARK    2  A    between atoms: S_7  and  C_8
REMARK                            x       y       z     vdW  Elec       q    Type
REMARK                         _______ _______ _______ _____ _____    ______ ____
ROOT
ATOM      1  N   UNL     1      35.721 -18.331 -23.609  0.00  0.00    -0.338 N 
ATOM      2  N   UNL     1      35.450 -15.986 -23.509  0.00  0.00    -0.280 NA
ATOM      3  C   UNL     1      35.397 -17.165 -22.974  0.00  0.00    +0.144 C 
ATOM      4  H   UNL     1      35.652 -19.188 -23.130  0.00  0.00    +0.144 HD
ATOM      5  H   UNL     1      36.022 -18.313 -24.546  0.00  0.00    +0.144 HD
ATOM      6  H   UNL     1      35.199 -15.195 -22.980  0.00  0.00    +0.189 HD
ENDROOT
BRANCH   3   7
ATOM      7  S   UNL     1      34.872 -17.360 -21.303  0.00  0.00    -0.081 S 
BRANCH   7   8
ATOM      8  C   UNL     1      34.920 -19.154 -21.102  0.00  0.00    +0.065 C 
ATOM      9  C   UNL     1      33.522 -19.706 -20.896  0.00  0.00    +0.013 C 
ENDBRANCH   7   8
ENDBRANCH   3   7
TORSDOF 2
ENDMDL
MODEL 9
REMARK VINA RESULT:      -3.7     10.433     11.028
REMARK  Name = 5139
REMARK  2 active torsions:
REMARK  status: ('A' for Active; 'I' for Inactive)
REMARK    1  A    between atoms: C_3  and  S_7
REMARK    2  A    between atoms: S_7  and  C_8
REMARK                            x       y       z     vdW  Elec       q    Type
REMARK                         _______ _______ _______ _____ _____    ______ ____
ROOT
ATOM      1  N   UNL     1      35.423 -16.424 -23.622  0.00  0.00    -0.338 N 
ATOM      2  N   UNL     1      34.477 -17.394 -25.557  0.00  0.00    -0.280 NA
ATOM      3  C   UNL     1      34.905 -17.467 -24.336  0.00  0.00    +0.144 C 
ATOM      4  H   UNL     1      35.727 -16.564 -22.697  0.00  0.00    +0.144 HD
ATOM      5  H   UNL     1      35.492 -15.533 -24.034  0.00  0.00    +0.144 HD
ATOM      6  H   UNL     1      34.116 -18.196 -26.001  0.00  0.00    +0.189 HD
ENDROOT
BRANCH   3   7
ATOM      7  S   UNL     1      34.849 -18.998 -23.465  0.00  0.00    -0.081 S 
BRANCH   7   8
ATOM      8  C   UNL     1      34.502 -18.457 -21.778  0.00  0.00    +0.065 C 
ATOM      9  C   UNL     1      33.831 -19.565 -20.989  0.00  0.00    +0.013 C 
ENDBRANCH   7   8
ENDBRANCH   3   7
TORSDOF 2
ENDMDL
