MODEL 1
REMARK VINA RESULT:      -5.0      0.000      0.000
REMARK  Name = 36691220
REMARK  7 active torsions:
REMARK  status: ('A' for Active; 'I' for Inactive)
REMARK    1  A    between atoms: CA_1  and  N_2
REMARK    2  A    between atoms: CA_1  and  C_8
REMARK    3  A    between atoms: CA_1  and  C_9
REMARK    4  A    between atoms: C_9  and  C_10
REMARK    5  A    between atoms: C_10  and  C_11
REMARK    6  A    between atoms: C_11  and  C_12
REMARK    7  A    between atoms: C_12  and  O_13
REMARK                            x       y       z     vdW  Elec       q    Type
REMARK                         _______ _______ _______ _____ _____    ______ ____
ROOT
ATOM      1  CA  UNL     1      36.817 -23.434 -11.785  0.00  0.00    +0.040 C 
ENDROOT
BRANCH   1   2
ATOM      2  N   UNL     1      38.194 -24.018 -11.700  0.00  0.00    +0.389 N 
ATOM      3  H1  UNL     1      38.130 -25.034 -11.654  0.00  0.00    -0.088 HD
ATOM      4  H2  UNL     1      38.661 -23.669 -10.863  0.00  0.00    -0.088 HD
ATOM      5  H3  UNL     1      38.729 -23.748 -12.526  0.00  0.00    -0.088 HD
ENDBRANCH   1   2
BRANCH   1   8
ATOM      6  O   UNL     1      34.937 -24.880 -11.595  0.00  0.00    -0.248 OA
ATOM      7  OXT UNL     1      36.016 -24.199  -9.700  0.00  0.00    -0.248 OA
ATOM      8  C   UNL     1      35.819 -24.249 -10.948  0.00  0.00    +0.345 C 
ENDBRANCH   1   8
BRANCH   1   9
ATOM      9  C   UNL     1      36.460 -23.324 -13.270  0.00  0.00    -0.011 C 
BRANCH   9  10
ATOM     10  C   UNL     1      37.397 -24.155 -14.154  0.00  0.00    +0.001 C 
BRANCH  10  11
ATOM     11  C   UNL     1      36.671 -25.357 -14.755  0.00  0.00    +0.032 C 
BRANCH  11  12
ATOM     12  C   UNL     1      37.230 -26.671 -14.231  0.00  0.00    +0.137 C 
BRANCH  12  13
ATOM     13  O   UNL     1      36.898 -26.796 -12.856  0.00  0.00    -0.382 OA
ATOM     14  H   UNL     1      36.039 -27.239 -12.769  0.00  0.00    +0.210 HD
ENDBRANCH  12  13
ENDBRANCH  11  12
ENDBRANCH  10  11
ENDBRANCH   9  10
ENDBRANCH   1   9
TORSDOF 7
ENDMDL
MODEL 2
REMARK VINA RESULT:      -5.0      2.745      4.516
REMARK  Name = 36691220
REMARK  7 active torsions:
REMARK  status: ('A' for Active; 'I' for Inactive)
REMARK    1  A    between atoms: CA_1  and  N_2
REMARK    2  A    between atoms: CA_1  and  C_8
REMARK    3  A    between atoms: CA_1  and  C_9
REMARK    4  A    between atoms: C_9  and  C_10
REMARK    5  A    between atoms: C_10  and  C_11
REMARK    6  A    between atoms: C_11  and  C_12
REMARK    7  A    between atoms: C_12  and  O_13
REMARK                            x       y       z     vdW  Elec       q    Type
REMARK                         _______ _______ _______ _____ _____    ______ ____
ROOT
ATOM      1  CA  UNL     1      38.665 -25.157 -14.269  0.00  0.00    +0.040 C 
ENDROOT
BRANCH   1   2
ATOM      2  N   UNL     1      37.789 -25.923 -15.213  0.00  0.00    +0.389 N 
ATOM      3  H1  UNL     1      38.213 -25.930 -16.140  0.00  0.00    -0.088 HD
ATOM      4  H2  UNL     1      36.872 -25.480 -15.262  0.00  0.00    -0.088 HD
ATOM      5  H3  UNL     1      37.687 -26.882 -14.879  0.00  0.00    -0.088 HD
ENDBRANCH   1   2
BRANCH   1   8
ATOM      6  O   UNL     1      40.982 -24.619 -14.333  0.00  0.00    -0.248 OA
ATOM      7  OXT UNL     1      40.331 -26.786 -14.648  0.00  0.00    -0.248 OA
ATOM      8  C   UNL     1      40.140 -25.554 -14.438  0.00  0.00    +0.345 C 
ENDBRANCH   1   8
BRANCH   1   9
ATOM      9  C   UNL     1      38.107 -25.369 -12.858  0.00  0.00    -0.011 C 
BRANCH   9  10
ATOM     10  C   UNL     1      38.204 -24.103 -12.000  0.00  0.00    +0.001 C 
BRANCH  10  11
ATOM     11  C   UNL     1      36.819 -23.591 -11.610  0.00  0.00    +0.032 C 
BRANCH  11  12
ATOM     12  C   UNL     1      35.756 -24.669 -11.765  0.00  0.00    +0.137 C 
BRANCH  12  13
ATOM     13  O   UNL     1      35.319 -25.071 -10.474  0.00  0.00    -0.382 OA
ATOM     14  H   UNL     1      35.864 -25.811 -10.164  0.00  0.00    +0.210 HD
ENDBRANCH  12  13
ENDBRANCH  11  12
ENDBRANCH  10  11
ENDBRANCH   9  10
ENDBRANCH   1   9
TORSDOF 7
ENDMDL
MODEL 3
REMARK VINA RESULT:      -5.0      7.638      8.355
REMARK  Name = 36691220
REMARK  7 active torsions:
REMARK  status: ('A' for Active; 'I' for Inactive)
REMARK    1  A    between atoms: CA_1  and  N_2
REMARK    2  A    between atoms: CA_1  and  C_8
REMARK    3  A    between atoms: CA_1  and  C_9
REMARK    4  A    between atoms: C_9  and  C_10
REMARK    5  A    between atoms: C_10  and  C_11
REMARK    6  A    between atoms: C_11  and  C_12
REMARK    7  A    between atoms: C_12  and  O_13
REMARK                            x       y       z     vdW  Elec       q    Type
REMARK                         _______ _______ _______ _____ _____    ______ ____
ROOT
ATOM      1  CA  UNL     1      28.779 -23.129 -15.717  0.00  0.00    +0.040 C 
ENDROOT
BRANCH   1   2
ATOM      2  N   UNL     1      28.648 -24.556 -15.281  0.00  0.00    +0.389 N 
ATOM      3  H1  UNL     1      29.118 -25.162 -15.953  0.00  0.00    -0.088 HD
ATOM      4  H2  UNL     1      27.661 -24.808 -15.231  0.00  0.00    -0.088 HD
ATOM      5  H3  UNL     1      29.075 -24.672 -14.362  0.00  0.00    -0.088 HD
ENDBRANCH   1   2
BRANCH   1   8
ATOM      6  O   UNL     1      27.552 -21.647 -17.116  0.00  0.00    -0.248 OA
ATOM      7  OXT UNL     1      27.672 -23.860 -17.670  0.00  0.00    -0.248 OA
ATOM      8  C   UNL     1      27.910 -22.847 -16.953  0.00  0.00    +0.345 C 
ENDBRANCH   1   8
BRANCH   1   9
ATOM      9  C   UNL     1      30.272 -22.849 -15.912  0.00  0.00    -0.011 C 
BRANCH   9  10
ATOM     10  C   UNL     1      31.039 -22.839 -14.585  0.00  0.00    +0.001 C 
BRANCH  10  11
ATOM     11  C   UNL     1      32.183 -23.852 -14.599  0.00  0.00    +0.032 C 
BRANCH  11  12
ATOM     12  C   UNL     1      31.875 -25.059 -13.725  0.00  0.00    +0.137 C 
BRANCH  12  13
ATOM     13  O   UNL     1      30.699 -24.793 -12.973  0.00  0.00    -0.382 OA
ATOM     14  H   UNL     1      30.735 -23.888 -12.626  0.00  0.00    +0.210 HD
ENDBRANCH  12  13
ENDBRANCH  11  12
ENDBRANCH  10  11
ENDBRANCH   9  10
ENDBRANCH   1   9
TORSDOF 7
ENDMDL
MODEL 4
REMARK VINA RESULT:      -4.9      2.162      2.393
REMARK  Name = 36691220
REMARK  7 active torsions:
REMARK  status: ('A' for Active; 'I' for Inactive)
REMARK    1  A    between atoms: CA_1  and  N_2
REMARK    2  A    between atoms: CA_1  and  C_8
REMARK    3  A    between atoms: CA_1  and  C_9
REMARK    4  A    between atoms: C_9  and  C_10
REMARK    5  A    between atoms: C_10  and  C_11
REMARK    6  A    between atoms: C_11  and  C_12
REMARK    7  A    between atoms: C_12  and  O_13
REMARK                            x       y       z     vdW  Elec       q    Type
REMARK                         _______ _______ _______ _____ _____    ______ ____
ROOT
ATOM      1  CA  UNL     1      36.877 -24.583 -12.263  0.00  0.00    +0.040 C 
ENDROOT
BRANCH   1   2
ATOM      2  N   UNL     1      37.792 -23.823 -11.353  0.00  0.00    +0.389 N 
ATOM      3  H1  UNL     1      37.255 -23.433 -10.579  0.00  0.00    -0.088 HD
ATOM      4  H2  UNL     1      38.239 -23.068 -11.872  0.00  0.00    -0.088 HD
ATOM      5  H3  UNL     1      38.506 -24.454 -10.986  0.00  0.00    -0.088 HD
ENDBRANCH   1   2
BRANCH   1   8
ATOM      6  O   UNL     1      34.519 -24.337 -12.465  0.00  0.00    -0.248 OA
ATOM      7  OXT UNL     1      35.401 -25.052 -10.482  0.00  0.00    -0.248 OA
ATOM      8  C   UNL     1      35.457 -24.658 -11.682  0.00  0.00    +0.345 C 
ENDBRANCH   1   8
BRANCH   1   9
ATOM      9  C   UNL     1      37.528 -25.944 -12.530  0.00  0.00    -0.011 C 
BRANCH   9  10
ATOM     10  C   UNL     1      37.873 -26.141 -14.010  0.00  0.00    +0.001 C 
BRANCH  10  11
ATOM     11  C   UNL     1      38.870 -25.087 -14.492  0.00  0.00    +0.032 C 
BRANCH  11  12
ATOM     12  C   UNL     1      40.262 -25.673 -14.674  0.00  0.00    +0.137 C 
BRANCH  12  13
ATOM     13  O   UNL     1      40.455 -25.978 -16.049  0.00  0.00    -0.382 OA
ATOM     14  H   UNL     1      40.083 -26.853 -16.241  0.00  0.00    +0.210 HD
ENDBRANCH  12  13
ENDBRANCH  11  12
ENDBRANCH  10  11
ENDBRANCH   9  10
ENDBRANCH   1   9
TORSDOF 7
ENDMDL
MODEL 5
REMARK VINA RESULT:      -4.8      2.102      4.111
REMARK  Name = 36691220
REMARK  7 active torsions:
REMARK  status: ('A' for Active; 'I' for Inactive)
REMARK    1  A    between atoms: CA_1  and  N_2
REMARK    2  A    between atoms: CA_1  and  C_8
REMARK    3  A    between atoms: CA_1  and  C_9
REMARK    4  A    between atoms: C_9  and  C_10
REMARK    5  A    between atoms: C_10  and  C_11
REMARK    6  A    between atoms: C_11  and  C_12
REMARK    7  A    between atoms: C_12  and  O_13
REMARK                            x       y       z     vdW  Elec       q    Type
REMARK                         _______ _______ _______ _____ _____    ______ ____
ROOT
ATOM      1  CA  UNL     1      37.893 -26.329 -14.580  0.00  0.00    +0.040 C 
ENDROOT
BRANCH   1   2
ATOM      2  N   UNL     1      38.735 -25.169 -15.015  0.00  0.00    +0.389 N 
ATOM      3  H1  UNL     1      39.499 -25.504 -15.601  0.00  0.00    -0.088 HD
ATOM      4  H2  UNL     1      39.118 -24.699 -14.194  0.00  0.00    -0.088 HD
ATOM      5  H3  UNL     1      38.162 -24.513 -15.546  0.00  0.00    -0.088 HD
ENDBRANCH   1   2
BRANCH   1   8
ATOM      6  O   UNL     1      36.705 -27.469 -16.296  0.00  0.00    -0.248 OA
ATOM      7  OXT UNL     1      35.759 -25.636 -15.314  0.00  0.00    -0.248 OA
ATOM      8  C   UNL     1      36.669 -26.496 -15.493  0.00  0.00    +0.345 C 
ENDBRANCH   1   8
BRANCH   1   9
ATOM      9  C   UNL     1      37.558 -26.118 -13.100  0.00  0.00    -0.011 C 
BRANCH   9  10
ATOM     10  C   UNL     1      38.142 -24.811 -12.554  0.00  0.00    +0.001 C 
BRANCH  10  11
ATOM     11  C   UNL     1      37.127 -24.072 -11.682  0.00  0.00    +0.032 C 
BRANCH  11  12
ATOM     12  C   UNL     1      35.738 -24.683 -11.796  0.00  0.00    +0.137 C 
BRANCH  12  13
ATOM     13  O   UNL     1      35.304 -25.080 -10.503  0.00  0.00    -0.382 OA
ATOM     14  H   UNL     1      35.467 -26.029 -10.384  0.00  0.00    +0.210 HD
ENDBRANCH  12  13
ENDBRANCH  11  12
ENDBRANCH  10  11
ENDBRANCH   9  10
ENDBRANCH   1   9
TORSDOF 7
ENDMDL
MODEL 6
REMARK VINA RESULT:      -4.7      2.274      4.071
REMARK  Name = 36691220
REMARK  7 active torsions:
REMARK  status: ('A' for Active; 'I' for Inactive)
REMARK    1  A    between atoms: CA_1  and  N_2
REMARK    2  A    between atoms: CA_1  and  C_8
REMARK    3  A    between atoms: CA_1  and  C_9
REMARK    4  A    between atoms: C_9  and  C_10
REMARK    5  A    between atoms: C_10  and  C_11
REMARK    6  A    between atoms: C_11  and  C_12
REMARK    7  A    between atoms: C_12  and  O_13
REMARK                            x       y       z     vdW  Elec       q    Type
REMARK                         _______ _______ _______ _____ _____    ______ ____
ROOT
ATOM      1  CA  UNL     1      37.802 -26.102 -14.562  0.00  0.00    +0.040 C 
ENDROOT
BRANCH   1   2
ATOM      2  N   UNL     1      37.169 -26.861 -13.436  0.00  0.00    +0.389 N 
ATOM      3  H1  UNL     1      37.801 -26.875 -12.637  0.00  0.00    -0.088 HD
ATOM      4  H2  UNL     1      36.979 -27.817 -13.735  0.00  0.00    -0.088 HD
ATOM      5  H3  UNL     1      36.295 -26.407 -13.169  0.00  0.00    -0.088 HD
ENDBRANCH   1   2
BRANCH   1   8
ATOM      6  O   UNL     1      39.501 -24.756 -13.581  0.00  0.00    -0.248 OA
ATOM      7  OXT UNL     1      40.094 -26.643 -14.723  0.00  0.00    -0.248 OA
ATOM      8  C   UNL     1      39.277 -25.796 -14.260  0.00  0.00    +0.345 C 
ENDBRANCH   1   8
BRANCH   1   9
ATOM      9  C   UNL     1      36.936 -24.865 -14.820  0.00  0.00    -0.011 C 
BRANCH   9  10
ATOM     10  C   UNL     1      35.901 -24.641 -13.712  0.00  0.00    +0.001 C 
BRANCH  10  11
ATOM     11  C   UNL     1      36.265 -23.433 -12.849  0.00  0.00    +0.032 C 
BRANCH  11  12
ATOM     12  C   UNL     1      36.488 -23.828 -11.397  0.00  0.00    +0.137 C 
BRANCH  12  13
ATOM     13  O   UNL     1      37.692 -24.577 -11.304  0.00  0.00    -0.382 OA
ATOM     14  H   UNL     1      38.446 -24.005 -11.513  0.00  0.00    +0.210 HD
ENDBRANCH  12  13
ENDBRANCH  11  12
ENDBRANCH  10  11
ENDBRANCH   9  10
ENDBRANCH   1   9
TORSDOF 7
ENDMDL
MODEL 7
REMARK VINA RESULT:      -4.7     13.217     14.016
REMARK  Name = 36691220
REMARK  7 active torsions:
REMARK  status: ('A' for Active; 'I' for Inactive)
REMARK    1  A    between atoms: CA_1  and  N_2
REMARK    2  A    between atoms: CA_1  and  C_8
REMARK    3  A    between atoms: CA_1  and  C_9
REMARK    4  A    between atoms: C_9  and  C_10
REMARK    5  A    between atoms: C_10  and  C_11
REMARK    6  A    between atoms: C_11  and  C_12
REMARK    7  A    between atoms: C_12  and  O_13
REMARK                            x       y       z     vdW  Elec       q    Type
REMARK                         _______ _______ _______ _____ _____    ______ ____
ROOT
ATOM      1  CA  UNL     1      34.863 -16.804 -24.892  0.00  0.00    +0.040 C 
ENDROOT
BRANCH   1   2
ATOM      2  N   UNL     1      35.577 -16.365 -23.651  0.00  0.00    +0.389 N 
ATOM      3  H1  UNL     1      34.964 -16.485 -22.845  0.00  0.00    -0.088 HD
ATOM      4  H2  UNL     1      35.837 -15.383 -23.737  0.00  0.00    -0.088 HD
ATOM      5  H3  UNL     1      36.417 -16.930 -23.525  0.00  0.00    -0.088 HD
ENDBRANCH   1   2
BRANCH   1   8
ATOM      6  O   UNL     1      33.317 -15.080 -24.345  0.00  0.00    -0.248 OA
ATOM      7  OXT UNL     1      33.449 -15.816 -26.504  0.00  0.00    -0.248 OA
ATOM      8  C   UNL     1      33.763 -15.803 -25.279  0.00  0.00    +0.345 C 
ENDBRANCH   1   8
BRANCH   1   9
ATOM      9  C   UNL     1      34.365 -18.232 -24.650  0.00  0.00    -0.011 C 
BRANCH   9  10
ATOM     10  C   UNL     1      35.237 -18.986 -23.640  0.00  0.00    +0.001 C 
BRANCH  10  11
ATOM     11  C   UNL     1      34.459 -19.299 -22.362  0.00  0.00    +0.032 C 
BRANCH  11  12
ATOM     12  C   UNL     1      35.329 -19.146 -21.123  0.00  0.00    +0.137 C 
BRANCH  12  13
ATOM     13  O   UNL     1      35.423 -17.766 -20.796  0.00  0.00    -0.382 OA
ATOM     14  H   UNL     1      34.565 -17.339 -20.948  0.00  0.00    +0.210 HD
ENDBRANCH  12  13
ENDBRANCH  11  12
ENDBRANCH  10  11
ENDBRANCH   9  10
ENDBRANCH   1   9
TORSDOF 7
ENDMDL
MODEL 8
REMARK VINA RESULT:      -4.7      7.402      8.195
REMARK  Name = 36691220
REMARK  7 active torsions:
REMARK  status: ('A' for Active; 'I' for Inactive)
REMARK    1  A    between atoms: CA_1  and  N_2
REMARK    2  A    between atoms: CA_1  and  C_8
REMARK    3  A    between atoms: CA_1  and  C_9
REMARK    4  A    between atoms: C_9  and  C_10
REMARK    5  A    between atoms: C_10  and  C_11
REMARK    6  A    between atoms: C_11  and  C_12
REMARK    7  A    between atoms: C_12  and  O_13
REMARK                            x       y       z     vdW  Elec       q    Type
REMARK                         _______ _______ _______ _____ _____    ______ ____
ROOT
ATOM      1  CA  UNL     1      29.544 -23.536 -16.530  0.00  0.00    +0.040 C 
ENDROOT
BRANCH   1   2
ATOM      2  N   UNL     1      30.670 -22.612 -16.876  0.00  0.00    +0.389 N 
ATOM      3  H1  UNL     1      30.480 -21.685 -16.495  0.00  0.00    -0.088 HD
ATOM      4  H2  UNL     1      30.761 -22.551 -17.889  0.00  0.00    -0.088 HD
ATOM      5  H3  UNL     1      31.539 -22.970 -16.477  0.00  0.00    -0.088 HD
ENDBRANCH   1   2
BRANCH   1   8
ATOM      6  O   UNL     1      27.958 -21.770 -16.697  0.00  0.00    -0.248 OA
ATOM      7  OXT UNL     1      27.496 -23.781 -17.679  0.00  0.00    -0.248 OA
ATOM      8  C   UNL     1      28.198 -22.970 -17.009  0.00  0.00    +0.345 C 
ENDBRANCH   1   8
BRANCH   1   9
ATOM      9  C   UNL     1      29.620 -23.803 -15.023  0.00  0.00    -0.011 C 
BRANCH   9  10
ATOM     10  C   UNL     1      30.322 -25.128 -14.704  0.00  0.00    +0.001 C 
BRANCH  10  11
ATOM     11  C   UNL     1      31.421 -24.935 -13.660  0.00  0.00    +0.032 C 
BRANCH  11  12
ATOM     12  C   UNL     1      31.956 -23.511 -13.663  0.00  0.00    +0.137 C 
BRANCH  12  13
ATOM     13  O   UNL     1      33.162 -23.472 -12.913  0.00  0.00    -0.382 OA
ATOM     14  H   UNL     1      33.033 -23.932 -12.069  0.00  0.00    +0.210 HD
ENDBRANCH  12  13
ENDBRANCH  11  12
ENDBRANCH  10  11
ENDBRANCH   9  10
ENDBRANCH   1   9
TORSDOF 7
ENDMDL
MODEL 9
REMARK VINA RESULT:      -4.7     13.647     14.579
REMARK  Name = 36691220
REMARK  7 active torsions:
REMARK  status: ('A' for Active; 'I' for Inactive)
REMARK    1  A    between atoms: CA_1  and  N_2
REMARK    2  A    between atoms: CA_1  and  C_8
REMARK    3  A    between atoms: CA_1  and  C_9
REMARK    4  A    between atoms: C_9  and  C_10
REMARK    5  A    between atoms: C_10  and  C_11
REMARK    6  A    between atoms: C_11  and  C_12
REMARK    7  A    between atoms: C_12  and  O_13
REMARK                            x       y       z     vdW  Elec       q    Type
REMARK                         _______ _______ _______ _____ _____    ______ ____
ROOT
ATOM      1  CA  UNL     1      34.405 -16.361 -23.859  0.00  0.00    +0.040 C 
ENDROOT
BRANCH   1   2
ATOM      2  N   UNL     1      35.731 -16.828 -23.343  0.00  0.00    +0.389 N 
ATOM      3  H1  UNL     1      35.644 -17.079 -22.359  0.00  0.00    -0.088 HD
ATOM      4  H2  UNL     1      36.418 -16.081 -23.444  0.00  0.00    -0.088 HD
ATOM      5  H3  UNL     1      36.035 -17.644 -23.876  0.00  0.00    -0.088 HD
ENDBRANCH   1   2
BRANCH   1   8
ATOM      6  O   UNL     1      33.910 -15.698 -26.090  0.00  0.00    -0.248 OA
ATOM      7  OXT UNL     1      34.519 -17.860 -25.679  0.00  0.00    -0.248 OA
ATOM      8  C   UNL     1      34.257 -16.666 -25.358  0.00  0.00    +0.345 C 
ENDBRANCH   1   8
BRANCH   1   9
ATOM      9  C   UNL     1      34.273 -14.878 -23.497  0.00  0.00    -0.011 C 
BRANCH   9  10
ATOM     10  C   UNL     1      33.040 -14.601 -22.630  0.00  0.00    +0.001 C 
BRANCH  10  11
ATOM     11  C   UNL     1      33.085 -15.403 -21.330  0.00  0.00    +0.032 C 
BRANCH  11  12
ATOM     12  C   UNL     1      34.336 -15.093 -20.521  0.00  0.00    +0.137 C 
BRANCH  12  13
ATOM     13  O   UNL     1      35.082 -16.291 -20.352  0.00  0.00    -0.382 OA
ATOM     14  H   UNL     1      35.538 -16.270 -19.496  0.00  0.00    +0.210 HD
ENDBRANCH  12  13
ENDBRANCH  11  12
ENDBRANCH  10  11
ENDBRANCH   9  10
ENDBRANCH   1   9
TORSDOF 7
ENDMDL
