MODEL 1
REMARK VINA RESULT:      -8.5      0.000      0.000
REMARK  Name = 6914612
REMARK  7 active torsions:
REMARK  status: ('A' for Active; 'I' for Inactive)
REMARK    1  A    between atoms: C_1  and  N_6
REMARK    2  A    between atoms: C_2  and  S_16
REMARK    3  A    between atoms: C_3  and  O_18
REMARK    4  A    between atoms: C_4  and  O_20
REMARK    5  A    between atoms: C_5  and  O_22
REMARK    6  A    between atoms: N_6  and  C_9
REMARK    7  A    between atoms: C_9  and  C_10
REMARK                            x       y       z     vdW  Elec       q    Type
REMARK                         _______ _______ _______ _____ _____    ______ ____
ROOT
ATOM      1  C   UNL     1      34.328 -16.838 -21.935  0.00  0.00    -0.019 C 
ATOM      2  C   UNL     1      34.727 -15.966 -23.143  0.00  0.00    +0.060 C 
ATOM      3  C   UNL     1      33.736 -15.828 -20.945  0.00  0.00    +0.121 C 
ATOM      4  C   UNL     1      33.752 -14.765 -23.121  0.00  0.00    +0.147 C 
ATOM      5  C   UNL     1      32.869 -14.991 -21.885  0.00  0.00    +0.163 C 
ENDROOT
BRANCH   1   6
ATOM      6  N   UNL     1      35.447 -17.590 -21.386  0.00  0.00    +0.390 N 
ATOM      7  H   UNL     1      35.353 -17.635 -20.371  0.00  0.00    -0.084 HD
ATOM      8  H   UNL     1      36.314 -17.117 -21.643  0.00  0.00    -0.084 HD
BRANCH   6   9
ATOM      9  C   UNL     1      35.481 -18.944 -21.921  0.00  0.00    -0.054 C 
BRANCH   9  10
ATOM     10  C   UNL     1      34.988 -19.956 -20.921  0.00  0.00    -0.044 C 
ATOM     11  C   UNL     1      33.627 -20.071 -20.679  0.00  0.00    -0.006 C 
ATOM     12  C   UNL     1      35.904 -20.760 -20.255  0.00  0.00    -0.006 C 
ATOM     13  C   UNL     1      33.171 -21.010 -19.753  0.00  0.00    -0.000 C 
ATOM     14  C   UNL     1      35.448 -21.698 -19.329  0.00  0.00    -0.000 C 
ATOM     15  C   UNL     1      34.081 -21.823 -19.078  0.00  0.00    -0.000 C 
ENDBRANCH   9  10
ENDBRANCH   6   9
ENDBRANCH   1   6
BRANCH   2  16
ATOM     16  S   UNL     1      34.626 -16.893 -24.707  0.00  0.00    -0.140 S 
ATOM     17  C   UNL     1      33.635 -15.710 -25.645  0.00  0.00    +0.069 C 
ENDBRANCH   2  16
BRANCH   3  18
ATOM     18  O   UNL     1      34.761 -15.025 -20.368  0.00  0.00    -0.384 OA
ATOM     19  H   UNL     1      35.221 -14.537 -21.069  0.00  0.00    +0.210 HD
ENDBRANCH   3  18
BRANCH   4  20
ATOM     20  O   UNL     1      34.505 -13.562 -22.979  0.00  0.00    -0.381 OA
ATOM     21  H   UNL     1      33.902 -12.820 -22.820  0.00  0.00    +0.210 HD
ENDBRANCH   4  20
BRANCH   5  22
ATOM     22  O   UNL     1      32.417 -13.787 -21.302  0.00  0.00    -0.380 OA
ATOM     23  H   UNL     1      31.597 -13.505 -21.737  0.00  0.00    +0.211 HD
ENDBRANCH   5  22
TORSDOF 7
ENDMDL
MODEL 2
REMARK VINA RESULT:      -8.2      6.507      9.509
REMARK  Name = 6914612
REMARK  7 active torsions:
REMARK  status: ('A' for Active; 'I' for Inactive)
REMARK    1  A    between atoms: C_1  and  N_6
REMARK    2  A    between atoms: C_2  and  S_16
REMARK    3  A    between atoms: C_3  and  O_18
REMARK    4  A    between atoms: C_4  and  O_20
REMARK    5  A    between atoms: C_5  and  O_22
REMARK    6  A    between atoms: N_6  and  C_9
REMARK    7  A    between atoms: C_9  and  C_10
REMARK                            x       y       z     vdW  Elec       q    Type
REMARK                         _______ _______ _______ _____ _____    ______ ____
ROOT
ATOM      1  C   UNL     1      32.183 -23.558 -16.044  0.00  0.00    -0.019 C 
ATOM      2  C   UNL     1      31.194 -23.014 -14.992  0.00  0.00    +0.060 C 
ATOM      3  C   UNL     1      33.438 -23.876 -15.223  0.00  0.00    +0.121 C 
ATOM      4  C   UNL     1      31.596 -23.694 -13.661  0.00  0.00    +0.147 C 
ATOM      5  C   UNL     1      32.812 -24.564 -14.010  0.00  0.00    +0.163 C 
ENDROOT
BRANCH   1   6
ATOM      6  N   UNL     1      32.431 -22.619 -17.127  0.00  0.00    +0.390 N 
ATOM      7  H   UNL     1      32.721 -21.724 -16.734  0.00  0.00    -0.084 HD
ATOM      8  H   UNL     1      31.571 -22.509 -17.665  0.00  0.00    -0.084 HD
BRANCH   6   9
ATOM      9  C   UNL     1      33.476 -23.109 -18.016  0.00  0.00    -0.054 C 
BRANCH   9  10
ATOM     10  C   UNL     1      33.964 -22.037 -18.954  0.00  0.00    -0.044 C 
ATOM     11  C   UNL     1      35.327 -21.876 -19.156  0.00  0.00    -0.006 C 
ATOM     12  C   UNL     1      33.044 -21.226 -19.604  0.00  0.00    -0.006 C 
ATOM     13  C   UNL     1      35.780 -20.884 -20.026  0.00  0.00    -0.000 C 
ATOM     14  C   UNL     1      33.496 -20.233 -20.473  0.00  0.00    -0.000 C 
ATOM     15  C   UNL     1      34.865 -20.063 -20.684  0.00  0.00    -0.000 C 
ENDBRANCH   9  10
ENDBRANCH   6   9
ENDBRANCH   1   6
BRANCH   2  16
ATOM     16  S   UNL     1      29.467 -23.371 -15.442  0.00  0.00    -0.140 S 
ATOM     17  C   UNL     1      29.379 -25.061 -14.810  0.00  0.00    +0.069 C 
ENDBRANCH   2  16
BRANCH   3  18
ATOM     18  O   UNL     1      34.101 -22.679 -14.827  0.00  0.00    -0.384 OA
ATOM     19  H   UNL     1      33.936 -21.986 -15.487  0.00  0.00    +0.210 HD
ENDBRANCH   3  18
BRANCH   4  20
ATOM     20  O   UNL     1      31.960 -22.686 -12.720  0.00  0.00    -0.381 OA
ATOM     21  H   UNL     1      31.260 -22.017 -12.675  0.00  0.00    +0.210 HD
ENDBRANCH   4  20
BRANCH   5  22
ATOM     22  O   UNL     1      33.709 -24.715 -12.930  0.00  0.00    -0.380 OA
ATOM     23  H   UNL     1      33.210 -24.891 -12.117  0.00  0.00    +0.211 HD
ENDBRANCH   5  22
TORSDOF 7
ENDMDL
MODEL 3
REMARK VINA RESULT:      -8.1      9.746     11.632
REMARK  Name = 6914612
REMARK  7 active torsions:
REMARK  status: ('A' for Active; 'I' for Inactive)
REMARK    1  A    between atoms: C_1  and  N_6
REMARK    2  A    between atoms: C_2  and  S_16
REMARK    3  A    between atoms: C_3  and  O_18
REMARK    4  A    between atoms: C_4  and  O_20
REMARK    5  A    between atoms: C_5  and  O_22
REMARK    6  A    between atoms: N_6  and  C_9
REMARK    7  A    between atoms: C_9  and  C_10
REMARK                            x       y       z     vdW  Elec       q    Type
REMARK                         _______ _______ _______ _____ _____    ______ ____
ROOT
ATOM      1  C   UNL     1      35.809 -24.068 -13.873  0.00  0.00    -0.019 C 
ATOM      2  C   UNL     1      36.840 -25.209 -13.752  0.00  0.00    +0.060 C 
ATOM      3  C   UNL     1      35.271 -23.921 -12.445  0.00  0.00    +0.121 C 
ATOM      4  C   UNL     1      37.357 -25.142 -12.296  0.00  0.00    +0.147 C 
ATOM      5  C   UNL     1      36.572 -23.993 -11.647  0.00  0.00    +0.163 C 
ENDROOT
BRANCH   1   6
ATOM      6  N   UNL     1      34.767 -24.348 -14.851  0.00  0.00    +0.390 N 
ATOM      7  H   UNL     1      34.043 -24.918 -14.414  0.00  0.00    -0.084 HD
ATOM      8  H   UNL     1      35.185 -24.845 -15.638  0.00  0.00    -0.084 HD
BRANCH   6   9
ATOM      9  C   UNL     1      34.169 -23.115 -15.345  0.00  0.00    -0.054 C 
BRANCH   9  10
ATOM     10  C   UNL     1      32.665 -23.158 -15.289  0.00  0.00    -0.044 C 
ATOM     11  C   UNL     1      32.031 -23.296 -14.063  0.00  0.00    -0.006 C 
ATOM     12  C   UNL     1      31.934 -23.058 -16.465  0.00  0.00    -0.006 C 
ATOM     13  C   UNL     1      30.637 -23.335 -14.011  0.00  0.00    -0.000 C 
ATOM     14  C   UNL     1      30.541 -23.098 -16.413  0.00  0.00    -0.000 C 
ATOM     15  C   UNL     1      29.893 -23.236 -15.186  0.00  0.00    -0.000 C 
ENDBRANCH   9  10
ENDBRANCH   6   9
ENDBRANCH   1   6
BRANCH   2  16
ATOM     16  S   UNL     1      38.190 -25.028 -14.960  0.00  0.00    -0.140 S 
ATOM     17  C   UNL     1      39.565 -25.485 -13.882  0.00  0.00    +0.069 C 
ENDBRANCH   2  16
BRANCH   3  18
ATOM     18  O   UNL     1      34.422 -25.014 -12.108  0.00  0.00    -0.384 OA
ATOM     19  H   UNL     1      34.324 -25.596 -12.880  0.00  0.00    +0.210 HD
ENDBRANCH   3  18
BRANCH   4  20
ATOM     20  O   UNL     1      37.059 -26.376 -11.643  0.00  0.00    -0.381 OA
ATOM     21  H   UNL     1      36.942 -27.072 -12.307  0.00  0.00    +0.210 HD
ENDBRANCH   4  20
BRANCH   5  22
ATOM     22  O   UNL     1      36.368 -24.176 -10.262  0.00  0.00    -0.380 OA
ATOM     23  H   UNL     1      37.215 -24.094  -9.797  0.00  0.00    +0.211 HD
ENDBRANCH   5  22
TORSDOF 7
ENDMDL
MODEL 4
REMARK VINA RESULT:      -8.0      8.340     11.228
REMARK  Name = 6914612
REMARK  7 active torsions:
REMARK  status: ('A' for Active; 'I' for Inactive)
REMARK    1  A    between atoms: C_1  and  N_6
REMARK    2  A    between atoms: C_2  and  S_16
REMARK    3  A    between atoms: C_3  and  O_18
REMARK    4  A    between atoms: C_4  and  O_20
REMARK    5  A    between atoms: C_5  and  O_22
REMARK    6  A    between atoms: N_6  and  C_9
REMARK    7  A    between atoms: C_9  and  C_10
REMARK                            x       y       z     vdW  Elec       q    Type
REMARK                         _______ _______ _______ _____ _____    ______ ____
ROOT
ATOM      1  C   UNL     1      36.066 -24.244 -14.091  0.00  0.00    -0.019 C 
ATOM      2  C   UNL     1      36.973 -25.467 -13.846  0.00  0.00    +0.060 C 
ATOM      3  C   UNL     1      35.472 -23.957 -12.707  0.00  0.00    +0.121 C 
ATOM      4  C   UNL     1      37.418 -25.358 -12.368  0.00  0.00    +0.147 C 
ATOM      5  C   UNL     1      36.718 -24.101 -11.834  0.00  0.00    +0.163 C 
ENDROOT
BRANCH   1   6
ATOM      6  N   UNL     1      35.054 -24.485 -15.110  0.00  0.00    +0.390 N 
ATOM      7  H   UNL     1      34.378 -25.161 -14.755  0.00  0.00    -0.084 HD
ATOM      8  H   UNL     1      35.514 -24.844 -15.946  0.00  0.00    -0.084 HD
BRANCH   6   9
ATOM      9  C   UNL     1      34.358 -23.253 -15.456  0.00  0.00    -0.054 C 
BRANCH   9  10
ATOM     10  C   UNL     1      34.709 -22.780 -16.842  0.00  0.00    -0.044 C 
ATOM     11  C   UNL     1      35.962 -22.235 -17.081  0.00  0.00    -0.006 C 
ATOM     12  C   UNL     1      33.773 -22.897 -17.861  0.00  0.00    -0.006 C 
ATOM     13  C   UNL     1      36.287 -21.797 -18.365  0.00  0.00    -0.000 C 
ATOM     14  C   UNL     1      34.098 -22.459 -19.145  0.00  0.00    -0.000 C 
ATOM     15  C   UNL     1      35.356 -21.909 -19.396  0.00  0.00    -0.000 C 
ENDBRANCH   9  10
ENDBRANCH   6   9
ENDBRANCH   1   6
BRANCH   2  16
ATOM     16  S   UNL     1      38.395 -25.491 -14.983  0.00  0.00    -0.140 S 
ATOM     17  C   UNL     1      39.713 -25.522 -13.748  0.00  0.00    +0.069 C 
ENDBRANCH   2  16
BRANCH   3  18
ATOM     18  O   UNL     1      34.505 -24.941 -12.357  0.00  0.00    -0.384 OA
ATOM     19  H   UNL     1      34.893 -25.563 -11.721  0.00  0.00    +0.210 HD
ENDBRANCH   3  18
BRANCH   4  20
ATOM     20  O   UNL     1      36.968 -26.514 -11.664  0.00  0.00    -0.381 OA
ATOM     21  H   UNL     1      36.341 -26.249 -10.974  0.00  0.00    +0.210 HD
ENDBRANCH   4  20
BRANCH   5  22
ATOM     22  O   UNL     1      36.426 -24.176 -10.454  0.00  0.00    -0.380 OA
ATOM     23  H   UNL     1      36.133 -25.075 -10.235  0.00  0.00    +0.211 HD
ENDBRANCH   5  22
TORSDOF 7
ENDMDL
MODEL 5
REMARK VINA RESULT:      -7.8      9.680     11.323
REMARK  Name = 6914612
REMARK  7 active torsions:
REMARK  status: ('A' for Active; 'I' for Inactive)
REMARK    1  A    between atoms: C_1  and  N_6
REMARK    2  A    between atoms: C_2  and  S_16
REMARK    3  A    between atoms: C_3  and  O_18
REMARK    4  A    between atoms: C_4  and  O_20
REMARK    5  A    between atoms: C_5  and  O_22
REMARK    6  A    between atoms: N_6  and  C_9
REMARK    7  A    between atoms: C_9  and  C_10
REMARK                            x       y       z     vdW  Elec       q    Type
REMARK                         _______ _______ _______ _____ _____    ______ ____
ROOT
ATOM      1  C   UNL     1      35.916 -24.543 -13.534  0.00  0.00    -0.019 C 
ATOM      2  C   UNL     1      36.377 -24.587 -15.006  0.00  0.00    +0.060 C 
ATOM      3  C   UNL     1      36.915 -25.461 -12.820  0.00  0.00    +0.121 C 
ATOM      4  C   UNL     1      37.898 -24.863 -14.951  0.00  0.00    +0.147 C 
ATOM      5  C   UNL     1      38.225 -24.997 -13.456  0.00  0.00    +0.163 C 
ENDROOT
BRANCH   1   6
ATOM      6  N   UNL     1      34.532 -24.959 -13.361  0.00  0.00    +0.390 N 
ATOM      7  H   UNL     1      34.446 -25.480 -12.489  0.00  0.00    -0.084 HD
ATOM      8  H   UNL     1      34.268 -25.546 -14.153  0.00  0.00    -0.084 HD
BRANCH   6   9
ATOM      9  C   UNL     1      33.641 -23.808 -13.319  0.00  0.00    -0.054 C 
BRANCH   9  10
ATOM     10  C   UNL     1      32.406 -24.021 -14.153  0.00  0.00    -0.044 C 
ATOM     11  C   UNL     1      32.197 -23.236 -15.277  0.00  0.00    -0.006 C 
ATOM     12  C   UNL     1      31.495 -25.002 -13.786  0.00  0.00    -0.006 C 
ATOM     13  C   UNL     1      31.053 -23.435 -16.051  0.00  0.00    -0.000 C 
ATOM     14  C   UNL     1      30.351 -25.201 -14.558  0.00  0.00    -0.000 C 
ATOM     15  C   UNL     1      30.130 -24.417 -15.691  0.00  0.00    -0.000 C 
ENDBRANCH   9  10
ENDBRANCH   6   9
ENDBRANCH   1   6
BRANCH   2  16
ATOM     16  S   UNL     1      36.000 -23.034 -15.877  0.00  0.00    -0.140 S 
ATOM     17  C   UNL     1      37.695 -22.484 -16.170  0.00  0.00    +0.069 C 
ENDBRANCH   2  16
BRANCH   3  18
ATOM     18  O   UNL     1      36.665 -26.826 -13.137  0.00  0.00    -0.384 OA
ATOM     19  H   UNL     1      35.997 -27.181 -12.530  0.00  0.00    +0.210 HD
ENDBRANCH   3  18
BRANCH   4  20
ATOM     20  O   UNL     1      38.170 -26.088 -15.630  0.00  0.00    -0.381 OA
ATOM     21  H   UNL     1      39.112 -26.131 -15.854  0.00  0.00    +0.210 HD
ENDBRANCH   4  20
BRANCH   5  22
ATOM     22  O   UNL     1      39.307 -25.869 -13.204  0.00  0.00    -0.380 OA
ATOM     23  H   UNL     1      39.806 -25.551 -12.436  0.00  0.00    +0.211 HD
ENDBRANCH   5  22
TORSDOF 7
ENDMDL
MODEL 6
REMARK VINA RESULT:      -7.7      1.730      2.536
REMARK  Name = 6914612
REMARK  7 active torsions:
REMARK  status: ('A' for Active; 'I' for Inactive)
REMARK    1  A    between atoms: C_1  and  N_6
REMARK    2  A    between atoms: C_2  and  S_16
REMARK    3  A    between atoms: C_3  and  O_18
REMARK    4  A    between atoms: C_4  and  O_20
REMARK    5  A    between atoms: C_5  and  O_22
REMARK    6  A    between atoms: N_6  and  C_9
REMARK    7  A    between atoms: C_9  and  C_10
REMARK                            x       y       z     vdW  Elec       q    Type
REMARK                         _______ _______ _______ _____ _____    ______ ____
ROOT
ATOM      1  C   UNL     1      33.945 -15.664 -23.721  0.00  0.00    -0.019 C 
ATOM      2  C   UNL     1      33.734 -14.431 -24.623  0.00  0.00    +0.060 C 
ATOM      3  C   UNL     1      33.826 -15.094 -22.303  0.00  0.00    +0.121 C 
ATOM      4  C   UNL     1      32.833 -13.475 -23.805  0.00  0.00    +0.147 C 
ATOM      5  C   UNL     1      32.604 -14.191 -22.467  0.00  0.00    +0.163 C 
ENDROOT
BRANCH   1   6
ATOM      6  N   UNL     1      35.216 -16.332 -23.965  0.00  0.00    +0.390 N 
ATOM      7  H   UNL     1      35.836 -16.168 -23.172  0.00  0.00    -0.084 HD
ATOM      8  H   UNL     1      35.623 -15.955 -24.820  0.00  0.00    -0.084 HD
BRANCH   6   9
ATOM      9  C   UNL     1      35.028 -17.767 -24.133  0.00  0.00    -0.054 C 
BRANCH   9  10
ATOM     10  C   UNL     1      35.248 -18.517 -22.847  0.00  0.00    -0.044 C 
ATOM     11  C   UNL     1      36.469 -18.415 -22.197  0.00  0.00    -0.006 C 
ATOM     12  C   UNL     1      34.225 -19.300 -22.329  0.00  0.00    -0.006 C 
ATOM     13  C   UNL     1      36.672 -19.110 -21.004  0.00  0.00    -0.000 C 
ATOM     14  C   UNL     1      34.428 -19.995 -21.137  0.00  0.00    -0.000 C 
ATOM     15  C   UNL     1      35.652 -19.900 -20.475  0.00  0.00    -0.000 C 
ENDBRANCH   9  10
ENDBRANCH   6   9
ENDBRANCH   1   6
BRANCH   2  16
ATOM     16  S   UNL     1      32.975 -14.882 -26.216  0.00  0.00    -0.140 S 
ATOM     17  C   UNL     1      33.249 -13.321 -27.083  0.00  0.00    +0.069 C 
ENDBRANCH   2  16
BRANCH   3  18
ATOM     18  O   UNL     1      34.973 -14.320 -21.971  0.00  0.00    -0.384 OA
ATOM     19  H   UNL     1      35.651 -14.437 -22.656  0.00  0.00    +0.210 HD
ENDBRANCH   3  18
BRANCH   4  20
ATOM     20  O   UNL     1      33.531 -12.248 -23.598  0.00  0.00    -0.381 OA
ATOM     21  H   UNL     1      34.392 -12.430 -23.191  0.00  0.00    +0.210 HD
ENDBRANCH   4  20
BRANCH   5  22
ATOM     22  O   UNL     1      32.421 -13.299 -21.388  0.00  0.00    -0.380 OA
ATOM     23  H   UNL     1      32.470 -12.386 -21.711  0.00  0.00    +0.211 HD
ENDBRANCH   5  22
TORSDOF 7
ENDMDL
MODEL 7
REMARK VINA RESULT:      -7.6      9.410     11.475
REMARK  Name = 6914612
REMARK  7 active torsions:
REMARK  status: ('A' for Active; 'I' for Inactive)
REMARK    1  A    between atoms: C_1  and  N_6
REMARK    2  A    between atoms: C_2  and  S_16
REMARK    3  A    between atoms: C_3  and  O_18
REMARK    4  A    between atoms: C_4  and  O_20
REMARK    5  A    between atoms: C_5  and  O_22
REMARK    6  A    between atoms: N_6  and  C_9
REMARK    7  A    between atoms: C_9  and  C_10
REMARK                            x       y       z     vdW  Elec       q    Type
REMARK                         _______ _______ _______ _____ _____    ______ ____
ROOT
ATOM      1  C   UNL     1      35.997 -24.273 -13.805  0.00  0.00    -0.019 C 
ATOM      2  C   UNL     1      37.250 -23.783 -13.051  0.00  0.00    +0.060 C 
ATOM      3  C   UNL     1      36.547 -25.344 -14.753  0.00  0.00    +0.121 C 
ATOM      4  C   UNL     1      38.218 -24.989 -13.037  0.00  0.00    +0.147 C 
ATOM      5  C   UNL     1      37.487 -26.095 -13.811  0.00  0.00    +0.163 C 
ENDROOT
BRANCH   1   6
ATOM      6  N   UNL     1      35.296 -23.201 -14.497  0.00  0.00    +0.390 N 
ATOM      7  H   UNL     1      35.979 -22.538 -14.862  0.00  0.00    -0.084 HD
ATOM      8  H   UNL     1      34.672 -22.740 -13.835  0.00  0.00    -0.084 HD
BRANCH   6   9
ATOM      9  C   UNL     1      34.501 -23.723 -15.600  0.00  0.00    -0.054 C 
BRANCH   9  10
ATOM     10  C   UNL     1      33.033 -23.448 -15.413  0.00  0.00    -0.044 C 
ATOM     11  C   UNL     1      32.235 -23.213 -16.524  0.00  0.00    -0.006 C 
ATOM     12  C   UNL     1      32.497 -23.435 -14.133  0.00  0.00    -0.006 C 
ATOM     13  C   UNL     1      30.874 -22.960 -16.351  0.00  0.00    -0.000 C 
ATOM     14  C   UNL     1      31.137 -23.182 -13.959  0.00  0.00    -0.000 C 
ATOM     15  C   UNL     1      30.325 -22.944 -15.069  0.00  0.00    -0.000 C 
ENDBRANCH   9  10
ENDBRANCH   6   9
ENDBRANCH   1   6
BRANCH   2  16
ATOM     16  S   UNL     1      36.846 -23.216 -11.368  0.00  0.00    -0.140 S 
ATOM     17  C   UNL     1      35.589 -24.452 -10.975  0.00  0.00    +0.069 C 
ENDBRANCH   2  16
BRANCH   3  18
ATOM     18  O   UNL     1      37.283 -24.749 -15.817  0.00  0.00    -0.384 OA
ATOM     19  H   UNL     1      37.520 -25.430 -16.467  0.00  0.00    +0.210 HD
ENDBRANCH   3  18
BRANCH   4  20
ATOM     20  O   UNL     1      39.421 -24.623 -13.711  0.00  0.00    -0.381 OA
ATOM     21  H   UNL     1      40.176 -25.057 -13.285  0.00  0.00    +0.210 HD
ENDBRANCH   4  20
BRANCH   5  22
ATOM     22  O   UNL     1      38.367 -26.972 -14.483  0.00  0.00    -0.380 OA
ATOM     23  H   UNL     1      39.244 -26.561 -14.550  0.00  0.00    +0.211 HD
ENDBRANCH   5  22
TORSDOF 7
ENDMDL
MODEL 8
REMARK VINA RESULT:      -7.6      6.722      9.435
REMARK  Name = 6914612
REMARK  7 active torsions:
REMARK  status: ('A' for Active; 'I' for Inactive)
REMARK    1  A    between atoms: C_1  and  N_6
REMARK    2  A    between atoms: C_2  and  S_16
REMARK    3  A    between atoms: C_3  and  O_18
REMARK    4  A    between atoms: C_4  and  O_20
REMARK    5  A    between atoms: C_5  and  O_22
REMARK    6  A    between atoms: N_6  and  C_9
REMARK    7  A    between atoms: C_9  and  C_10
REMARK                            x       y       z     vdW  Elec       q    Type
REMARK                         _______ _______ _______ _____ _____    ______ ____
ROOT
ATOM      1  C   UNL     1      32.303 -22.778 -15.907  0.00  0.00    -0.019 C 
ATOM      2  C   UNL     1      33.341 -23.772 -15.347  0.00  0.00    +0.060 C 
ATOM      3  C   UNL     1      31.012 -23.160 -15.174  0.00  0.00    +0.121 C 
ATOM      4  C   UNL     1      32.849 -24.119 -13.922  0.00  0.00    +0.147 C 
ATOM      5  C   UNL     1      31.540 -23.336 -13.751  0.00  0.00    +0.163 C 
ENDROOT
BRANCH   1   6
ATOM      6  N   UNL     1      32.180 -22.844 -17.356  0.00  0.00    +0.390 N 
ATOM      7  H   UNL     1      31.858 -21.942 -17.706  0.00  0.00    -0.084 HD
ATOM      8  H   UNL     1      31.512 -23.578 -17.593  0.00  0.00    -0.084 HD
BRANCH   6   9
ATOM      9  C   UNL     1      33.460 -23.165 -17.975  0.00  0.00    -0.054 C 
BRANCH   9  10
ATOM     10  C   UNL     1      33.916 -22.082 -18.916  0.00  0.00    -0.044 C 
ATOM     11  C   UNL     1      35.271 -21.920 -19.165  0.00  0.00    -0.006 C 
ATOM     12  C   UNL     1      32.975 -21.262 -19.522  0.00  0.00    -0.006 C 
ATOM     13  C   UNL     1      35.694 -20.917 -20.037  0.00  0.00    -0.000 C 
ATOM     14  C   UNL     1      33.397 -20.258 -20.394  0.00  0.00    -0.000 C 
ATOM     15  C   UNL     1      34.757 -20.086 -20.651  0.00  0.00    -0.000 C 
ENDBRANCH   9  10
ENDBRANCH   6   9
ENDBRANCH   1   6
BRANCH   2  16
ATOM     16  S   UNL     1      35.017 -23.061 -15.333  0.00  0.00    -0.140 S 
ATOM     17  C   UNL     1      35.941 -24.583 -15.029  0.00  0.00    +0.069 C 
ENDBRANCH   2  16
BRANCH   3  18
ATOM     18  O   UNL     1      30.495 -24.392 -15.668  0.00  0.00    -0.384 OA
ATOM     19  H   UNL     1      29.614 -24.546 -15.291  0.00  0.00    +0.210 HD
ENDBRANCH   3  18
BRANCH   4  20
ATOM     20  O   UNL     1      32.601 -25.522 -13.848  0.00  0.00    -0.381 OA
ATOM     21  H   UNL     1      33.443 -25.995 -13.765  0.00  0.00    +0.210 HD
ENDBRANCH   4  20
BRANCH   5  22
ATOM     22  O   UNL     1      30.622 -23.976 -12.891  0.00  0.00    -0.380 OA
ATOM     23  H   UNL     1      29.719 -23.704 -13.121  0.00  0.00    +0.211 HD
ENDBRANCH   5  22
TORSDOF 7
ENDMDL
MODEL 9
REMARK VINA RESULT:      -7.6      7.692     10.819
REMARK  Name = 6914612
REMARK  7 active torsions:
REMARK  status: ('A' for Active; 'I' for Inactive)
REMARK    1  A    between atoms: C_1  and  N_6
REMARK    2  A    between atoms: C_2  and  S_16
REMARK    3  A    between atoms: C_3  and  O_18
REMARK    4  A    between atoms: C_4  and  O_20
REMARK    5  A    between atoms: C_5  and  O_22
REMARK    6  A    between atoms: N_6  and  C_9
REMARK    7  A    between atoms: C_9  and  C_10
REMARK                            x       y       z     vdW  Elec       q    Type
REMARK                         _______ _______ _______ _____ _____    ______ ____
ROOT
ATOM      1  C   UNL     1      36.643 -24.015 -14.373  0.00  0.00    -0.019 C 
ATOM      2  C   UNL     1      37.447 -23.727 -13.088  0.00  0.00    +0.060 C 
ATOM      3  C   UNL     1      37.613 -24.844 -15.223  0.00  0.00    +0.121 C 
ATOM      4  C   UNL     1      38.427 -24.916 -12.943  0.00  0.00    +0.147 C 
ATOM      5  C   UNL     1      38.160 -25.803 -14.167  0.00  0.00    +0.163 C 
ENDROOT
BRANCH   1   6
ATOM      6  N   UNL     1      36.189 -22.803 -15.040  0.00  0.00    +0.390 N 
ATOM      7  H   UNL     1      36.937 -22.450 -15.636  0.00  0.00    -0.084 HD
ATOM      8  H   UNL     1      35.944 -22.114 -14.329  0.00  0.00    -0.084 HD
BRANCH   6   9
ATOM      9  C   UNL     1      35.013 -23.066 -15.858  0.00  0.00    -0.054 C 
BRANCH   9  10
ATOM     10  C   UNL     1      35.150 -22.487 -17.241  0.00  0.00    -0.044 C 
ATOM     11  C   UNL     1      34.060 -22.502 -18.099  0.00  0.00    -0.006 C 
ATOM     12  C   UNL     1      36.365 -21.946 -17.638  0.00  0.00    -0.006 C 
ATOM     13  C   UNL     1      34.186 -21.965 -19.380  0.00  0.00    -0.000 C 
ATOM     14  C   UNL     1      36.492 -21.410 -18.920  0.00  0.00    -0.000 C 
ATOM     15  C   UNL     1      35.402 -21.419 -19.790  0.00  0.00    -0.000 C 
ENDBRANCH   9  10
ENDBRANCH   6   9
ENDBRANCH   1   6
BRANCH   2  16
ATOM     16  S   UNL     1      36.362 -23.562 -11.636  0.00  0.00    -0.140 S 
ATOM     17  C   UNL     1      34.940 -24.478 -12.271  0.00  0.00    +0.069 C 
ENDBRANCH   2  16
BRANCH   3  18
ATOM     18  O   UNL     1      38.659 -24.026 -15.739  0.00  0.00    -0.384 OA
ATOM     19  H   UNL     1      39.191 -24.541 -16.367  0.00  0.00    +0.210 HD
ENDBRANCH   3  18
BRANCH   4  20
ATOM     20  O   UNL     1      39.764 -24.418 -12.974  0.00  0.00    -0.381 OA
ATOM     21  H   UNL     1      39.763 -23.475 -12.748  0.00  0.00    +0.210 HD
ENDBRANCH   4  20
BRANCH   5  22
ATOM     22  O   UNL     1      39.304 -26.511 -14.596  0.00  0.00    -0.380 OA
ATOM     23  H   UNL     1      40.098 -26.106 -14.211  0.00  0.00    +0.211 HD
ENDBRANCH   5  22
TORSDOF 7
ENDMDL
