MODEL 1
REMARK VINA RESULT:      -8.4      0.000      0.000
REMARK  Name = 2471
REMARK  10 active torsions:
REMARK  status: ('A' for Active; 'I' for Inactive)
REMARK    1  A    between atoms: C_1  and  N_17
REMARK    2  A    between atoms: C_2  and  O_23
REMARK    3  A    between atoms: C_3  and  S_7
REMARK    4  A    between atoms: C_5  and  C_14
REMARK    5  A    between atoms: S_7  and  N_10
REMARK    6  A    between atoms: C_14  and  O_15
REMARK    7  A    between atoms: N_17  and  C_19
REMARK    8  A    between atoms: C_19  and  C_20
REMARK    9  A    between atoms: C_20  and  C_21
REMARK   10  A    between atoms: O_23  and  C_24
REMARK                            x       y       z     vdW  Elec       q    Type
REMARK                         _______ _______ _______ _____ _____    ______ ____
ROOT
ATOM      1  C   UNL     1      33.685 -23.453 -14.170  0.00  0.00    +0.081 C 
ATOM      2  C   UNL     1      34.145 -23.258 -15.487  0.00  0.00    +0.177 C 
ATOM      3  C   UNL     1      33.260 -23.271 -16.564  0.00  0.00    +0.157 C 
ATOM      4  C   UNL     1      32.307 -23.661 -13.972  0.00  0.00    +0.024 C 
ATOM      5  C   UNL     1      31.421 -23.674 -15.050  0.00  0.00    +0.078 C 
ATOM      6  C   UNL     1      31.899 -23.479 -16.346  0.00  0.00    +0.030 C 
ENDROOT
BRANCH   3   7
ATOM      7  S   UNL     1      33.831 -23.029 -18.200  0.00  0.00    +0.060 S 
ATOM      8  O   UNL     1      35.116 -22.348 -18.139  0.00  0.00    -0.153 OA
ATOM      9  O   UNL     1      33.709 -24.287 -18.921  0.00  0.00    -0.153 OA
BRANCH   7  10
ATOM     10  N   UNL     1      32.655 -21.939 -18.793  0.00  0.00    -0.203 NA
ATOM     11  H   UNL     1      32.486 -21.211 -18.097  0.00  0.00    +0.144 HD
ATOM     12  H   UNL     1      31.787 -22.442 -18.976  0.00  0.00    +0.144 HD
ENDBRANCH   7  10
ENDBRANCH   3   7
BRANCH   5  14
ATOM     13  O   UNL     1      29.087 -23.215 -15.305  0.00  0.00    -0.245 OA
ATOM     14  C   UNL     1      30.002 -23.891 -14.822  0.00  0.00    +0.338 C 
BRANCH  14  15
ATOM     15  O   UNL     1      29.762 -24.948 -13.997  0.00  0.00    -0.477 OA
ATOM     16  H   UNL     1      30.309 -25.706 -14.038  0.00  0.00    +0.295 HD
ENDBRANCH  14  15
ENDBRANCH   5  14
BRANCH   1  17
ATOM     17  N   UNL     1      34.552 -23.443 -13.088  0.00  0.00    -0.330 N 
ATOM     18  H   UNL     1      35.103 -22.640 -12.942  0.00  0.00    +0.147 HD
BRANCH  17  19
ATOM     19  C   UNL     1      34.693 -24.542 -12.164  0.00  0.00    +0.087 C 
BRANCH  19  20
ATOM     20  C   UNL     1      35.719 -24.211 -11.082  0.00  0.00    +0.021 C 
BRANCH  20  21
ATOM     21  C   UNL     1      37.155 -24.219 -11.609  0.00  0.00    +0.002 C 
ATOM     22  C   UNL     1      37.702 -22.808 -11.754  0.00  0.00    +0.000 C 
ENDBRANCH  20  21
ENDBRANCH  19  20
ENDBRANCH  17  19
ENDBRANCH   1  17
BRANCH   2  23
ATOM     23  O   UNL     1      35.478 -23.056 -15.698  0.00  0.00    -0.451 OA
BRANCH  23  24
ATOM     24  C   UNL     1      36.337 -24.101 -15.409  0.00  0.00    +0.145 C 
ATOM     25  C   UNL     1      37.668 -23.827 -15.149  0.00  0.00    +0.037 C 
ATOM     26  C   UNL     1      35.845 -25.394 -15.390  0.00  0.00    +0.037 C 
ATOM     27  C   UNL     1      38.536 -24.881 -14.859  0.00  0.00    +0.003 C 
ATOM     28  C   UNL     1      36.713 -26.448 -15.101  0.00  0.00    +0.003 C 
ATOM     29  C   UNL     1      38.058 -26.191 -14.835  0.00  0.00    +0.000 C 
ENDBRANCH  23  24
ENDBRANCH   2  23
TORSDOF 10
ENDMDL
MODEL 2
REMARK VINA RESULT:      -8.2      3.026      5.600
REMARK  Name = 2471
REMARK  10 active torsions:
REMARK  status: ('A' for Active; 'I' for Inactive)
REMARK    1  A    between atoms: C_1  and  N_17
REMARK    2  A    between atoms: C_2  and  O_23
REMARK    3  A    between atoms: C_3  and  S_7
REMARK    4  A    between atoms: C_5  and  C_14
REMARK    5  A    between atoms: S_7  and  N_10
REMARK    6  A    between atoms: C_14  and  O_15
REMARK    7  A    between atoms: N_17  and  C_19
REMARK    8  A    between atoms: C_19  and  C_20
REMARK    9  A    between atoms: C_20  and  C_21
REMARK   10  A    between atoms: O_23  and  C_24
REMARK                            x       y       z     vdW  Elec       q    Type
REMARK                         _______ _______ _______ _____ _____    ______ ____
ROOT
ATOM      1  C   UNL     1      34.337 -23.581 -13.819  0.00  0.00    +0.081 C 
ATOM      2  C   UNL     1      35.118 -24.476 -14.575  0.00  0.00    +0.177 C 
ATOM      3  C   UNL     1      36.126 -25.231 -13.975  0.00  0.00    +0.157 C 
ATOM      4  C   UNL     1      34.603 -23.468 -12.440  0.00  0.00    +0.024 C 
ATOM      5  C   UNL     1      35.611 -24.222 -11.841  0.00  0.00    +0.078 C 
ATOM      6  C   UNL     1      36.373 -25.104 -12.608  0.00  0.00    +0.030 C 
ENDROOT
BRANCH   3   7
ATOM      7  S   UNL     1      37.095 -26.344 -14.913  0.00  0.00    +0.060 S 
ATOM      8  O   UNL     1      37.627 -27.357 -14.014  0.00  0.00    -0.153 OA
ATOM      9  O   UNL     1      36.331 -26.743 -16.086  0.00  0.00    -0.153 OA
BRANCH   7  10
ATOM     10  N   UNL     1      38.371 -25.320 -15.409  0.00  0.00    -0.203 NA
ATOM     11  H   UNL     1      38.252 -25.083 -16.395  0.00  0.00    +0.144 HD
ATOM     12  H   UNL     1      39.261 -25.800 -15.280  0.00  0.00    +0.144 HD
ENDBRANCH   7  10
ENDBRANCH   3   7
BRANCH   5  14
ATOM     13  O   UNL     1      35.294 -24.720  -9.522  0.00  0.00    -0.245 OA
ATOM     14  C   UNL     1      35.869 -24.089 -10.415  0.00  0.00    +0.338 C 
BRANCH  14  15
ATOM     15  O   UNL     1      36.838 -23.171 -10.145  0.00  0.00    -0.477 OA
ATOM     16  H   UNL     1      36.974 -22.450 -10.726  0.00  0.00    +0.295 HD
ENDBRANCH  14  15
ENDBRANCH   5  14
BRANCH   1  17
ATOM     17  N   UNL     1      33.331 -22.824 -14.400  0.00  0.00    -0.330 N 
ATOM     18  H   UNL     1      33.591 -22.030 -14.921  0.00  0.00    +0.147 HD
BRANCH  17  19
ATOM     19  C   UNL     1      31.927 -23.133 -14.284  0.00  0.00    +0.087 C 
BRANCH  19  20
ATOM     20  C   UNL     1      31.307 -23.360 -15.661  0.00  0.00    +0.021 C 
BRANCH  20  21
ATOM     21  C   UNL     1      29.940 -24.042 -15.588  0.00  0.00    +0.002 C 
ATOM     22  C   UNL     1      30.030 -25.395 -14.900  0.00  0.00    +0.000 C 
ENDBRANCH  20  21
ENDBRANCH  19  20
ENDBRANCH  17  19
ENDBRANCH   1  17
BRANCH   2  23
ATOM     23  O   UNL     1      34.875 -24.598 -15.911  0.00  0.00    -0.451 OA
BRANCH  23  24
ATOM     24  C   UNL     1      35.244 -23.544 -16.728  0.00  0.00    +0.145 C 
ATOM     25  C   UNL     1      34.433 -23.200 -17.794  0.00  0.00    +0.037 C 
ATOM     26  C   UNL     1      36.417 -22.860 -16.459  0.00  0.00    +0.037 C 
ATOM     27  C   UNL     1      34.805 -22.137 -18.618  0.00  0.00    +0.003 C 
ATOM     28  C   UNL     1      36.790 -21.799 -17.284  0.00  0.00    +0.003 C 
ATOM     29  C   UNL     1      35.984 -21.437 -18.362  0.00  0.00    +0.000 C 
ENDBRANCH  23  24
ENDBRANCH   2  23
TORSDOF 10
ENDMDL
MODEL 3
REMARK VINA RESULT:      -8.0      3.041      5.096
REMARK  Name = 2471
REMARK  10 active torsions:
REMARK  status: ('A' for Active; 'I' for Inactive)
REMARK    1  A    between atoms: C_1  and  N_17
REMARK    2  A    between atoms: C_2  and  O_23
REMARK    3  A    between atoms: C_3  and  S_7
REMARK    4  A    between atoms: C_5  and  C_14
REMARK    5  A    between atoms: S_7  and  N_10
REMARK    6  A    between atoms: C_14  and  O_15
REMARK    7  A    between atoms: N_17  and  C_19
REMARK    8  A    between atoms: C_19  and  C_20
REMARK    9  A    between atoms: C_20  and  C_21
REMARK   10  A    between atoms: O_23  and  C_24
REMARK                            x       y       z     vdW  Elec       q    Type
REMARK                         _______ _______ _______ _____ _____    ______ ____
ROOT
ATOM      1  C   UNL     1      35.444 -23.113 -14.970  0.00  0.00    +0.081 C 
ATOM      2  C   UNL     1      36.077 -23.528 -13.782  0.00  0.00    +0.177 C 
ATOM      3  C   UNL     1      35.345 -24.094 -12.739  0.00  0.00    +0.157 C 
ATOM      4  C   UNL     1      34.050 -23.286 -15.074  0.00  0.00    +0.024 C 
ATOM      5  C   UNL     1      33.318 -23.852 -14.030  0.00  0.00    +0.078 C 
ATOM      6  C   UNL     1      33.966 -24.255 -12.862  0.00  0.00    +0.030 C 
ENDROOT
BRANCH   3   7
ATOM      7  S   UNL     1      36.132 -24.609 -11.264  0.00  0.00    +0.060 S 
ATOM      8  O   UNL     1      35.120 -24.737 -10.227  0.00  0.00    -0.153 OA
ATOM      9  O   UNL     1      36.998 -25.737 -11.576  0.00  0.00    -0.153 OA
BRANCH   7  10
ATOM     10  N   UNL     1      37.104 -23.246 -10.925  0.00  0.00    -0.203 NA
ATOM     11  H   UNL     1      36.578 -22.395 -11.128  0.00  0.00    +0.144 HD
ATOM     12  H   UNL     1      37.943 -23.273 -11.504  0.00  0.00    +0.144 HD
ENDBRANCH   7  10
ENDBRANCH   3   7
BRANCH   5  14
ATOM     13  O   UNL     1      31.168 -23.475 -15.011  0.00  0.00    -0.245 OA
ATOM     14  C   UNL     1      31.879 -24.020 -14.159  0.00  0.00    +0.338 C 
BRANCH  14  15
ATOM     15  O   UNL     1      31.367 -24.863 -13.221  0.00  0.00    -0.477 OA
ATOM     16  H   UNL     1      30.463 -24.806 -12.984  0.00  0.00    +0.295 HD
ENDBRANCH  14  15
ENDBRANCH   5  14
BRANCH   1  17
ATOM     17  N   UNL     1      36.157 -22.549 -16.016  0.00  0.00    -0.330 N 
ATOM     18  H   UNL     1      37.091 -22.283 -15.850  0.00  0.00    +0.147 HD
BRANCH  17  19
ATOM     19  C   UNL     1      35.610 -22.330 -17.333  0.00  0.00    +0.087 C 
BRANCH  19  20
ATOM     20  C   UNL     1      36.608 -21.583 -18.216  0.00  0.00    +0.021 C 
BRANCH  20  21
ATOM     21  C   UNL     1      36.049 -21.275 -19.607  0.00  0.00    +0.002 C 
ATOM     22  C   UNL     1      34.533 -21.383 -19.632  0.00  0.00    +0.000 C 
ENDBRANCH  20  21
ENDBRANCH  19  20
ENDBRANCH  17  19
ENDBRANCH   1  17
BRANCH   2  23
ATOM     23  O   UNL     1      37.427 -23.367 -13.663  0.00  0.00    -0.451 OA
BRANCH  23  24
ATOM     24  C   UNL     1      38.232 -24.434 -14.021  0.00  0.00    +0.145 C 
ATOM     25  C   UNL     1      37.699 -25.455 -14.786  0.00  0.00    +0.037 C 
ATOM     26  C   UNL     1      39.551 -24.454 -13.602  0.00  0.00    +0.037 C 
ATOM     27  C   UNL     1      38.511 -26.532 -15.147  0.00  0.00    +0.003 C 
ATOM     28  C   UNL     1      40.363 -25.530 -13.962  0.00  0.00    +0.003 C 
ATOM     29  C   UNL     1      39.843 -26.569 -14.734  0.00  0.00    +0.000 C 
ENDBRANCH  23  24
ENDBRANCH   2  23
TORSDOF 10
ENDMDL
MODEL 4
REMARK VINA RESULT:      -7.8      2.158      4.158
REMARK  Name = 2471
REMARK  10 active torsions:
REMARK  status: ('A' for Active; 'I' for Inactive)
REMARK    1  A    between atoms: C_1  and  N_17
REMARK    2  A    between atoms: C_2  and  O_23
REMARK    3  A    between atoms: C_3  and  S_7
REMARK    4  A    between atoms: C_5  and  C_14
REMARK    5  A    between atoms: S_7  and  N_10
REMARK    6  A    between atoms: C_14  and  O_15
REMARK    7  A    between atoms: N_17  and  C_19
REMARK    8  A    between atoms: C_19  and  C_20
REMARK    9  A    between atoms: C_20  and  C_21
REMARK   10  A    between atoms: O_23  and  C_24
REMARK                            x       y       z     vdW  Elec       q    Type
REMARK                         _______ _______ _______ _____ _____    ______ ____
ROOT
ATOM      1  C   UNL     1      35.479 -22.778 -15.698  0.00  0.00    +0.081 C 
ATOM      2  C   UNL     1      34.469 -23.209 -14.816  0.00  0.00    +0.177 C 
ATOM      3  C   UNL     1      33.197 -23.534 -15.286  0.00  0.00    +0.157 C 
ATOM      4  C   UNL     1      35.168 -22.685 -17.068  0.00  0.00    +0.024 C 
ATOM      5  C   UNL     1      33.896 -23.009 -17.539  0.00  0.00    +0.078 C 
ATOM      6  C   UNL     1      32.910 -23.434 -16.647  0.00  0.00    +0.030 C 
ENDROOT
BRANCH   3   7
ATOM      7  S   UNL     1      31.943 -24.070 -14.191  0.00  0.00    +0.060 S 
ATOM      8  O   UNL     1      30.653 -23.822 -14.817  0.00  0.00    -0.153 OA
ATOM      9  O   UNL     1      32.280 -25.408 -13.727  0.00  0.00    -0.153 OA
BRANCH   7  10
ATOM     10  N   UNL     1      32.152 -22.971 -12.900  0.00  0.00    -0.203 NA
ATOM     11  H   UNL     1      33.098 -22.588 -12.930  0.00  0.00    +0.144 HD
ATOM     12  H   UNL     1      32.010 -23.455 -12.014  0.00  0.00    +0.144 HD
ENDBRANCH   7  10
ENDBRANCH   3   7
BRANCH   5  14
ATOM     13  O   UNL     1      32.982 -21.975 -19.493  0.00  0.00    -0.245 OA
ATOM     14  C   UNL     1      33.597 -22.904 -18.958  0.00  0.00    +0.338 C 
BRANCH  14  15
ATOM     15  O   UNL     1      34.074 -23.962 -19.671  0.00  0.00    -0.477 OA
ATOM     16  H   UNL     1      34.006 -23.965 -20.604  0.00  0.00    +0.295 HD
ENDBRANCH  14  15
ENDBRANCH   5  14
BRANCH   1  17
ATOM     17  N   UNL     1      36.749 -22.452 -15.246  0.00  0.00    -0.330 N 
ATOM     18  H   UNL     1      36.826 -21.961 -14.396  0.00  0.00    +0.147 HD
BRANCH  17  19
ATOM     19  C   UNL     1      37.962 -22.790 -15.950  0.00  0.00    +0.087 C 
BRANCH  19  20
ATOM     20  C   UNL     1      38.381 -24.227 -15.646  0.00  0.00    +0.021 C 
BRANCH  20  21
ATOM     21  C   UNL     1      39.788 -24.316 -15.050  0.00  0.00    +0.002 C 
ATOM     22  C   UNL     1      40.285 -25.753 -15.012  0.00  0.00    +0.000 C 
ENDBRANCH  20  21
ENDBRANCH  19  20
ENDBRANCH  17  19
ENDBRANCH   1  17
BRANCH   2  23
ATOM     23  O   UNL     1      34.752 -23.306 -13.485  0.00  0.00    -0.451 OA
BRANCH  23  24
ATOM     24  C   UNL     1      35.789 -24.141 -13.109  0.00  0.00    +0.145 C 
ATOM     25  C   UNL     1      36.760 -23.666 -12.246  0.00  0.00    +0.037 C 
ATOM     26  C   UNL     1      35.829 -25.432 -13.607  0.00  0.00    +0.037 C 
ATOM     27  C   UNL     1      37.806 -24.509 -11.868  0.00  0.00    +0.003 C 
ATOM     28  C   UNL     1      36.876 -26.274 -13.230  0.00  0.00    +0.003 C 
ATOM     29  C   UNL     1      37.864 -25.812 -12.360  0.00  0.00    +0.000 C 
ENDBRANCH  23  24
ENDBRANCH   2  23
TORSDOF 10
ENDMDL
MODEL 5
REMARK VINA RESULT:      -7.8     12.011     14.255
REMARK  Name = 2471
REMARK  10 active torsions:
REMARK  status: ('A' for Active; 'I' for Inactive)
REMARK    1  A    between atoms: C_1  and  N_17
REMARK    2  A    between atoms: C_2  and  O_23
REMARK    3  A    between atoms: C_3  and  S_7
REMARK    4  A    between atoms: C_5  and  C_14
REMARK    5  A    between atoms: S_7  and  N_10
REMARK    6  A    between atoms: C_14  and  O_15
REMARK    7  A    between atoms: N_17  and  C_19
REMARK    8  A    between atoms: C_19  and  C_20
REMARK    9  A    between atoms: C_20  and  C_21
REMARK   10  A    between atoms: O_23  and  C_24
REMARK                            x       y       z     vdW  Elec       q    Type
REMARK                         _______ _______ _______ _____ _____    ______ ____
ROOT
ATOM      1  C   UNL     1      33.683 -14.066 -22.411  0.00  0.00    +0.081 C 
ATOM      2  C   UNL     1      33.253 -13.874 -23.739  0.00  0.00    +0.177 C 
ATOM      3  C   UNL     1      33.512 -14.831 -24.720  0.00  0.00    +0.157 C 
ATOM      4  C   UNL     1      34.380 -15.250 -22.103  0.00  0.00    +0.024 C 
ATOM      5  C   UNL     1      34.638 -16.206 -23.085  0.00  0.00    +0.078 C 
ATOM      6  C   UNL     1      34.204 -15.996 -24.394  0.00  0.00    +0.030 C 
ENDROOT
BRANCH   3   7
ATOM      7  S   UNL     1      32.978 -14.594 -26.369  0.00  0.00    +0.060 S 
ATOM      8  O   UNL     1      31.831 -13.699 -26.354  0.00  0.00    -0.153 OA
ATOM      9  O   UNL     1      34.139 -14.272 -27.186  0.00  0.00    -0.153 OA
BRANCH   7  10
ATOM     10  N   UNL     1      32.446 -16.168 -26.765  0.00  0.00    -0.203 NA
ATOM     11  H   UNL     1      31.430 -16.215 -26.679  0.00  0.00    +0.144 HD
ATOM     12  H   UNL     1      32.872 -16.841 -26.128  0.00  0.00    +0.144 HD
ENDBRANCH   7  10
ENDBRANCH   3   7
BRANCH   5  14
ATOM     13  O   UNL     1      35.624 -17.801 -21.598  0.00  0.00    -0.245 OA
ATOM     14  C   UNL     1      35.361 -17.422 -22.744  0.00  0.00    +0.338 C 
BRANCH  14  15
ATOM     15  O   UNL     1      35.735 -18.131 -23.844  0.00  0.00    -0.477 OA
ATOM     16  H   UNL     1      35.625 -19.060 -23.862  0.00  0.00    +0.295 HD
ENDBRANCH  14  15
ENDBRANCH   5  14
BRANCH   1  17
ATOM     17  N   UNL     1      33.434 -13.125 -21.424  0.00  0.00    -0.330 N 
ATOM     18  H   UNL     1      34.065 -12.376 -21.327  0.00  0.00    +0.147 HD
BRANCH  17  19
ATOM     19  C   UNL     1      32.303 -13.181 -20.529  0.00  0.00    +0.087 C 
BRANCH  19  20
ATOM     20  C   UNL     1      31.483 -11.896 -20.613  0.00  0.00    +0.021 C 
BRANCH  20  21
ATOM     21  C   UNL     1      31.543 -11.073 -19.324  0.00  0.00    +0.002 C 
ATOM     22  C   UNL     1      31.922  -9.627 -19.605  0.00  0.00    +0.000 C 
ENDBRANCH  20  21
ENDBRANCH  19  20
ENDBRANCH  17  19
ENDBRANCH   1  17
BRANCH   2  23
ATOM     23  O   UNL     1      32.577 -12.733 -24.056  0.00  0.00    -0.451 OA
BRANCH  23  24
ATOM     24  C   UNL     1      33.309 -11.563 -24.158  0.00  0.00    +0.145 C 
ATOM     25  C   UNL     1      34.383 -11.512 -25.028  0.00  0.00    +0.037 C 
ATOM     26  C   UNL     1      32.949 -10.473 -23.385  0.00  0.00    +0.037 C 
ATOM     27  C   UNL     1      35.121 -10.332 -25.130  0.00  0.00    +0.003 C 
ATOM     28  C   UNL     1      33.688  -9.294 -23.486  0.00  0.00    +0.003 C 
ATOM     29  C   UNL     1      34.774  -9.224 -24.359  0.00  0.00    +0.000 C 
ENDBRANCH  23  24
ENDBRANCH   2  23
TORSDOF 10
ENDMDL
MODEL 6
REMARK VINA RESULT:      -7.6      3.232      6.885
REMARK  Name = 2471
REMARK  10 active torsions:
REMARK  status: ('A' for Active; 'I' for Inactive)
REMARK    1  A    between atoms: C_1  and  N_17
REMARK    2  A    between atoms: C_2  and  O_23
REMARK    3  A    between atoms: C_3  and  S_7
REMARK    4  A    between atoms: C_5  and  C_14
REMARK    5  A    between atoms: S_7  and  N_10
REMARK    6  A    between atoms: C_14  and  O_15
REMARK    7  A    between atoms: N_17  and  C_19
REMARK    8  A    between atoms: C_19  and  C_20
REMARK    9  A    between atoms: C_20  and  C_21
REMARK   10  A    between atoms: O_23  and  C_24
REMARK                            x       y       z     vdW  Elec       q    Type
REMARK                         _______ _______ _______ _____ _____    ______ ____
ROOT
ATOM      1  C   UNL     1      36.745 -23.430 -15.394  0.00  0.00    +0.081 C 
ATOM      2  C   UNL     1      36.111 -23.453 -14.136  0.00  0.00    +0.177 C 
ATOM      3  C   UNL     1      36.675 -24.141 -13.062  0.00  0.00    +0.157 C 
ATOM      4  C   UNL     1      37.963 -24.122 -15.536  0.00  0.00    +0.024 C 
ATOM      5  C   UNL     1      38.527 -24.810 -14.461  0.00  0.00    +0.078 C 
ATOM      6  C   UNL     1      37.882 -24.819 -13.224  0.00  0.00    +0.030 C 
ENDROOT
BRANCH   3   7
ATOM      7  S   UNL     1      35.889 -24.168 -11.499  0.00  0.00    +0.060 S 
ATOM      8  O   UNL     1      34.609 -23.486 -11.619  0.00  0.00    -0.153 OA
ATOM      9  O   UNL     1      35.942 -25.528 -10.982  0.00  0.00    -0.153 OA
BRANCH   7  10
ATOM     10  N   UNL     1      36.953 -23.191 -10.587  0.00  0.00    -0.203 NA
ATOM     11  H   UNL     1      37.103 -23.616  -9.671  0.00  0.00    +0.144 HD
ATOM     12  H   UNL     1      36.547 -22.263 -10.469  0.00  0.00    +0.144 HD
ENDBRANCH   7  10
ENDBRANCH   3   7
BRANCH   5  14
ATOM     13  O   UNL     1      40.902 -24.991 -14.692  0.00  0.00    -0.245 OA
ATOM     14  C   UNL     1      39.786 -25.518 -14.632  0.00  0.00    +0.338 C 
BRANCH  14  15
ATOM     15  O   UNL     1      39.617 -26.866 -14.722  0.00  0.00    -0.477 OA
ATOM     16  H   UNL     1      38.756 -27.226 -14.801  0.00  0.00    +0.295 HD
ENDBRANCH  14  15
ENDBRANCH   5  14
BRANCH   1  17
ATOM     17  N   UNL     1      36.198 -22.751 -16.471  0.00  0.00    -0.330 N 
ATOM     18  H   UNL     1      35.306 -23.025 -16.788  0.00  0.00    +0.147 HD
BRANCH  17  19
ATOM     19  C   UNL     1      36.859 -21.667 -17.155  0.00  0.00    +0.087 C 
BRANCH  19  20
ATOM     20  C   UNL     1      36.415 -21.596 -18.615  0.00  0.00    +0.021 C 
BRANCH  20  21
ATOM     21  C   UNL     1      34.950 -21.997 -18.805  0.00  0.00    +0.002 C 
ATOM     22  C   UNL     1      34.256 -21.099 -19.818  0.00  0.00    +0.000 C 
ENDBRANCH  20  21
ENDBRANCH  19  20
ENDBRANCH  17  19
ENDBRANCH   1  17
BRANCH   2  23
ATOM     23  O   UNL     1      34.930 -22.789 -13.979  0.00  0.00    -0.451 OA
BRANCH  23  24
ATOM     24  C   UNL     1      33.790 -23.382 -14.493  0.00  0.00    +0.145 C 
ATOM     25  C   UNL     1      33.256 -22.904 -15.676  0.00  0.00    +0.037 C 
ATOM     26  C   UNL     1      33.211 -24.436 -13.808  0.00  0.00    +0.037 C 
ATOM     27  C   UNL     1      32.105 -23.501 -16.194  0.00  0.00    +0.003 C 
ATOM     28  C   UNL     1      32.060 -25.032 -14.325  0.00  0.00    +0.003 C 
ATOM     29  C   UNL     1      31.508 -24.565 -15.518  0.00  0.00    +0.000 C 
ENDBRANCH  23  24
ENDBRANCH   2  23
TORSDOF 10
ENDMDL
MODEL 7
REMARK VINA RESULT:      -7.4      2.980      6.417
REMARK  Name = 2471
REMARK  10 active torsions:
REMARK  status: ('A' for Active; 'I' for Inactive)
REMARK    1  A    between atoms: C_1  and  N_17
REMARK    2  A    between atoms: C_2  and  O_23
REMARK    3  A    between atoms: C_3  and  S_7
REMARK    4  A    between atoms: C_5  and  C_14
REMARK    5  A    between atoms: S_7  and  N_10
REMARK    6  A    between atoms: C_14  and  O_15
REMARK    7  A    between atoms: N_17  and  C_19
REMARK    8  A    between atoms: C_19  and  C_20
REMARK    9  A    between atoms: C_20  and  C_21
REMARK   10  A    between atoms: O_23  and  C_24
REMARK                            x       y       z     vdW  Elec       q    Type
REMARK                         _______ _______ _______ _____ _____    ______ ____
ROOT
ATOM      1  C   UNL     1      34.071 -23.487 -16.552  0.00  0.00    +0.081 C 
ATOM      2  C   UNL     1      34.713 -24.004 -15.410  0.00  0.00    +0.177 C 
ATOM      3  C   UNL     1      36.024 -23.643 -15.099  0.00  0.00    +0.157 C 
ATOM      4  C   UNL     1      34.790 -22.594 -17.370  0.00  0.00    +0.024 C 
ATOM      5  C   UNL     1      36.101 -22.233 -17.059  0.00  0.00    +0.078 C 
ATOM      6  C   UNL     1      36.718 -22.758 -15.924  0.00  0.00    +0.030 C 
ENDROOT
BRANCH   3   7
ATOM      7  S   UNL     1      36.821 -24.285 -13.681  0.00  0.00    +0.060 S 
ATOM      8  O   UNL     1      38.252 -24.057 -13.818  0.00  0.00    -0.153 OA
ATOM      9  O   UNL     1      36.119 -23.803 -12.501  0.00  0.00    -0.153 OA
BRANCH   7  10
ATOM     10  N   UNL     1      36.507 -25.955 -13.864  0.00  0.00    -0.203 NA
ATOM     11  H   UNL     1      35.695 -26.211 -13.301  0.00  0.00    +0.144 HD
ATOM     12  H   UNL     1      37.318 -26.489 -13.553  0.00  0.00    +0.144 HD
ENDBRANCH   7  10
ENDBRANCH   3   7
BRANCH   5  14
ATOM     13  O   UNL     1      36.865 -21.365 -19.154  0.00  0.00    -0.245 OA
ATOM     14  C   UNL     1      36.824 -21.311 -17.920  0.00  0.00    +0.338 C 
BRANCH  14  15
ATOM     15  O   UNL     1      37.477 -20.345 -17.216  0.00  0.00    -0.477 OA
ATOM     16  H   UNL     1      37.463 -19.458 -17.515  0.00  0.00    +0.295 HD
ENDBRANCH  14  15
ENDBRANCH   5  14
BRANCH   1  17
ATOM     17  N   UNL     1      32.769 -23.836 -16.875  0.00  0.00    -0.330 N 
ATOM     18  H   UNL     1      32.558 -24.792 -16.982  0.00  0.00    +0.147 HD
BRANCH  17  19
ATOM     19  C   UNL     1      31.706 -22.879 -17.063  0.00  0.00    +0.087 C 
BRANCH  19  20
ATOM     20  C   UNL     1      30.361 -23.477 -16.655  0.00  0.00    +0.021 C 
BRANCH  20  21
ATOM     21  C   UNL     1      29.343 -22.413 -16.239  0.00  0.00    +0.002 C 
ATOM     22  C   UNL     1      28.014 -23.038 -15.847  0.00  0.00    +0.000 C 
ENDBRANCH  20  21
ENDBRANCH  19  20
ENDBRANCH  17  19
ENDBRANCH   1  17
BRANCH   2  23
ATOM     23  O   UNL     1      34.033 -24.871 -14.606  0.00  0.00    -0.451 OA
BRANCH  23  24
ATOM     24  C   UNL     1      32.847 -24.428 -14.046  0.00  0.00    +0.145 C 
ATOM     25  C   UNL     1      32.751 -23.116 -13.618  0.00  0.00    +0.037 C 
ATOM     26  C   UNL     1      31.787 -25.310 -13.926  0.00  0.00    +0.037 C 
ATOM     27  C   UNL     1      31.556 -22.670 -13.053  0.00  0.00    +0.003 C 
ATOM     28  C   UNL     1      30.593 -24.864 -13.360  0.00  0.00    +0.003 C 
ATOM     29  C   UNL     1      30.477 -23.544 -12.924  0.00  0.00    +0.000 C 
ENDBRANCH  23  24
ENDBRANCH   2  23
TORSDOF 10
ENDMDL
MODEL 8
REMARK VINA RESULT:      -7.4     11.949     14.029
REMARK  Name = 2471
REMARK  10 active torsions:
REMARK  status: ('A' for Active; 'I' for Inactive)
REMARK    1  A    between atoms: C_1  and  N_17
REMARK    2  A    between atoms: C_2  and  O_23
REMARK    3  A    between atoms: C_3  and  S_7
REMARK    4  A    between atoms: C_5  and  C_14
REMARK    5  A    between atoms: S_7  and  N_10
REMARK    6  A    between atoms: C_14  and  O_15
REMARK    7  A    between atoms: N_17  and  C_19
REMARK    8  A    between atoms: C_19  and  C_20
REMARK    9  A    between atoms: C_20  and  C_21
REMARK   10  A    between atoms: O_23  and  C_24
REMARK                            x       y       z     vdW  Elec       q    Type
REMARK                         _______ _______ _______ _____ _____    ______ ____
ROOT
ATOM      1  C   UNL     1      33.697 -12.529 -23.471  0.00  0.00    +0.081 C 
ATOM      2  C   UNL     1      33.872 -13.690 -22.693  0.00  0.00    +0.177 C 
ATOM      3  C   UNL     1      33.032 -13.962 -21.613  0.00  0.00    +0.157 C 
ATOM      4  C   UNL     1      32.652 -11.651 -23.127  0.00  0.00    +0.024 C 
ATOM      5  C   UNL     1      31.812 -11.923 -22.047  0.00  0.00    +0.078 C 
ATOM      6  C   UNL     1      32.003 -13.079 -21.290  0.00  0.00    +0.030 C 
ENDROOT
BRANCH   3   7
ATOM      7  S   UNL     1      33.248 -15.404 -20.647  0.00  0.00    +0.060 S 
ATOM      8  O   UNL     1      32.502 -15.241 -19.409  0.00  0.00    -0.153 OA
ATOM      9  O   UNL     1      33.008 -16.564 -21.492  0.00  0.00    -0.153 OA
BRANCH   7  10
ATOM     10  N   UNL     1      34.919 -15.313 -20.301  0.00  0.00    -0.203 NA
ATOM     11  H   UNL     1      35.335 -16.241 -20.388  0.00  0.00    +0.144 HD
ATOM     12  H   UNL     1      35.052 -14.968 -19.351  0.00  0.00    +0.144 HD
ENDBRANCH   7  10
ENDBRANCH   3   7
BRANCH   5  14
ATOM     13  O   UNL     1      29.984 -11.106 -20.738  0.00  0.00    -0.245 OA
ATOM     14  C   UNL     1      30.739 -11.001 -21.710  0.00  0.00    +0.338 C 
BRANCH  14  15
ATOM     15  O   UNL     1      30.639  -9.972 -22.596  0.00  0.00    -0.477 OA
ATOM     16  H   UNL     1      29.898  -9.916 -23.166  0.00  0.00    +0.295 HD
ENDBRANCH  14  15
ENDBRANCH   5  14
BRANCH   1  17
ATOM     17  N   UNL     1      34.523 -12.245 -24.547  0.00  0.00    -0.330 N 
ATOM     18  H   UNL     1      35.316 -12.812 -24.686  0.00  0.00    +0.147 HD
BRANCH  17  19
ATOM     19  C   UNL     1      34.287 -11.165 -25.475  0.00  0.00    +0.087 C 
BRANCH  19  20
ATOM     20  C   UNL     1      35.283 -10.030 -25.249  0.00  0.00    +0.021 C 
BRANCH  20  21
ATOM     21  C   UNL     1      34.937  -9.176 -24.027  0.00  0.00    +0.002 C 
ATOM     22  C   UNL     1      34.605  -7.747 -24.424  0.00  0.00    +0.000 C 
ENDBRANCH  20  21
ENDBRANCH  19  20
ENDBRANCH  17  19
ENDBRANCH   1  17
BRANCH   2  23
ATOM     23  O   UNL     1      34.880 -14.553 -23.010  0.00  0.00    -0.451 OA
BRANCH  23  24
ATOM     24  C   UNL     1      34.581 -15.602 -23.860  0.00  0.00    +0.145 C 
ATOM     25  C   UNL     1      33.692 -15.396 -24.900  0.00  0.00    +0.037 C 
ATOM     26  C   UNL     1      35.177 -16.833 -23.649  0.00  0.00    +0.037 C 
ATOM     27  C   UNL     1      33.390 -16.455 -25.757  0.00  0.00    +0.003 C 
ATOM     28  C   UNL     1      34.874 -17.892 -24.505  0.00  0.00    +0.003 C 
ATOM     29  C   UNL     1      33.981 -17.703 -25.560  0.00  0.00    +0.000 C 
ENDBRANCH  23  24
ENDBRANCH   2  23
TORSDOF 10
ENDMDL
MODEL 9
REMARK VINA RESULT:      -7.3     12.417     14.546
REMARK  Name = 2471
REMARK  10 active torsions:
REMARK  status: ('A' for Active; 'I' for Inactive)
REMARK    1  A    between atoms: C_1  and  N_17
REMARK    2  A    between atoms: C_2  and  O_23
REMARK    3  A    between atoms: C_3  and  S_7
REMARK    4  A    between atoms: C_5  and  C_14
REMARK    5  A    between atoms: S_7  and  N_10
REMARK    6  A    between atoms: C_14  and  O_15
REMARK    7  A    between atoms: N_17  and  C_19
REMARK    8  A    between atoms: C_19  and  C_20
REMARK    9  A    between atoms: C_20  and  C_21
REMARK   10  A    between atoms: O_23  and  C_24
REMARK                            x       y       z     vdW  Elec       q    Type
REMARK                         _______ _______ _______ _____ _____    ______ ____
ROOT
ATOM      1  C   UNL     1      32.797 -13.052 -22.020  0.00  0.00    +0.081 C 
ATOM      2  C   UNL     1      32.820 -13.104 -23.427  0.00  0.00    +0.177 C 
ATOM      3  C   UNL     1      33.296 -14.232 -24.095  0.00  0.00    +0.157 C 
ATOM      4  C   UNL     1      33.268 -14.171 -21.306  0.00  0.00    +0.024 C 
ATOM      5  C   UNL     1      33.743 -15.299 -21.974  0.00  0.00    +0.078 C 
ATOM      6  C   UNL     1      33.757 -15.330 -23.369  0.00  0.00    +0.030 C 
ENDROOT
BRANCH   3   7
ATOM      7  S   UNL     1      33.323 -14.297 -25.843  0.00  0.00    +0.060 S 
ATOM      8  O   UNL     1      31.949 -14.318 -26.321  0.00  0.00    -0.153 OA
ATOM      9  O   UNL     1      34.245 -13.280 -26.326  0.00  0.00    -0.153 OA
BRANCH   7  10
ATOM     10  N   UNL     1      34.021 -15.836 -26.096  0.00  0.00    -0.203 NA
ATOM     11  H   UNL     1      34.963 -15.851 -25.703  0.00  0.00    +0.144 HD
ATOM     12  H   UNL     1      34.067 -16.029 -27.096  0.00  0.00    +0.144 HD
ENDBRANCH   7  10
ENDBRANCH   3   7
BRANCH   5  14
ATOM     13  O   UNL     1      33.966 -17.627 -21.464  0.00  0.00    -0.245 OA
ATOM     14  C   UNL     1      34.225 -16.444 -21.217  0.00  0.00    +0.338 C 
BRANCH  14  15
ATOM     15  O   UNL     1      35.016 -16.080 -20.170  0.00  0.00    -0.477 OA
ATOM     16  H   UNL     1      35.027 -15.190 -19.879  0.00  0.00    +0.295 HD
ENDBRANCH  14  15
ENDBRANCH   5  14
BRANCH   1  17
ATOM     17  N   UNL     1      32.329 -11.938 -21.341  0.00  0.00    -0.330 N 
ATOM     18  H   UNL     1      32.586 -11.048 -21.675  0.00  0.00    +0.147 HD
BRANCH  17  19
ATOM     19  C   UNL     1      31.485 -12.008 -20.173  0.00  0.00    +0.087 C 
BRANCH  19  20
ATOM     20  C   UNL     1      31.084 -10.608 -19.710  0.00  0.00    +0.021 C 
BRANCH  20  21
ATOM     21  C   UNL     1      32.289  -9.689 -19.501  0.00  0.00    +0.002 C 
ATOM     22  C   UNL     1      32.020  -8.290 -20.034  0.00  0.00    +0.000 C 
ENDBRANCH  20  21
ENDBRANCH  19  20
ENDBRANCH  17  19
ENDBRANCH   1  17
BRANCH   2  23
ATOM     23  O   UNL     1      32.370 -12.028 -24.135  0.00  0.00    -0.451 OA
BRANCH  23  24
ATOM     24  C   UNL     1      33.104 -10.858 -24.059  0.00  0.00    +0.145 C 
ATOM     25  C   UNL     1      32.527  -9.735 -23.494  0.00  0.00    +0.037 C 
ATOM     26  C   UNL     1      34.397 -10.839 -24.552  0.00  0.00    +0.037 C 
ATOM     27  C   UNL     1      33.267  -8.554 -23.418  0.00  0.00    +0.003 C 
ATOM     28  C   UNL     1      35.136  -9.659 -24.477  0.00  0.00    +0.003 C 
ATOM     29  C   UNL     1      34.571  -8.517 -23.909  0.00  0.00    +0.000 C 
ENDBRANCH  23  24
ENDBRANCH   2  23
TORSDOF 10
ENDMDL
