MODEL 1
REMARK VINA RESULT:      -8.0      0.000      0.000
REMARK  Name = 3435
REMARK  4 active torsions:
REMARK  status: ('A' for Active; 'I' for Inactive)
REMARK    1  A    between atoms: C_2  and  C_10
REMARK    2  A    between atoms: C_4  and  N_8
REMARK    3  A    between atoms: N_9  and  C_10
REMARK    4  A    between atoms: N_9  and  N_13
REMARK                            x       y       z     vdW  Elec       q    Type
REMARK                         _______ _______ _______ _____ _____    ______ ____
ROOT
ATOM      1  O   UNL     1      35.192 -22.934 -17.143  0.00  0.00    -0.436 OA
ATOM      2  C   UNL     1      36.333 -22.426 -16.646  0.00  0.00    +0.144 C 
ATOM      3  C   UNL     1      36.949 -21.581 -17.509  0.00  0.00    +0.040 C 
ATOM      4  C   UNL     1      35.065 -22.394 -18.384  0.00  0.00    +0.289 C 
ATOM      5  C   UNL     1      36.120 -21.556 -18.656  0.00  0.00    +0.066 C 
ENDROOT
BRANCH   4   8
ATOM      6  O   UNL     1      33.916 -23.912 -19.680  0.00  0.00    -0.123 OA
ATOM      7  O   UNL     1      32.928 -22.018 -19.156  0.00  0.00    -0.123 OA
ATOM      8  N   UNL     1      33.931 -22.788 -19.098  0.00  0.00    +0.093 N 
ENDBRANCH   4   8
BRANCH   2   9
ATOM      9  C   UNL     1      36.709 -22.848 -15.307  0.00  0.00    +0.176 C 
BRANCH   9  10
ATOM     10  N   UNL     1      37.899 -23.277 -15.032  0.00  0.00    -0.117 NA
BRANCH  10  13
ATOM     11  O   UNL     1      38.878 -26.619 -14.624  0.00  0.00    -0.432 OA
ATOM     12  O   UNL     1      40.287 -24.821 -14.774  0.00  0.00    -0.225 OA
ATOM     13  N   UNL     1      37.965 -24.602 -14.856  0.00  0.00    -0.169 N 
ATOM     14  C   UNL     1      36.843 -25.472 -14.901  0.00  0.00    +0.164 C 
ATOM     15  C   UNL     1      37.455 -26.783 -14.464  0.00  0.00    +0.233 C 
ATOM     16  C   UNL     1      39.153 -25.279 -14.751  0.00  0.00    +0.420 C 
ENDBRANCH  10  13
ENDBRANCH   9  10
ENDBRANCH   2   9
TORSDOF 4
ENDMDL
MODEL 2
REMARK VINA RESULT:      -7.9      5.363      9.290
REMARK  Name = 3435
REMARK  4 active torsions:
REMARK  status: ('A' for Active; 'I' for Inactive)
REMARK    1  A    between atoms: C_2  and  C_10
REMARK    2  A    between atoms: C_4  and  N_8
REMARK    3  A    between atoms: N_9  and  C_10
REMARK    4  A    between atoms: N_9  and  N_13
REMARK                            x       y       z     vdW  Elec       q    Type
REMARK                         _______ _______ _______ _____ _____    ______ ____
ROOT
ATOM      1  O   UNL     1      35.319 -20.530 -20.388  0.00  0.00    -0.436 OA
ATOM      2  C   UNL     1      34.791 -19.465 -21.016  0.00  0.00    +0.144 C 
ATOM      3  C   UNL     1      33.440 -19.415 -20.913  0.00  0.00    +0.040 C 
ATOM      4  C   UNL     1      34.262 -21.198 -19.856  0.00  0.00    +0.289 C 
ATOM      5  C   UNL     1      33.084 -20.553 -20.151  0.00  0.00    +0.066 C 
ENDROOT
BRANCH   4   8
ATOM      6  O   UNL     1      33.989 -23.443 -19.421  0.00  0.00    -0.123 OA
ATOM      7  O   UNL     1      35.455 -22.314 -18.234  0.00  0.00    -0.123 OA
ATOM      8  N   UNL     1      34.579 -22.358 -19.145  0.00  0.00    +0.093 N 
ENDBRANCH   4   8
BRANCH   2   9
ATOM      9  C   UNL     1      35.722 -18.568 -21.681  0.00  0.00    +0.176 C 
BRANCH   9  10
ATOM     10  N   UNL     1      35.716 -18.403 -22.964  0.00  0.00    -0.117 NA
BRANCH  10  13
ATOM     11  O   UNL     1      34.000 -15.902 -24.723  0.00  0.00    -0.432 OA
ATOM     12  O   UNL     1      34.578 -17.958 -25.546  0.00  0.00    -0.225 OA
ATOM     13  N   UNL     1      35.068 -17.300 -23.361  0.00  0.00    -0.169 N 
ATOM     14  C   UNL     1      34.961 -16.114 -22.587  0.00  0.00    +0.164 C 
ATOM     15  C   UNL     1      34.000 -15.294 -23.416  0.00  0.00    +0.233 C 
ATOM     16  C   UNL     1      34.557 -17.154 -24.625  0.00  0.00    +0.420 C 
ENDBRANCH  10  13
ENDBRANCH   9  10
ENDBRANCH   2   9
TORSDOF 4
ENDMDL
MODEL 3
REMARK VINA RESULT:      -7.9      1.022      1.758
REMARK  Name = 3435
REMARK  4 active torsions:
REMARK  status: ('A' for Active; 'I' for Inactive)
REMARK    1  A    between atoms: C_2  and  C_10
REMARK    2  A    between atoms: C_4  and  N_8
REMARK    3  A    between atoms: N_9  and  C_10
REMARK    4  A    between atoms: N_9  and  N_13
REMARK                            x       y       z     vdW  Elec       q    Type
REMARK                         _______ _______ _______ _____ _____    ______ ____
ROOT
ATOM      1  O   UNL     1      35.047 -23.002 -17.131  0.00  0.00    -0.436 OA
ATOM      2  C   UNL     1      36.168 -22.548 -16.542  0.00  0.00    +0.144 C 
ATOM      3  C   UNL     1      36.878 -21.716 -17.343  0.00  0.00    +0.040 C 
ATOM      4  C   UNL     1      35.032 -22.439 -18.367  0.00  0.00    +0.289 C 
ATOM      5  C   UNL     1      36.137 -21.640 -18.547  0.00  0.00    +0.066 C 
ENDROOT
BRANCH   4   8
ATOM      6  O   UNL     1      32.983 -21.958 -19.299  0.00  0.00    -0.123 OA
ATOM      7  O   UNL     1      33.916 -23.896 -19.757  0.00  0.00    -0.123 OA
ATOM      8  N   UNL     1      33.939 -22.776 -19.168  0.00  0.00    +0.093 N 
ENDBRANCH   4   8
BRANCH   2   9
ATOM      9  C   UNL     1      36.428 -23.006 -15.187  0.00  0.00    +0.176 C 
BRANCH   9  10
ATOM     10  N   UNL     1      36.100 -24.193 -14.790  0.00  0.00    -0.117 NA
BRANCH  10  13
ATOM     11  O   UNL     1      38.341 -26.890 -14.784  0.00  0.00    -0.432 OA
ATOM     12  O   UNL     1      36.280 -26.866 -15.780  0.00  0.00    -0.225 OA
ATOM     13  N   UNL     1      37.144 -25.019 -14.645  0.00  0.00    -0.169 N 
ATOM     14  C   UNL     1      38.287 -24.731 -13.851  0.00  0.00    +0.164 C 
ATOM     15  C   UNL     1      39.194 -25.891 -14.191  0.00  0.00    +0.233 C 
ATOM     16  C   UNL     1      37.153 -26.297 -15.139  0.00  0.00    +0.420 C 
ENDBRANCH  10  13
ENDBRANCH   9  10
ENDBRANCH   2   9
TORSDOF 4
ENDMDL
MODEL 4
REMARK VINA RESULT:      -7.8      4.958      8.649
REMARK  Name = 3435
REMARK  4 active torsions:
REMARK  status: ('A' for Active; 'I' for Inactive)
REMARK    1  A    between atoms: C_2  and  C_10
REMARK    2  A    between atoms: C_4  and  N_8
REMARK    3  A    between atoms: N_9  and  C_10
REMARK    4  A    between atoms: N_9  and  N_13
REMARK                            x       y       z     vdW  Elec       q    Type
REMARK                         _______ _______ _______ _____ _____    ______ ____
ROOT
ATOM      1  O   UNL     1      35.003 -21.028 -20.092  0.00  0.00    -0.436 OA
ATOM      2  C   UNL     1      34.528 -19.925 -20.699  0.00  0.00    +0.144 C 
ATOM      3  C   UNL     1      33.182 -19.807 -20.589  0.00  0.00    +0.040 C 
ATOM      4  C   UNL     1      33.915 -21.649 -19.566  0.00  0.00    +0.289 C 
ATOM      5  C   UNL     1      32.771 -20.938 -19.844  0.00  0.00    +0.066 C 
ENDROOT
BRANCH   4   8
ATOM      6  O   UNL     1      33.940 -23.947 -19.434  0.00  0.00    -0.123 OA
ATOM      7  O   UNL     1      34.642 -22.789 -17.703  0.00  0.00    -0.123 OA
ATOM      8  N   UNL     1      34.174 -22.836 -18.877  0.00  0.00    +0.093 N 
ENDBRANCH   4   8
BRANCH   2   9
ATOM      9  C   UNL     1      35.502 -19.067 -21.353  0.00  0.00    +0.176 C 
BRANCH   9  10
ATOM     10  N   UNL     1      35.736 -17.862 -20.945  0.00  0.00    -0.117 NA
BRANCH  10  13
ATOM     11  O   UNL     1      34.303 -14.988 -22.354  0.00  0.00    -0.432 OA
ATOM     12  O   UNL     1      34.777 -15.297 -20.136  0.00  0.00    -0.225 OA
ATOM     13  N   UNL     1      35.240 -16.915 -21.752  0.00  0.00    -0.169 N 
ATOM     14  C   UNL     1      34.992 -17.097 -23.138  0.00  0.00    +0.164 C 
ATOM     15  C   UNL     1      34.624 -15.695 -23.569  0.00  0.00    +0.233 C 
ATOM     16  C   UNL     1      34.786 -15.707 -21.288  0.00  0.00    +0.420 C 
ENDBRANCH  10  13
ENDBRANCH   9  10
ENDBRANCH   2   9
TORSDOF 4
ENDMDL
MODEL 5
REMARK VINA RESULT:      -7.8      5.336      9.066
REMARK  Name = 3435
REMARK  4 active torsions:
REMARK  status: ('A' for Active; 'I' for Inactive)
REMARK    1  A    between atoms: C_2  and  C_10
REMARK    2  A    between atoms: C_4  and  N_8
REMARK    3  A    between atoms: N_9  and  C_10
REMARK    4  A    between atoms: N_9  and  N_13
REMARK                            x       y       z     vdW  Elec       q    Type
REMARK                         _______ _______ _______ _____ _____    ______ ____
ROOT
ATOM      1  O   UNL     1      35.260 -20.262 -20.770  0.00  0.00    -0.436 OA
ATOM      2  C   UNL     1      34.304 -19.573 -21.418  0.00  0.00    +0.144 C 
ATOM      3  C   UNL     1      33.063 -19.818 -20.931  0.00  0.00    +0.040 C 
ATOM      4  C   UNL     1      34.607 -20.984 -19.822  0.00  0.00    +0.289 C 
ATOM      5  C   UNL     1      33.254 -20.746 -19.881  0.00  0.00    +0.066 C 
ENDROOT
BRANCH   4   8
ATOM      6  O   UNL     1      36.647 -21.518 -18.896  0.00  0.00    -0.123 OA
ATOM      7  O   UNL     1      34.911 -22.778 -18.411  0.00  0.00    -0.123 OA
ATOM      8  N   UNL     1      35.416 -21.788 -19.016  0.00  0.00    +0.093 N 
ENDBRANCH   4   8
BRANCH   2   9
ATOM      9  C   UNL     1      34.741 -18.705 -22.500  0.00  0.00    +0.176 C 
BRANCH   9  10
ATOM     10  N   UNL     1      35.611 -17.765 -22.315  0.00  0.00    -0.117 NA
BRANCH  10  13
ATOM     11  O   UNL     1      34.235 -14.618 -21.608  0.00  0.00    -0.432 OA
ATOM     12  O   UNL     1      34.978 -16.131 -20.060  0.00  0.00    -0.225 OA
ATOM     13  N   UNL     1      35.087 -16.533 -22.356  0.00  0.00    -0.169 N 
ATOM     14  C   UNL     1      34.639 -15.894 -23.543  0.00  0.00    +0.164 C 
ATOM     15  C   UNL     1      34.331 -14.502 -23.042  0.00  0.00    +0.233 C 
ATOM     16  C   UNL     1      34.799 -15.811 -21.226  0.00  0.00    +0.420 C 
ENDBRANCH  10  13
ENDBRANCH   9  10
ENDBRANCH   2   9
TORSDOF 4
ENDMDL
MODEL 6
REMARK VINA RESULT:      -7.8      1.876      2.624
REMARK  Name = 3435
REMARK  4 active torsions:
REMARK  status: ('A' for Active; 'I' for Inactive)
REMARK    1  A    between atoms: C_2  and  C_10
REMARK    2  A    between atoms: C_4  and  N_8
REMARK    3  A    between atoms: N_9  and  C_10
REMARK    4  A    between atoms: N_9  and  N_13
REMARK                            x       y       z     vdW  Elec       q    Type
REMARK                         _______ _______ _______ _____ _____    ______ ____
ROOT
ATOM      1  O   UNL     1      34.679 -23.391 -16.893  0.00  0.00    -0.436 OA
ATOM      2  C   UNL     1      34.444 -23.603 -15.586  0.00  0.00    +0.144 C 
ATOM      3  C   UNL     1      33.128 -23.516 -15.271  0.00  0.00    +0.040 C 
ATOM      4  C   UNL     1      33.462 -23.157 -17.448  0.00  0.00    +0.289 C 
ATOM      5  C   UNL     1      32.475 -23.222 -16.492  0.00  0.00    +0.066 C 
ENDROOT
BRANCH   4   8
ATOM      6  O   UNL     1      32.851 -21.899 -19.277  0.00  0.00    -0.123 OA
ATOM      7  O   UNL     1      34.081 -23.692 -19.599  0.00  0.00    -0.123 OA
ATOM      8  N   UNL     1      33.465 -22.908 -18.822  0.00  0.00    +0.093 N 
ENDBRANCH   4   8
BRANCH   2   9
ATOM      9  C   UNL     1      35.599 -23.883 -14.749  0.00  0.00    +0.176 C 
BRANCH   9  10
ATOM     10  N   UNL     1      35.759 -25.025 -14.162  0.00  0.00    -0.117 NA
BRANCH  10  13
ATOM     11  O   UNL     1      38.749 -26.745 -14.795  0.00  0.00    -0.432 OA
ATOM     12  O   UNL     1      36.749 -27.106 -15.848  0.00  0.00    -0.225 OA
ATOM     13  N   UNL     1      37.019 -25.477 -14.200  0.00  0.00    -0.169 N 
ATOM     14  C   UNL     1      38.041 -25.072 -13.300  0.00  0.00    +0.164 C 
ATOM     15  C   UNL     1      39.259 -25.734 -13.903  0.00  0.00    +0.233 C 
ATOM     16  C   UNL     1      37.419 -26.491 -15.031  0.00  0.00    +0.420 C 
ENDBRANCH  10  13
ENDBRANCH   9  10
ENDBRANCH   2   9
TORSDOF 4
ENDMDL
MODEL 7
REMARK VINA RESULT:      -7.7      2.368      2.436
REMARK  Name = 3435
REMARK  4 active torsions:
REMARK  status: ('A' for Active; 'I' for Inactive)
REMARK    1  A    between atoms: C_2  and  C_10
REMARK    2  A    between atoms: C_4  and  N_8
REMARK    3  A    between atoms: N_9  and  C_10
REMARK    4  A    between atoms: N_9  and  N_13
REMARK                            x       y       z     vdW  Elec       q    Type
REMARK                         _______ _______ _______ _____ _____    ______ ____
ROOT
ATOM      1  O   UNL     1      35.320 -23.000 -17.040  0.00  0.00    -0.436 OA
ATOM      2  C   UNL     1      36.441 -22.746 -16.342  0.00  0.00    +0.144 C 
ATOM      3  C   UNL     1      37.243 -21.840 -16.954  0.00  0.00    +0.040 C 
ATOM      4  C   UNL     1      35.401 -22.224 -18.153  0.00  0.00    +0.289 C 
ATOM      5  C   UNL     1      36.566 -21.493 -18.147  0.00  0.00    +0.066 C 
ENDROOT
BRANCH   4   8
ATOM      6  O   UNL     1      33.958 -23.467 -19.447  0.00  0.00    -0.123 OA
ATOM      7  O   UNL     1      33.728 -21.280 -19.422  0.00  0.00    -0.123 OA
ATOM      8  N   UNL     1      34.326 -22.327 -19.038  0.00  0.00    +0.093 N 
ENDBRANCH   4   8
BRANCH   2   9
ATOM      9  C   UNL     1      36.606 -23.459 -15.086  0.00  0.00    +0.176 C 
BRANCH   9  10
ATOM     10  N   UNL     1      37.240 -22.942 -14.084  0.00  0.00    -0.117 NA
BRANCH  10  13
ATOM     11  O   UNL     1      37.004 -24.021 -10.756  0.00  0.00    -0.432 OA
ATOM     12  O   UNL     1      38.794 -22.940 -11.688  0.00  0.00    -0.225 OA
ATOM     13  N   UNL     1      36.859 -23.431 -12.897  0.00  0.00    -0.169 N 
ATOM     14  C   UNL     1      35.655 -24.153 -12.679  0.00  0.00    +0.164 C 
ATOM     15  C   UNL     1      35.651 -24.293 -11.174  0.00  0.00    +0.233 C 
ATOM     16  C   UNL     1      37.667 -23.405 -11.789  0.00  0.00    +0.420 C 
ENDBRANCH  10  13
ENDBRANCH   9  10
ENDBRANCH   2   9
TORSDOF 4
ENDMDL
MODEL 8
REMARK VINA RESULT:      -7.7      5.471      9.446
REMARK  Name = 3435
REMARK  4 active torsions:
REMARK  status: ('A' for Active; 'I' for Inactive)
REMARK    1  A    between atoms: C_2  and  C_10
REMARK    2  A    between atoms: C_4  and  N_8
REMARK    3  A    between atoms: N_9  and  C_10
REMARK    4  A    between atoms: N_9  and  N_13
REMARK                            x       y       z     vdW  Elec       q    Type
REMARK                         _______ _______ _______ _____ _____    ______ ____
ROOT
ATOM      1  O   UNL     1      34.010 -20.235 -20.588  0.00  0.00    -0.436 OA
ATOM      2  C   UNL     1      35.022 -19.435 -20.966  0.00  0.00    +0.144 C 
ATOM      3  C   UNL     1      36.229 -19.882 -20.540  0.00  0.00    +0.040 C 
ATOM      4  C   UNL     1      34.588 -21.245 -19.887  0.00  0.00    +0.289 C 
ATOM      5  C   UNL     1      35.952 -21.074 -19.828  0.00  0.00    +0.066 C 
ENDROOT
BRANCH   4   8
ATOM      6  O   UNL     1      34.042 -23.432 -19.419  0.00  0.00    -0.123 OA
ATOM      7  O   UNL     1      32.594 -21.857 -18.913  0.00  0.00    -0.123 OA
ATOM      8  N   UNL     1      33.711 -22.211 -19.389  0.00  0.00    +0.093 N 
ENDBRANCH   4   8
BRANCH   2   9
ATOM      9  C   UNL     1      34.672 -18.258 -21.745  0.00  0.00    +0.176 C 
BRANCH   9  10
ATOM     10  N   UNL     1      35.372 -17.878 -22.764  0.00  0.00    -0.117 NA
BRANCH  10  13
ATOM     11  O   UNL     1      33.956 -15.801 -25.210  0.00  0.00    -0.432 OA
ATOM     12  O   UNL     1      34.573 -17.986 -25.504  0.00  0.00    -0.225 OA
ATOM     13  N   UNL     1      34.809 -16.882 -23.461  0.00  0.00    -0.169 N 
ATOM     14  C   UNL     1      34.641 -15.560 -22.972  0.00  0.00    +0.164 C 
ATOM     15  C   UNL     1      33.813 -14.931 -24.070  0.00  0.00    +0.233 C 
ATOM     16  C   UNL     1      34.462 -17.005 -24.782  0.00  0.00    +0.420 C 
ENDBRANCH  10  13
ENDBRANCH   9  10
ENDBRANCH   2   9
TORSDOF 4
ENDMDL
MODEL 9
REMARK VINA RESULT:      -7.6      4.402      4.938
REMARK  Name = 3435
REMARK  4 active torsions:
REMARK  status: ('A' for Active; 'I' for Inactive)
REMARK    1  A    between atoms: C_2  and  C_10
REMARK    2  A    between atoms: C_4  and  N_8
REMARK    3  A    between atoms: N_9  and  C_10
REMARK    4  A    between atoms: N_9  and  N_13
REMARK                            x       y       z     vdW  Elec       q    Type
REMARK                         _______ _______ _______ _____ _____    ______ ____
ROOT
ATOM      1  O   UNL     1      32.431 -23.313 -15.349  0.00  0.00    -0.436 OA
ATOM      2  C   UNL     1      32.609 -24.041 -14.233  0.00  0.00    +0.144 C 
ATOM      3  C   UNL     1      31.455 -24.581 -13.772  0.00  0.00    +0.040 C 
ATOM      4  C   UNL     1      31.102 -23.385 -15.621  0.00  0.00    +0.289 C 
ATOM      5  C   UNL     1      30.457 -24.153 -14.680  0.00  0.00    +0.066 C 
ENDROOT
BRANCH   4   8
ATOM      6  O   UNL     1      29.448 -22.475 -16.940  0.00  0.00    -0.123 OA
ATOM      7  O   UNL     1      31.538 -22.280 -17.594  0.00  0.00    -0.123 OA
ATOM      8  N   UNL     1      30.682 -22.690 -16.757  0.00  0.00    +0.093 N 
ENDBRANCH   4   8
BRANCH   2   9
ATOM      9  C   UNL     1      33.966 -24.130 -13.719  0.00  0.00    +0.176 C 
BRANCH   9  10
ATOM     10  N   UNL     1      34.212 -24.408 -12.480  0.00  0.00    -0.117 NA
BRANCH  10  13
ATOM     11  O   UNL     1      37.187 -23.784 -10.731  0.00  0.00    -0.432 OA
ATOM     12  O   UNL     1      35.268 -24.657  -9.838  0.00  0.00    -0.225 OA
ATOM     13  N   UNL     1      35.456 -24.095 -12.095  0.00  0.00    -0.169 N 
ATOM     14  C   UNL     1      36.414 -23.459 -12.929  0.00  0.00    +0.164 C 
ATOM     15  C   UNL     1      37.655 -23.518 -12.068  0.00  0.00    +0.233 C 
ATOM     16  C   UNL     1      35.889 -24.231 -10.801  0.00  0.00    +0.420 C 
ENDBRANCH  10  13
ENDBRANCH   9  10
ENDBRANCH   2   9
TORSDOF 4
ENDMDL
