MODEL 1
REMARK VINA RESULT:      -5.8      0.000      0.000
REMARK  Name = 938
REMARK  2 active torsions:
REMARK  status: ('A' for Active; 'I' for Inactive)
REMARK    1  A    between atoms: C_2  and  C_8
REMARK    2  A    between atoms: C_8  and  O_9
REMARK                            x       y       z     vdW  Elec       q    Type
REMARK                         _______ _______ _______ _____ _____    ______ ____
ROOT
ATOM      1  N   UNL     1      35.557 -19.620 -20.683  0.00  0.00    -0.242 NA
ATOM      2  C   UNL     1      34.360 -21.417 -19.594  0.00  0.00    +0.095 C 
ATOM      3  C   UNL     1      33.149 -20.858 -19.987  0.00  0.00    +0.010 C 
ATOM      4  C   UNL     1      35.525 -20.765 -19.964  0.00  0.00    +0.105 C 
ATOM      5  C   UNL     1      33.140 -19.680 -20.728  0.00  0.00    +0.021 C 
ATOM      6  C   UNL     1      34.360 -19.106 -21.048  0.00  0.00    +0.099 C 
ENDROOT
BRANCH   2   8
ATOM      7  O   UNL     1      34.819 -22.749 -17.662  0.00  0.00    -0.245 OA
ATOM      8  C   UNL     1      34.401 -22.644 -18.820  0.00  0.00    +0.340 C 
BRANCH   8   9
ATOM      9  O   UNL     1      33.918 -23.714 -19.511  0.00  0.00    -0.477 OA
ATOM     10  H   UNL     1      33.728 -24.515 -19.062  0.00  0.00    +0.295 HD
ENDBRANCH   8   9
ENDBRANCH   2   8
TORSDOF 2
ENDMDL
MODEL 2
REMARK VINA RESULT:      -5.7      3.000      4.061
REMARK  Name = 938
REMARK  2 active torsions:
REMARK  status: ('A' for Active; 'I' for Inactive)
REMARK    1  A    between atoms: C_2  and  C_8
REMARK    2  A    between atoms: C_8  and  O_9
REMARK                            x       y       z     vdW  Elec       q    Type
REMARK                         _______ _______ _______ _____ _____    ______ ____
ROOT
ATOM      1  N   UNL     1      32.865 -21.634 -19.519  0.00  0.00    -0.242 NA
ATOM      2  C   UNL     1      34.487 -20.155 -20.532  0.00  0.00    +0.095 C 
ATOM      3  C   UNL     1      35.522 -20.885 -19.956  0.00  0.00    +0.010 C 
ATOM      4  C   UNL     1      33.188 -20.568 -20.285  0.00  0.00    +0.105 C 
ATOM      5  C   UNL     1      35.229 -21.989 -19.161  0.00  0.00    +0.021 C 
ATOM      6  C   UNL     1      33.897 -22.318 -18.976  0.00  0.00    +0.099 C 
ENDROOT
BRANCH   2   8
ATOM      7  O   UNL     1      34.429 -18.874 -22.550  0.00  0.00    -0.245 OA
ATOM      8  C   UNL     1      34.761 -18.999 -21.366  0.00  0.00    +0.340 C 
BRANCH   8   9
ATOM      9  O   UNL     1      35.441 -18.024 -20.701  0.00  0.00    -0.477 OA
ATOM     10  H   UNL     1      35.564 -17.184 -21.098  0.00  0.00    +0.295 HD
ENDBRANCH   8   9
ENDBRANCH   2   8
TORSDOF 2
ENDMDL
MODEL 3
REMARK VINA RESULT:      -5.5      6.786      7.568
REMARK  Name = 938
REMARK  2 active torsions:
REMARK  status: ('A' for Active; 'I' for Inactive)
REMARK    1  A    between atoms: C_2  and  C_8
REMARK    2  A    between atoms: C_8  and  O_9
REMARK                            x       y       z     vdW  Elec       q    Type
REMARK                         _______ _______ _______ _____ _____    ______ ____
ROOT
ATOM      1  N   UNL     1      30.004 -25.294 -14.591  0.00  0.00    -0.242 NA
ATOM      2  C   UNL     1      29.271 -23.527 -16.069  0.00  0.00    +0.095 C 
ATOM      3  C   UNL     1      30.510 -22.908 -15.955  0.00  0.00    +0.010 C 
ATOM      4  C   UNL     1      29.070 -24.708 -15.373  0.00  0.00    +0.105 C 
ATOM      5  C   UNL     1      31.498 -23.480 -15.160  0.00  0.00    +0.021 C 
ATOM      6  C   UNL     1      31.197 -24.663 -14.504  0.00  0.00    +0.099 C 
ENDROOT
BRANCH   2   8
ATOM      7  O   UNL     1      27.913 -21.758 -16.932  0.00  0.00    -0.245 OA
ATOM      8  C   UNL     1      28.220 -22.954 -16.892  0.00  0.00    +0.340 C 
BRANCH   8   9
ATOM      9  O   UNL     1      27.578 -23.889 -17.646  0.00  0.00    -0.477 OA
ATOM     10  H   UNL     1      28.062 -24.416 -18.251  0.00  0.00    +0.295 HD
ENDBRANCH   8   9
ENDBRANCH   2   8
TORSDOF 2
ENDMDL
MODEL 4
REMARK VINA RESULT:      -5.5      6.294      7.319
REMARK  Name = 938
REMARK  2 active torsions:
REMARK  status: ('A' for Active; 'I' for Inactive)
REMARK    1  A    between atoms: C_2  and  C_8
REMARK    2  A    between atoms: C_8  and  O_9
REMARK                            x       y       z     vdW  Elec       q    Type
REMARK                         _______ _______ _______ _____ _____    ______ ____
ROOT
ATOM      1  N   UNL     1      31.653 -23.375 -15.498  0.00  0.00    -0.242 NA
ATOM      2  C   UNL     1      29.318 -23.474 -16.119  0.00  0.00    +0.095 C 
ATOM      3  C   UNL     1      29.119 -24.523 -15.229  0.00  0.00    +0.010 C 
ATOM      4  C   UNL     1      30.593 -22.939 -16.215  0.00  0.00    +0.105 C 
ATOM      5  C   UNL     1      30.186 -25.000 -14.473  0.00  0.00    +0.021 C 
ATOM      6  C   UNL     1      31.421 -24.396 -14.643  0.00  0.00    +0.099 C 
ENDROOT
BRANCH   2   8
ATOM      7  O   UNL     1      27.852 -21.777 -16.949  0.00  0.00    -0.245 OA
ATOM      8  C   UNL     1      28.225 -22.955 -16.921  0.00  0.00    +0.340 C 
BRANCH   8   9
ATOM      9  O   UNL     1      27.624 -23.920 -17.671  0.00  0.00    -0.477 OA
ATOM     10  H   UNL     1      27.072 -23.679 -18.389  0.00  0.00    +0.295 HD
ENDBRANCH   8   9
ENDBRANCH   2   8
TORSDOF 2
ENDMDL
MODEL 5
REMARK VINA RESULT:      -5.5      0.961      1.935
REMARK  Name = 938
REMARK  2 active torsions:
REMARK  status: ('A' for Active; 'I' for Inactive)
REMARK    1  A    between atoms: C_2  and  C_8
REMARK    2  A    between atoms: C_8  and  O_9
REMARK                            x       y       z     vdW  Elec       q    Type
REMARK                         _______ _______ _______ _____ _____    ______ ____
ROOT
ATOM      1  N   UNL     1      33.320 -19.482 -20.865  0.00  0.00    -0.242 NA
ATOM      2  C   UNL     1      34.536 -21.255 -19.759  0.00  0.00    +0.095 C 
ATOM      3  C   UNL     1      35.740 -20.690 -20.162  0.00  0.00    +0.010 C 
ATOM      4  C   UNL     1      33.364 -20.618 -20.133  0.00  0.00    +0.105 C 
ATOM      5  C   UNL     1      35.736 -19.520 -20.916  0.00  0.00    +0.021 C 
ATOM      6  C   UNL     1      34.510 -18.961 -21.238  0.00  0.00    +0.099 C 
ENDROOT
BRANCH   2   8
ATOM      7  O   UNL     1      33.764 -23.442 -19.173  0.00  0.00    -0.245 OA
ATOM      8  C   UNL     1      34.507 -22.475 -18.972  0.00  0.00    +0.340 C 
BRANCH   8   9
ATOM      9  O   UNL     1      35.410 -22.460 -17.952  0.00  0.00    -0.477 OA
ATOM     10  H   UNL     1      35.701 -23.265 -17.572  0.00  0.00    +0.295 HD
ENDBRANCH   8   9
ENDBRANCH   2   8
TORSDOF 2
ENDMDL
MODEL 6
REMARK VINA RESULT:      -5.4      4.259      5.148
REMARK  Name = 938
REMARK  2 active torsions:
REMARK  status: ('A' for Active; 'I' for Inactive)
REMARK    1  A    between atoms: C_2  and  C_8
REMARK    2  A    between atoms: C_8  and  O_9
REMARK                            x       y       z     vdW  Elec       q    Type
REMARK                         _______ _______ _______ _____ _____    ______ ____
ROOT
ATOM      1  N   UNL     1      34.605 -16.417 -24.485  0.00  0.00    -0.242 NA
ATOM      2  C   UNL     1      35.089 -17.766 -22.537  0.00  0.00    +0.095 C 
ATOM      3  C   UNL     1      34.892 -18.924 -23.282  0.00  0.00    +0.010 C 
ATOM      4  C   UNL     1      34.935 -16.548 -23.180  0.00  0.00    +0.105 C 
ATOM      5  C   UNL     1      34.552 -18.830 -24.628  0.00  0.00    +0.021 C 
ATOM      6  C   UNL     1      34.422 -17.564 -25.176  0.00  0.00    +0.099 C 
ENDROOT
BRANCH   2   8
ATOM      7  O   UNL     1      35.925 -18.816 -20.558  0.00  0.00    -0.245 OA
ATOM      8  C   UNL     1      35.445 -17.832 -21.131  0.00  0.00    +0.340 C 
BRANCH   8   9
ATOM      9  O   UNL     1      35.195 -16.665 -20.474  0.00  0.00    -0.477 OA
ATOM     10  H   UNL     1      34.596 -16.652 -19.754  0.00  0.00    +0.295 HD
ENDBRANCH   8   9
ENDBRANCH   2   8
TORSDOF 2
ENDMDL
MODEL 7
REMARK VINA RESULT:      -5.4      7.969      8.716
REMARK  Name = 938
REMARK  2 active torsions:
REMARK  status: ('A' for Active; 'I' for Inactive)
REMARK    1  A    between atoms: C_2  and  C_8
REMARK    2  A    between atoms: C_8  and  O_9
REMARK                            x       y       z     vdW  Elec       q    Type
REMARK                         _______ _______ _______ _____ _____    ______ ____
ROOT
ATOM      1  N   UNL     1      37.630 -25.537 -12.181  0.00  0.00    -0.242 NA
ATOM      2  C   UNL     1      38.874 -25.293 -14.240  0.00  0.00    +0.095 C 
ATOM      3  C   UNL     1      37.686 -25.243 -14.960  0.00  0.00    +0.010 C 
ATOM      4  C   UNL     1      38.793 -25.439 -12.865  0.00  0.00    +0.105 C 
ATOM      5  C   UNL     1      36.469 -25.340 -14.293  0.00  0.00    +0.021 C 
ATOM      6  C   UNL     1      36.496 -25.484 -12.915  0.00  0.00    +0.099 C 
ENDROOT
BRANCH   2   8
ATOM      7  O   UNL     1      41.138 -24.562 -14.493  0.00  0.00    -0.245 OA
ATOM      8  C   UNL     1      40.160 -25.194 -14.908  0.00  0.00    +0.340 C 
BRANCH   8   9
ATOM      9  O   UNL     1      40.195 -25.889 -16.079  0.00  0.00    -0.477 OA
ATOM     10  H   UNL     1      40.592 -25.509 -16.838  0.00  0.00    +0.295 HD
ENDBRANCH   8   9
ENDBRANCH   2   8
TORSDOF 2
ENDMDL
MODEL 8
REMARK VINA RESULT:      -5.4      8.011      8.708
REMARK  Name = 938
REMARK  2 active torsions:
REMARK  status: ('A' for Active; 'I' for Inactive)
REMARK    1  A    between atoms: C_2  and  C_8
REMARK    2  A    between atoms: C_8  and  O_9
REMARK                            x       y       z     vdW  Elec       q    Type
REMARK                         _______ _______ _______ _____ _____    ______ ____
ROOT
ATOM      1  N   UNL     1      38.397 -26.612 -14.462  0.00  0.00    -0.242 NA
ATOM      2  C   UNL     1      37.652 -24.854 -12.979  0.00  0.00    +0.095 C 
ATOM      3  C   UNL     1      36.464 -24.746 -13.692  0.00  0.00    +0.010 C 
ATOM      4  C   UNL     1      38.578 -25.795 -13.401  0.00  0.00    +0.105 C 
ATOM      5  C   UNL     1      36.240 -25.570 -14.791  0.00  0.00    +0.021 C 
ATOM      6  C   UNL     1      37.229 -26.479 -15.131  0.00  0.00    +0.099 C 
ENDROOT
BRANCH   2   8
ATOM      7  O   UNL     1      38.844 -23.200 -11.729  0.00  0.00    -0.245 OA
ATOM      8  C   UNL     1      37.914 -24.008 -11.828  0.00  0.00    +0.340 C 
BRANCH   8   9
ATOM      9  O   UNL     1      37.008 -24.191 -10.828  0.00  0.00    -0.477 OA
ATOM     10  H   UNL     1      36.639 -23.450 -10.389  0.00  0.00    +0.295 HD
ENDBRANCH   8   9
ENDBRANCH   2   8
TORSDOF 2
ENDMDL
MODEL 9
REMARK VINA RESULT:      -5.3      7.879      8.526
REMARK  Name = 938
REMARK  2 active torsions:
REMARK  status: ('A' for Active; 'I' for Inactive)
REMARK    1  A    between atoms: C_2  and  C_8
REMARK    2  A    between atoms: C_8  and  O_9
REMARK                            x       y       z     vdW  Elec       q    Type
REMARK                         _______ _______ _______ _____ _____    ______ ____
ROOT
ATOM      1  N   UNL     1      37.733 -24.519 -11.376  0.00  0.00    -0.242 NA
ATOM      2  C   UNL     1      37.006 -25.594 -13.416  0.00  0.00    +0.095 C 
ATOM      3  C   UNL     1      35.947 -24.698 -13.519  0.00  0.00    +0.010 C 
ATOM      4  C   UNL     1      37.863 -25.463 -12.336  0.00  0.00    +0.105 C 
ATOM      5  C   UNL     1      35.780 -23.712 -12.551  0.00  0.00    +0.021 C 
ATOM      6  C   UNL     1      36.693 -23.666 -11.509  0.00  0.00    +0.099 C 
ENDROOT
BRANCH   2   8
ATOM      7  O   UNL     1      38.286 -27.171 -14.678  0.00  0.00    -0.245 OA
ATOM      8  C   UNL     1      37.206 -26.633 -14.411  0.00  0.00    +0.340 C 
BRANCH   8   9
ATOM      9  O   UNL     1      36.052 -26.975 -15.048  0.00  0.00    -0.477 OA
ATOM     10  H   UNL     1      36.073 -27.231 -15.949  0.00  0.00    +0.295 HD
ENDBRANCH   8   9
ENDBRANCH   2   8
TORSDOF 2
ENDMDL
