MODEL 1
REMARK VINA RESULT:     -10.9      0.000      0.000
REMARK  Name = 5287429
REMARK  13 active torsions:
REMARK  status: ('A' for Active; 'I' for Inactive)
REMARK    1  A    between atoms: C_1  and  C_20
REMARK    2  A    between atoms: C_2  and  C_9
REMARK    3  A    between atoms: N_8  and  C_11
REMARK    4  A    between atoms: C_11  and  C_13
REMARK    5  A    between atoms: C_11  and  C_15
REMARK    6  A    between atoms: C_15  and  C_17
REMARK    7  A    between atoms: C_17  and  O_18
REMARK    8  A    between atoms: C_20  and  N_21
REMARK    9  A    between atoms: N_21  and  S_23
REMARK   10  A    between atoms: S_23  and  C_26
REMARK   11  A    between atoms: C_29  and  C_35
REMARK   12  A    between atoms: C_31  and  O_32
REMARK   13  A    between atoms: C_35  and  O_36
REMARK                            x       y       z     vdW  Elec       q    Type
REMARK                         _______ _______ _______ _____ _____    ______ ____
ROOT
ATOM      1  C   UNL     1      35.074 -19.432 -20.973  0.00  0.00    -0.005 C 
ATOM      2  C   UNL     1      34.214 -21.625 -19.478  0.00  0.00    +0.053 C 
ATOM      3  C   UNL     1      33.710 -19.683 -20.826  0.00  0.00    -0.003 C 
ATOM      4  C   UNL     1      36.008 -20.277 -20.374  0.00  0.00    -0.003 C 
ATOM      5  C   UNL     1      33.280 -20.779 -20.078  0.00  0.00    +0.004 C 
ATOM      6  C   UNL     1      35.577 -21.374 -19.626  0.00  0.00    +0.004 C 
ENDROOT
BRANCH   2   9
ATOM      7  O   UNL     1      33.873 -23.922 -19.151  0.00  0.00    -0.270 OA
ATOM      8  N   UNL     1      33.235 -22.507 -17.426  0.00  0.00    -0.296 N 
ATOM      9  C   UNL     1      33.755 -22.792 -18.682  0.00  0.00    +0.246 C 
ATOM     10  H   UNL     1      33.181 -21.567 -17.140  0.00  0.00    +0.150 HD
BRANCH   8  11
ATOM     11  C   UNL     1      32.772 -23.533 -16.528  0.00  0.00    +0.141 C 
BRANCH  11  13
ATOM     12  O   UNL     1      30.595 -22.620 -17.039  0.00  0.00    -0.294 OA
ATOM     13  C   UNL     1      31.298 -23.268 -16.264  0.00  0.00    +0.169 C 
ATOM     14  C   UNL     1      30.741 -23.795 -14.967  0.00  0.00    +0.074 C 
ENDBRANCH  11  13
BRANCH  11  15
ATOM     15  C   UNL     1      33.552 -23.547 -15.219  0.00  0.00    +0.136 C 
BRANCH  15  17
ATOM     16  O   UNL     1      35.788 -23.783 -16.104  0.00  0.00    -0.250 OA
ATOM     17  C   UNL     1      34.895 -24.214 -15.387  0.00  0.00    +0.316 C 
BRANCH  17  18
ATOM     18  O   UNL     1      35.003 -25.357 -14.664  0.00  0.00    -0.480 OA
ATOM     19  H   UNL     1      35.821 -25.813 -14.630  0.00  0.00    +0.295 HD
ENDBRANCH  17  18
ENDBRANCH  15  17
ENDBRANCH  11  15
ENDBRANCH   8  11
ENDBRANCH   2   9
BRANCH   1  20
ATOM     20  C   UNL     1      35.534 -18.260 -21.772  0.00  0.00    +0.118 C 
BRANCH  20  21
ATOM     21  N   UNL     1      34.408 -17.440 -22.284  0.00  0.00    -0.175 NA
ATOM     22  H   UNL     1      34.666 -17.141 -23.225  0.00  0.00    +0.149 HD
BRANCH  21  23
ATOM     23  S   UNL     1      33.924 -16.049 -21.442  0.00  0.00    +0.061 S 
ATOM     24  O   UNL     1      34.999 -15.614 -20.570  0.00  0.00    -0.153 OA
ATOM     25  O   UNL     1      32.593 -16.265 -20.908  0.00  0.00    -0.153 OA
BRANCH  23  26
ATOM     26  C   UNL     1      33.771 -14.866 -22.747  0.00  0.00    +0.122 C 
ATOM     27  C   UNL     1      33.617 -15.298 -24.065  0.00  0.00    +0.029 C 
ATOM     28  C   UNL     1      33.802 -13.502 -22.458  0.00  0.00    +0.023 C 
ATOM     29  C   UNL     1      33.494 -14.365 -25.094  0.00  0.00    +0.110 C 
ATOM     30  C   UNL     1      33.679 -12.569 -23.488  0.00  0.00    +0.038 C 
ATOM     31  C   UNL     1      33.525 -13.001 -24.805  0.00  0.00    +0.140 C 
BRANCH  31  32
ATOM     32  O   UNL     1      33.406 -12.073 -25.797  0.00  0.00    -0.505 OA
ATOM     33  H   UNL     1      33.781 -11.221 -25.688  0.00  0.00    +0.292 HD
ENDBRANCH  31  32
BRANCH  29  35
ATOM     34  O   UNL     1      33.651 -14.207 -27.475  0.00  0.00    -0.245 OA
ATOM     35  C   UNL     1      33.334 -14.836 -26.462  0.00  0.00    +0.341 C 
BRANCH  35  36
ATOM     36  O   UNL     1      32.782 -16.078 -26.522  0.00  0.00    -0.477 OA
ATOM     37  H   UNL     1      31.897 -16.185 -26.812  0.00  0.00    +0.295 HD
ENDBRANCH  35  36
ENDBRANCH  29  35
ENDBRANCH  23  26
ENDBRANCH  21  23
ENDBRANCH  20  21
ENDBRANCH   1  20
TORSDOF 13
ENDMDL
MODEL 2
REMARK VINA RESULT:     -10.9      2.899     10.818
REMARK  Name = 5287429
REMARK  13 active torsions:
REMARK  status: ('A' for Active; 'I' for Inactive)
REMARK    1  A    between atoms: C_1  and  C_20
REMARK    2  A    between atoms: C_2  and  C_9
REMARK    3  A    between atoms: N_8  and  C_11
REMARK    4  A    between atoms: C_11  and  C_13
REMARK    5  A    between atoms: C_11  and  C_15
REMARK    6  A    between atoms: C_15  and  C_17
REMARK    7  A    between atoms: C_17  and  O_18
REMARK    8  A    between atoms: C_20  and  N_21
REMARK    9  A    between atoms: N_21  and  S_23
REMARK   10  A    between atoms: S_23  and  C_26
REMARK   11  A    between atoms: C_29  and  C_35
REMARK   12  A    between atoms: C_31  and  O_32
REMARK   13  A    between atoms: C_35  and  O_36
REMARK                            x       y       z     vdW  Elec       q    Type
REMARK                         _______ _______ _______ _____ _____    ______ ____
ROOT
ATOM      1  C   UNL     1      33.993 -22.259 -18.811  0.00  0.00    -0.005 C 
ATOM      2  C   UNL     1      34.986 -20.132 -20.318  0.00  0.00    +0.053 C 
ATOM      3  C   UNL     1      35.368 -22.039 -18.883  0.00  0.00    -0.003 C 
ATOM      4  C   UNL     1      33.114 -21.416 -19.491  0.00  0.00    -0.003 C 
ATOM      5  C   UNL     1      35.865 -20.975 -19.637  0.00  0.00    +0.004 C 
ATOM      6  C   UNL     1      33.611 -20.353 -20.246  0.00  0.00    +0.004 C 
ENDROOT
BRANCH   2   9
ATOM      7  O   UNL     1      36.712 -18.972 -21.403  0.00  0.00    -0.270 OA
ATOM      8  N   UNL     1      34.587 -18.047 -21.519  0.00  0.00    -0.296 N 
ATOM      9  C   UNL     1      35.516 -18.999 -21.121  0.00  0.00    +0.246 C 
ATOM     10  H   UNL     1      33.650 -18.157 -21.241  0.00  0.00    +0.150 HD
BRANCH   8  11
ATOM     11  C   UNL     1      34.942 -16.906 -22.321  0.00  0.00    +0.141 C 
BRANCH  11  13
ATOM     12  O   UNL     1      34.941 -15.654 -20.255  0.00  0.00    -0.294 OA
ATOM     13  C   UNL     1      34.721 -15.668 -21.466  0.00  0.00    +0.169 C 
ATOM     14  C   UNL     1      34.160 -14.457 -22.166  0.00  0.00    +0.074 C 
ENDBRANCH  11  13
BRANCH  11  15
ATOM     15  C   UNL     1      34.120 -16.822 -23.601  0.00  0.00    +0.136 C 
BRANCH  15  17
ATOM     16  O   UNL     1      34.864 -18.945 -24.482  0.00  0.00    -0.250 OA
ATOM     17  C   UNL     1      34.655 -17.752 -24.661  0.00  0.00    +0.316 C 
BRANCH  17  18
ATOM     18  O   UNL     1      34.894 -17.120 -25.837  0.00  0.00    -0.480 OA
ATOM     19  H   UNL     1      34.224 -16.598 -26.233  0.00  0.00    +0.295 HD
ENDBRANCH  17  18
ENDBRANCH  15  17
ENDBRANCH  11  15
ENDBRANCH   8  11
ENDBRANCH   2   9
BRANCH   1  20
ATOM     20  C   UNL     1      33.462 -23.395 -18.004  0.00  0.00    +0.118 C 
BRANCH  20  21
ATOM     21  N   UNL     1      32.544 -22.952 -16.926  0.00  0.00    -0.175 NA
ATOM     22  H   UNL     1      32.598 -21.934 -16.893  0.00  0.00    +0.149 HD
BRANCH  21  23
ATOM     23  S   UNL     1      32.775 -23.507 -15.339  0.00  0.00    +0.061 S 
ATOM     24  O   UNL     1      32.163 -24.814 -15.191  0.00  0.00    -0.153 OA
ATOM     25  O   UNL     1      32.444 -22.438 -14.417  0.00  0.00    -0.153 OA
BRANCH  23  26
ATOM     26  C   UNL     1      34.529 -23.717 -15.276  0.00  0.00    +0.122 C 
ATOM     27  C   UNL     1      35.076 -24.999 -15.201  0.00  0.00    +0.029 C 
ATOM     28  C   UNL     1      35.366 -22.602 -15.304  0.00  0.00    +0.023 C 
ATOM     29  C   UNL     1      36.460 -25.165 -15.154  0.00  0.00    +0.110 C 
ATOM     30  C   UNL     1      36.750 -22.768 -15.256  0.00  0.00    +0.038 C 
ATOM     31  C   UNL     1      37.297 -24.049 -15.181  0.00  0.00    +0.140 C 
BRANCH  31  32
ATOM     32  O   UNL     1      38.652 -24.190 -15.136  0.00  0.00    -0.505 OA
ATOM     33  H   UNL     1      39.042 -24.765 -14.507  0.00  0.00    +0.292 HD
ENDBRANCH  31  32
BRANCH  29  35
ATOM     34  O   UNL     1      37.608 -26.983 -14.105  0.00  0.00    -0.245 OA
ATOM     35  C   UNL     1      37.011 -26.510 -15.077  0.00  0.00    +0.341 C 
BRANCH  35  36
ATOM     36  O   UNL     1      36.797 -27.224 -16.215  0.00  0.00    -0.477 OA
ATOM     37  H   UNL     1      36.379 -26.820 -16.950  0.00  0.00    +0.295 HD
ENDBRANCH  35  36
ENDBRANCH  29  35
ENDBRANCH  23  26
ENDBRANCH  21  23
ENDBRANCH  20  21
ENDBRANCH   1  20
TORSDOF 13
ENDMDL
MODEL 3
REMARK VINA RESULT:     -10.8      2.330     10.757
REMARK  Name = 5287429
REMARK  13 active torsions:
REMARK  status: ('A' for Active; 'I' for Inactive)
REMARK    1  A    between atoms: C_1  and  C_20
REMARK    2  A    between atoms: C_2  and  C_9
REMARK    3  A    between atoms: N_8  and  C_11
REMARK    4  A    between atoms: C_11  and  C_13
REMARK    5  A    between atoms: C_11  and  C_15
REMARK    6  A    between atoms: C_15  and  C_17
REMARK    7  A    between atoms: C_17  and  O_18
REMARK    8  A    between atoms: C_20  and  N_21
REMARK    9  A    between atoms: N_21  and  S_23
REMARK   10  A    between atoms: S_23  and  C_26
REMARK   11  A    between atoms: C_29  and  C_35
REMARK   12  A    between atoms: C_31  and  O_32
REMARK   13  A    between atoms: C_35  and  O_36
REMARK                            x       y       z     vdW  Elec       q    Type
REMARK                         _______ _______ _______ _____ _____    ______ ____
ROOT
ATOM      1  C   UNL     1      34.427 -21.627 -19.487  0.00  0.00    -0.005 C 
ATOM      2  C   UNL     1      35.071 -19.403 -21.043  0.00  0.00    +0.053 C 
ATOM      3  C   UNL     1      35.763 -21.292 -19.704  0.00  0.00    -0.003 C 
ATOM      4  C   UNL     1      33.413 -20.851 -20.047  0.00  0.00    -0.003 C 
ATOM      5  C   UNL     1      36.085 -20.180 -20.482  0.00  0.00    +0.004 C 
ATOM      6  C   UNL     1      33.735 -19.739 -20.825  0.00  0.00    +0.004 C 
ENDROOT
BRANCH   2   9
ATOM      7  O   UNL     1      36.466 -18.215 -22.505  0.00  0.00    -0.270 OA
ATOM      8  N   UNL     1      34.481 -17.190 -21.881  0.00  0.00    -0.296 N 
ATOM      9  C   UNL     1      35.414 -18.218 -21.871  0.00  0.00    +0.246 C 
ATOM     10  H   UNL     1      33.666 -17.286 -21.338  0.00  0.00    +0.150 HD
BRANCH   8  11
ATOM     11  C   UNL     1      34.659 -15.989 -22.655  0.00  0.00    +0.141 C 
BRANCH  11  13
ATOM     12  O   UNL     1      34.885 -14.850 -20.536  0.00  0.00    -0.294 OA
ATOM     13  C   UNL     1      34.497 -14.813 -21.704  0.00  0.00    +0.169 C 
ATOM     14  C   UNL     1      33.783 -13.602 -22.246  0.00  0.00    +0.074 C 
ENDBRANCH  11  13
BRANCH  11  15
ATOM     15  C   UNL     1      33.660 -15.887 -23.801  0.00  0.00    +0.136 C 
BRANCH  15  17
ATOM     16  O   UNL     1      33.863 -15.932 -26.208  0.00  0.00    -0.250 OA
ATOM     17  C   UNL     1      34.288 -16.281 -25.114  0.00  0.00    +0.316 C 
BRANCH  17  18
ATOM     18  O   UNL     1      35.373 -17.080 -24.954  0.00  0.00    -0.480 OA
ATOM     19  H   UNL     1      36.220 -16.699 -24.825  0.00  0.00    +0.295 HD
ENDBRANCH  17  18
ENDBRANCH  15  17
ENDBRANCH  11  15
ENDBRANCH   8  11
ENDBRANCH   2   9
BRANCH   1  20
ATOM     20  C   UNL     1      34.083 -22.816 -18.654  0.00  0.00    +0.118 C 
BRANCH  20  21
ATOM     21  N   UNL     1      33.559 -22.445 -17.317  0.00  0.00    -0.175 NA
ATOM     22  H   UNL     1      33.930 -21.520 -17.101  0.00  0.00    +0.149 HD
BRANCH  21  23
ATOM     23  S   UNL     1      33.891 -23.432 -15.977  0.00  0.00    +0.061 S 
ATOM     24  O   UNL     1      34.439 -22.622 -14.905  0.00  0.00    -0.153 OA
ATOM     25  O   UNL     1      34.596 -24.615 -16.431  0.00  0.00    -0.153 OA
BRANCH  23  26
ATOM     26  C   UNL     1      32.271 -23.950 -15.494  0.00  0.00    +0.122 C 
ATOM     27  C   UNL     1      31.168 -23.607 -16.276  0.00  0.00    +0.029 C 
ATOM     28  C   UNL     1      32.097 -24.702 -14.332  0.00  0.00    +0.023 C 
ATOM     29  C   UNL     1      29.890 -24.018 -15.896  0.00  0.00    +0.110 C 
ATOM     30  C   UNL     1      30.819 -25.113 -13.953  0.00  0.00    +0.038 C 
ATOM     31  C   UNL     1      29.716 -24.770 -14.735  0.00  0.00    +0.140 C 
BRANCH  31  32
ATOM     32  O   UNL     1      28.475 -25.181 -14.346  0.00  0.00    -0.505 OA
ATOM     33  H   UNL     1      27.739 -24.611 -14.451  0.00  0.00    +0.292 HD
ENDBRANCH  31  32
BRANCH  29  35
ATOM     34  O   UNL     1      27.918 -24.438 -17.183  0.00  0.00    -0.245 OA
ATOM     35  C   UNL     1      28.751 -23.651 -16.726  0.00  0.00    +0.341 C 
BRANCH  35  36
ATOM     36  O   UNL     1      28.689 -22.311 -16.959  0.00  0.00    -0.477 OA
ATOM     37  H   UNL     1      27.930 -21.941 -17.365  0.00  0.00    +0.295 HD
ENDBRANCH  35  36
ENDBRANCH  29  35
ENDBRANCH  23  26
ENDBRANCH  21  23
ENDBRANCH  20  21
ENDBRANCH   1  20
TORSDOF 13
ENDMDL
MODEL 4
REMARK VINA RESULT:     -10.8      1.857      3.000
REMARK  Name = 5287429
REMARK  13 active torsions:
REMARK  status: ('A' for Active; 'I' for Inactive)
REMARK    1  A    between atoms: C_1  and  C_20
REMARK    2  A    between atoms: C_2  and  C_9
REMARK    3  A    between atoms: N_8  and  C_11
REMARK    4  A    between atoms: C_11  and  C_13
REMARK    5  A    between atoms: C_11  and  C_15
REMARK    6  A    between atoms: C_15  and  C_17
REMARK    7  A    between atoms: C_17  and  O_18
REMARK    8  A    between atoms: C_20  and  N_21
REMARK    9  A    between atoms: N_21  and  S_23
REMARK   10  A    between atoms: S_23  and  C_26
REMARK   11  A    between atoms: C_29  and  C_35
REMARK   12  A    between atoms: C_31  and  O_32
REMARK   13  A    between atoms: C_35  and  O_36
REMARK                            x       y       z     vdW  Elec       q    Type
REMARK                         _______ _______ _______ _____ _____    ______ ____
ROOT
ATOM      1  C   UNL     1      34.434 -21.087 -19.988  0.00  0.00    -0.005 C 
ATOM      2  C   UNL     1      34.640 -22.604 -17.655  0.00  0.00    +0.053 C 
ATOM      3  C   UNL     1      35.673 -21.245 -19.367  0.00  0.00    -0.003 C 
ATOM      4  C   UNL     1      33.299 -21.687 -19.443  0.00  0.00    -0.003 C 
ATOM      5  C   UNL     1      35.775 -22.004 -18.200  0.00  0.00    +0.004 C 
ATOM      6  C   UNL     1      33.402 -22.445 -18.276  0.00  0.00    +0.004 C 
ENDROOT
BRANCH   2   9
ATOM      7  O   UNL     1      35.837 -23.895 -16.107  0.00  0.00    -0.270 OA
ATOM      8  N   UNL     1      33.588 -23.538 -15.664  0.00  0.00    -0.296 N 
ATOM      9  C   UNL     1      34.750 -23.411 -16.413  0.00  0.00    +0.246 C 
ATOM     10  H   UNL     1      32.764 -23.113 -15.993  0.00  0.00    +0.150 HD
BRANCH   8  11
ATOM     11  C   UNL     1      33.542 -24.268 -14.423  0.00  0.00    +0.141 C 
BRANCH  11  13
ATOM     12  O   UNL     1      31.691 -25.021 -13.065  0.00  0.00    -0.294 OA
ATOM     13  C   UNL     1      32.093 -24.281 -13.963  0.00  0.00    +0.169 C 
ATOM     14  C   UNL     1      31.144 -23.372 -14.700  0.00  0.00    +0.074 C 
ENDBRANCH  11  13
BRANCH  11  15
ATOM     15  C   UNL     1      34.434 -23.648 -13.355  0.00  0.00    +0.136 C 
BRANCH  15  17
ATOM     16  O   UNL     1      35.008 -24.922 -11.384  0.00  0.00    -0.250 OA
ATOM     17  C   UNL     1      35.176 -24.705 -12.577  0.00  0.00    +0.316 C 
BRANCH  17  18
ATOM     18  O   UNL     1      36.066 -25.387 -13.342  0.00  0.00    -0.480 OA
ATOM     19  H   UNL     1      36.840 -25.746 -12.953  0.00  0.00    +0.295 HD
ENDBRANCH  17  18
ENDBRANCH  15  17
ENDBRANCH  11  15
ENDBRANCH   8  11
ENDBRANCH   2   9
BRANCH   1  20
ATOM     20  C   UNL     1      34.324 -20.277 -21.235  0.00  0.00    +0.118 C 
BRANCH  20  21
ATOM     21  N   UNL     1      34.084 -18.839 -20.964  0.00  0.00    -0.175 NA
ATOM     22  H   UNL     1      33.266 -18.568 -21.510  0.00  0.00    +0.149 HD
BRANCH  21  23
ATOM     23  S   UNL     1      35.297 -17.701 -21.301  0.00  0.00    +0.061 S 
ATOM     24  O   UNL     1      36.558 -18.388 -21.511  0.00  0.00    -0.153 OA
ATOM     25  O   UNL     1      35.206 -16.621 -20.337  0.00  0.00    -0.153 OA
BRANCH  23  26
ATOM     26  C   UNL     1      34.766 -17.050 -22.856  0.00  0.00    +0.122 C 
ATOM     27  C   UNL     1      34.234 -15.762 -22.928  0.00  0.00    +0.029 C 
ATOM     28  C   UNL     1      34.880 -17.824 -24.011  0.00  0.00    +0.023 C 
ATOM     29  C   UNL     1      33.816 -15.248 -24.155  0.00  0.00    +0.110 C 
ATOM     30  C   UNL     1      34.462 -17.309 -25.238  0.00  0.00    +0.038 C 
ATOM     31  C   UNL     1      33.930 -16.022 -25.310  0.00  0.00    +0.140 C 
BRANCH  31  32
ATOM     32  O   UNL     1      33.528 -15.537 -26.520  0.00  0.00    -0.505 OA
ATOM     33  H   UNL     1      33.975 -14.808 -26.903  0.00  0.00    +0.292 HD
ENDBRANCH  31  32
BRANCH  29  35
ATOM     34  O   UNL     1      33.553 -13.045 -25.051  0.00  0.00    -0.245 OA
ATOM     35  C   UNL     1      33.265 -13.901 -24.210  0.00  0.00    +0.341 C 
BRANCH  35  36
ATOM     36  O   UNL     1      32.370 -13.667 -23.211  0.00  0.00    -0.477 OA
ATOM     37  H   UNL     1      31.507 -14.028 -23.262  0.00  0.00    +0.295 HD
ENDBRANCH  35  36
ENDBRANCH  29  35
ENDBRANCH  23  26
ENDBRANCH  21  23
ENDBRANCH  20  21
ENDBRANCH   1  20
TORSDOF 13
ENDMDL
MODEL 5
REMARK VINA RESULT:     -10.8      0.871      1.906
REMARK  Name = 5287429
REMARK  13 active torsions:
REMARK  status: ('A' for Active; 'I' for Inactive)
REMARK    1  A    between atoms: C_1  and  C_20
REMARK    2  A    between atoms: C_2  and  C_9
REMARK    3  A    between atoms: N_8  and  C_11
REMARK    4  A    between atoms: C_11  and  C_13
REMARK    5  A    between atoms: C_11  and  C_15
REMARK    6  A    between atoms: C_15  and  C_17
REMARK    7  A    between atoms: C_17  and  O_18
REMARK    8  A    between atoms: C_20  and  N_21
REMARK    9  A    between atoms: N_21  and  S_23
REMARK   10  A    between atoms: S_23  and  C_26
REMARK   11  A    between atoms: C_29  and  C_35
REMARK   12  A    between atoms: C_31  and  O_32
REMARK   13  A    between atoms: C_35  and  O_36
REMARK                            x       y       z     vdW  Elec       q    Type
REMARK                         _______ _______ _______ _____ _____    ______ ____
ROOT
ATOM      1  C   UNL     1      34.871 -19.389 -20.984  0.00  0.00    -0.005 C 
ATOM      2  C   UNL     1      34.014 -21.579 -19.483  0.00  0.00    +0.053 C 
ATOM      3  C   UNL     1      33.507 -19.619 -20.802  0.00  0.00    -0.003 C 
ATOM      4  C   UNL     1      35.806 -20.255 -20.416  0.00  0.00    -0.003 C 
ATOM      5  C   UNL     1      33.079 -20.713 -20.051  0.00  0.00    +0.004 C 
ATOM      6  C   UNL     1      35.377 -21.350 -19.666  0.00  0.00    +0.004 C 
ENDROOT
BRANCH   2   9
ATOM      7  O   UNL     1      33.820 -23.880 -19.073  0.00  0.00    -0.270 OA
ATOM      8  N   UNL     1      32.869 -22.449 -17.514  0.00  0.00    -0.296 N 
ATOM      9  C   UNL     1      33.557 -22.745 -18.683  0.00  0.00    +0.246 C 
ATOM     10  H   UNL     1      32.706 -21.506 -17.287  0.00  0.00    +0.150 HD
BRANCH   8  11
ATOM     11  C   UNL     1      32.384 -23.470 -16.621  0.00  0.00    +0.141 C 
BRANCH  11  13
ATOM     12  O   UNL     1      30.280 -22.365 -17.055  0.00  0.00    -0.294 OA
ATOM     13  C   UNL     1      30.878 -23.294 -16.512  0.00  0.00    +0.169 C 
ATOM     14  C   UNL     1      30.144 -24.291 -15.653  0.00  0.00    +0.074 C 
ENDBRANCH  11  13
BRANCH  11  15
ATOM     15  C   UNL     1      33.030 -23.385 -15.244  0.00  0.00    +0.136 C 
BRANCH  15  17
ATOM     16  O   UNL     1      35.249 -23.921 -16.035  0.00  0.00    -0.250 OA
ATOM     17  C   UNL     1      34.358 -24.100 -15.214  0.00  0.00    +0.316 C 
BRANCH  17  18
ATOM     18  O   UNL     1      34.456 -24.976 -14.183  0.00  0.00    -0.480 OA
ATOM     19  H   UNL     1      34.980 -25.748 -14.273  0.00  0.00    +0.295 HD
ENDBRANCH  17  18
ENDBRANCH  15  17
ENDBRANCH  11  15
ENDBRANCH   8  11
ENDBRANCH   2   9
BRANCH   1  20
ATOM     20  C   UNL     1      35.329 -18.218 -21.786  0.00  0.00    +0.118 C 
BRANCH  20  21
ATOM     21  N   UNL     1      34.202 -17.404 -22.304  0.00  0.00    -0.175 NA
ATOM     22  H   UNL     1      34.372 -17.264 -23.300  0.00  0.00    +0.149 HD
BRANCH  21  23
ATOM     23  S   UNL     1      33.891 -15.873 -21.639  0.00  0.00    +0.061 S 
ATOM     24  O   UNL     1      35.054 -15.425 -20.896  0.00  0.00    -0.153 OA
ATOM     25  O   UNL     1      32.585 -15.894 -21.008  0.00  0.00    -0.153 OA
BRANCH  23  26
ATOM     26  C   UNL     1      33.749 -14.868 -23.086  0.00  0.00    +0.122 C 
ATOM     27  C   UNL     1      33.819 -13.479 -22.980  0.00  0.00    +0.029 C 
ATOM     28  C   UNL     1      33.569 -15.464 -24.334  0.00  0.00    +0.023 C 
ATOM     29  C   UNL     1      33.709 -12.686 -24.122  0.00  0.00    +0.110 C 
ATOM     30  C   UNL     1      33.459 -14.671 -25.476  0.00  0.00    +0.038 C 
ATOM     31  C   UNL     1      33.528 -13.282 -25.370  0.00  0.00    +0.140 C 
BRANCH  31  32
ATOM     32  O   UNL     1      33.419 -12.525 -26.498  0.00  0.00    -0.505 OA
ATOM     33  H   UNL     1      32.736 -12.701 -27.115  0.00  0.00    +0.292 HD
ENDBRANCH  31  32
BRANCH  29  35
ATOM     34  O   UNL     1      32.977 -10.533 -23.379  0.00  0.00    -0.245 OA
ATOM     35  C   UNL     1      33.785 -11.238 -23.990  0.00  0.00    +0.341 C 
BRANCH  35  36
ATOM     36  O   UNL     1      34.870 -10.716 -24.624  0.00  0.00    -0.477 OA
ATOM     37  H   UNL     1      35.246  -9.911 -24.325  0.00  0.00    +0.295 HD
ENDBRANCH  35  36
ENDBRANCH  29  35
ENDBRANCH  23  26
ENDBRANCH  21  23
ENDBRANCH  20  21
ENDBRANCH   1  20
TORSDOF 13
ENDMDL
MODEL 6
REMARK VINA RESULT:     -10.6      3.039     11.603
REMARK  Name = 5287429
REMARK  13 active torsions:
REMARK  status: ('A' for Active; 'I' for Inactive)
REMARK    1  A    between atoms: C_1  and  C_20
REMARK    2  A    between atoms: C_2  and  C_9
REMARK    3  A    between atoms: N_8  and  C_11
REMARK    4  A    between atoms: C_11  and  C_13
REMARK    5  A    between atoms: C_11  and  C_15
REMARK    6  A    between atoms: C_15  and  C_17
REMARK    7  A    between atoms: C_17  and  O_18
REMARK    8  A    between atoms: C_20  and  N_21
REMARK    9  A    between atoms: N_21  and  S_23
REMARK   10  A    between atoms: S_23  and  C_26
REMARK   11  A    between atoms: C_29  and  C_35
REMARK   12  A    between atoms: C_31  and  O_32
REMARK   13  A    between atoms: C_35  and  O_36
REMARK                            x       y       z     vdW  Elec       q    Type
REMARK                         _______ _______ _______ _____ _____    ______ ____
ROOT
ATOM      1  C   UNL     1      34.033 -22.073 -18.926  0.00  0.00    -0.005 C 
ATOM      2  C   UNL     1      35.000 -19.957 -20.466  0.00  0.00    +0.053 C 
ATOM      3  C   UNL     1      35.407 -21.868 -19.043  0.00  0.00    -0.003 C 
ATOM      4  C   UNL     1      33.142 -21.220 -19.578  0.00  0.00    -0.003 C 
ATOM      5  C   UNL     1      35.891 -20.810 -19.813  0.00  0.00    +0.004 C 
ATOM      6  C   UNL     1      33.626 -20.162 -20.348  0.00  0.00    +0.004 C 
ENDROOT
BRANCH   2   9
ATOM      7  O   UNL     1      36.691 -18.841 -21.647  0.00  0.00    -0.270 OA
ATOM      8  N   UNL     1      34.598 -17.839 -21.605  0.00  0.00    -0.296 N 
ATOM      9  C   UNL     1      35.517 -18.830 -21.285  0.00  0.00    +0.246 C 
ATOM     10  H   UNL     1      33.678 -17.920 -21.267  0.00  0.00    +0.150 HD
BRANCH   8  11
ATOM     11  C   UNL     1      34.941 -16.697 -22.413  0.00  0.00    +0.141 C 
BRANCH  11  13
ATOM     12  O   UNL     1      34.905 -15.459 -20.339  0.00  0.00    -0.294 OA
ATOM     13  C   UNL     1      34.724 -15.460 -21.557  0.00  0.00    +0.169 C 
ATOM     14  C   UNL     1      34.218 -14.230 -22.267  0.00  0.00    +0.074 C 
ENDBRANCH  11  13
BRANCH  11  15
ATOM     15  C   UNL     1      34.104 -16.618 -23.684  0.00  0.00    +0.136 C 
BRANCH  15  17
ATOM     16  O   UNL     1      34.718 -18.768 -24.599  0.00  0.00    -0.250 OA
ATOM     17  C   UNL     1      34.624 -17.556 -24.744  0.00  0.00    +0.316 C 
BRANCH  17  18
ATOM     18  O   UNL     1      34.991 -16.908 -25.878  0.00  0.00    -0.480 OA
ATOM     19  H   UNL     1      35.825 -17.085 -26.269  0.00  0.00    +0.295 HD
ENDBRANCH  17  18
ENDBRANCH  15  17
ENDBRANCH  11  15
ENDBRANCH   8  11
ENDBRANCH   2   9
BRANCH   1  20
ATOM     20  C   UNL     1      33.516 -23.203 -18.102  0.00  0.00    +0.118 C 
BRANCH  20  21
ATOM     21  N   UNL     1      34.487 -23.654 -17.076  0.00  0.00    -0.175 NA
ATOM     22  H   UNL     1      34.765 -24.603 -17.329  0.00  0.00    +0.149 HD
BRANCH  21  23
ATOM     23  S   UNL     1      34.031 -23.695 -15.442  0.00  0.00    +0.061 S 
ATOM     24  O   UNL     1      32.914 -24.606 -15.275  0.00  0.00    -0.153 OA
ATOM     25  O   UNL     1      33.945 -22.335 -14.946  0.00  0.00    -0.153 OA
BRANCH  23  26
ATOM     26  C   UNL     1      35.450 -24.431 -14.685  0.00  0.00    +0.122 C 
ATOM     27  C   UNL     1      36.010 -23.853 -13.545  0.00  0.00    +0.029 C 
ATOM     28  C   UNL     1      36.007 -25.589 -15.227  0.00  0.00    +0.023 C 
ATOM     29  C   UNL     1      37.128 -24.435 -12.947  0.00  0.00    +0.110 C 
ATOM     30  C   UNL     1      37.125 -26.170 -14.629  0.00  0.00    +0.038 C 
ATOM     31  C   UNL     1      37.686 -25.592 -13.489  0.00  0.00    +0.140 C 
BRANCH  31  32
ATOM     32  O   UNL     1      38.778 -26.176 -12.919  0.00  0.00    -0.505 OA
ATOM     33  H   UNL     1      38.673 -26.746 -12.182  0.00  0.00    +0.292 HD
ENDBRANCH  31  32
BRANCH  29  35
ATOM     34  O   UNL     1      38.773 -23.215 -11.711  0.00  0.00    -0.245 OA
ATOM     35  C   UNL     1      37.697 -23.817 -11.757  0.00  0.00    +0.341 C 
BRANCH  35  36
ATOM     36  O   UNL     1      36.903 -23.970 -10.663  0.00  0.00    -0.477 OA
ATOM     37  H   UNL     1      37.288 -24.107  -9.820  0.00  0.00    +0.295 HD
ENDBRANCH  35  36
ENDBRANCH  29  35
ENDBRANCH  23  26
ENDBRANCH  21  23
ENDBRANCH  20  21
ENDBRANCH   1  20
TORSDOF 13
ENDMDL
MODEL 7
REMARK VINA RESULT:     -10.5      1.919      2.977
REMARK  Name = 5287429
REMARK  13 active torsions:
REMARK  status: ('A' for Active; 'I' for Inactive)
REMARK    1  A    between atoms: C_1  and  C_20
REMARK    2  A    between atoms: C_2  and  C_9
REMARK    3  A    between atoms: N_8  and  C_11
REMARK    4  A    between atoms: C_11  and  C_13
REMARK    5  A    between atoms: C_11  and  C_15
REMARK    6  A    between atoms: C_15  and  C_17
REMARK    7  A    between atoms: C_17  and  O_18
REMARK    8  A    between atoms: C_20  and  N_21
REMARK    9  A    between atoms: N_21  and  S_23
REMARK   10  A    between atoms: S_23  and  C_26
REMARK   11  A    between atoms: C_29  and  C_35
REMARK   12  A    between atoms: C_31  and  O_32
REMARK   13  A    between atoms: C_35  and  O_36
REMARK                            x       y       z     vdW  Elec       q    Type
REMARK                         _______ _______ _______ _____ _____    ______ ____
ROOT
ATOM      1  C   UNL     1      34.791 -20.280 -20.664  0.00  0.00    -0.005 C 
ATOM      2  C   UNL     1      33.719 -22.004 -18.750  0.00  0.00    +0.053 C 
ATOM      3  C   UNL     1      35.628 -21.142 -19.956  0.00  0.00    -0.003 C 
ATOM      4  C   UNL     1      33.419 -20.279 -20.415  0.00  0.00    -0.003 C 
ATOM      5  C   UNL     1      35.091 -22.004 -19.000  0.00  0.00    +0.004 C 
ATOM      6  C   UNL     1      32.883 -21.140 -19.458  0.00  0.00    +0.004 C 
ENDROOT
BRANCH   2   9
ATOM      7  O   UNL     1      33.801 -23.898 -17.371  0.00  0.00    -0.270 OA
ATOM      8  N   UNL     1      31.897 -22.580 -17.236  0.00  0.00    -0.296 N 
ATOM      9  C   UNL     1      33.148 -22.922 -17.731  0.00  0.00    +0.246 C 
ATOM     10  H   UNL     1      31.452 -21.776 -17.588  0.00  0.00    +0.150 HD
BRANCH   8  11
ATOM     11  C   UNL     1      31.225 -23.356 -16.226  0.00  0.00    +0.141 C 
BRANCH  11  13
ATOM     12  O   UNL     1      29.220 -22.253 -17.000  0.00  0.00    -0.294 OA
ATOM     13  C   UNL     1      29.733 -23.254 -16.499  0.00  0.00    +0.169 C 
ATOM     14  C   UNL     1      28.888 -24.428 -16.074  0.00  0.00    +0.074 C 
ENDBRANCH  11  13
BRANCH  11  15
ATOM     15  C   UNL     1      31.542 -22.869 -14.818  0.00  0.00    +0.136 C 
BRANCH  15  17
ATOM     16  O   UNL     1      31.750 -25.142 -14.024  0.00  0.00    -0.250 OA
ATOM     17  C   UNL     1      32.119 -23.975 -13.970  0.00  0.00    +0.316 C 
BRANCH  17  18
ATOM     18  O   UNL     1      33.086 -23.535 -13.127  0.00  0.00    -0.480 OA
ATOM     19  H   UNL     1      32.851 -23.109 -12.325  0.00  0.00    +0.295 HD
ENDBRANCH  17  18
ENDBRANCH  15  17
ENDBRANCH  11  15
ENDBRANCH   8  11
ENDBRANCH   2   9
BRANCH   1  20
ATOM     20  C   UNL     1      35.365 -19.359 -21.688  0.00  0.00    +0.118 C 
BRANCH  20  21
ATOM     21  N   UNL     1      34.335 -18.508 -22.333  0.00  0.00    -0.175 NA
ATOM     22  H   UNL     1      33.781 -19.119 -22.933  0.00  0.00    +0.149 HD
BRANCH  21  23
ATOM     23  S   UNL     1      34.808 -17.184 -23.283  0.00  0.00    +0.061 S 
ATOM     24  O   UNL     1      34.264 -17.330 -24.620  0.00  0.00    -0.153 OA
ATOM     25  O   UNL     1      36.227 -16.955 -23.093  0.00  0.00    -0.153 OA
BRANCH  23  26
ATOM     26  C   UNL     1      33.960 -15.847 -22.494  0.00  0.00    +0.122 C 
ATOM     27  C   UNL     1      33.835 -14.620 -23.146  0.00  0.00    +0.029 C 
ATOM     28  C   UNL     1      33.416 -16.021 -21.222  0.00  0.00    +0.023 C 
ATOM     29  C   UNL     1      33.165 -13.566 -22.525  0.00  0.00    +0.110 C 
ATOM     30  C   UNL     1      32.746 -14.967 -20.601  0.00  0.00    +0.038 C 
ATOM     31  C   UNL     1      32.621 -13.740 -21.253  0.00  0.00    +0.140 C 
BRANCH  31  32
ATOM     32  O   UNL     1      31.962 -12.722 -20.629  0.00  0.00    -0.505 OA
ATOM     33  H   UNL     1      31.449 -12.897 -19.864  0.00  0.00    +0.292 HD
ENDBRANCH  31  32
BRANCH  29  35
ATOM     34  O   UNL     1      32.387 -11.325 -22.831  0.00  0.00    -0.245 OA
ATOM     35  C   UNL     1      33.044 -12.294 -23.222  0.00  0.00    +0.341 C 
BRANCH  35  36
ATOM     36  O   UNL     1      33.748 -12.271 -24.387  0.00  0.00    -0.477 OA
ATOM     37  H   UNL     1      33.459 -11.735 -25.099  0.00  0.00    +0.295 HD
ENDBRANCH  35  36
ENDBRANCH  29  35
ENDBRANCH  23  26
ENDBRANCH  21  23
ENDBRANCH  20  21
ENDBRANCH   1  20
TORSDOF 13
ENDMDL
MODEL 8
REMARK VINA RESULT:     -10.4      2.145      3.254
REMARK  Name = 5287429
REMARK  13 active torsions:
REMARK  status: ('A' for Active; 'I' for Inactive)
REMARK    1  A    between atoms: C_1  and  C_20
REMARK    2  A    between atoms: C_2  and  C_9
REMARK    3  A    between atoms: N_8  and  C_11
REMARK    4  A    between atoms: C_11  and  C_13
REMARK    5  A    between atoms: C_11  and  C_15
REMARK    6  A    between atoms: C_15  and  C_17
REMARK    7  A    between atoms: C_17  and  O_18
REMARK    8  A    between atoms: C_20  and  N_21
REMARK    9  A    between atoms: N_21  and  S_23
REMARK   10  A    between atoms: S_23  and  C_26
REMARK   11  A    between atoms: C_29  and  C_35
REMARK   12  A    between atoms: C_31  and  O_32
REMARK   13  A    between atoms: C_35  and  O_36
REMARK                            x       y       z     vdW  Elec       q    Type
REMARK                         _______ _______ _______ _____ _____    ______ ____
ROOT
ATOM      1  C   UNL     1      34.673 -21.194 -19.907  0.00  0.00    -0.005 C 
ATOM      2  C   UNL     1      33.157 -22.459 -17.935  0.00  0.00    +0.053 C 
ATOM      3  C   UNL     1      35.299 -22.003 -18.959  0.00  0.00    -0.003 C 
ATOM      4  C   UNL     1      33.290 -21.016 -19.869  0.00  0.00    -0.003 C 
ATOM      5  C   UNL     1      34.541 -22.636 -17.974  0.00  0.00    +0.004 C 
ATOM      6  C   UNL     1      32.532 -21.648 -18.882  0.00  0.00    +0.004 C 
ENDROOT
BRANCH   2   9
ATOM      7  O   UNL     1      32.909 -23.889 -16.094  0.00  0.00    -0.270 OA
ATOM      8  N   UNL     1      30.997 -22.825 -16.866  0.00  0.00    -0.296 N 
ATOM      9  C   UNL     1      32.351 -23.132 -16.885  0.00  0.00    +0.246 C 
ATOM     10  H   UNL     1      30.643 -22.206 -17.543  0.00  0.00    +0.150 HD
BRANCH   8  11
ATOM     11  C   UNL     1      30.091 -23.379 -15.893  0.00  0.00    +0.141 C 
BRANCH  11  13
ATOM     12  O   UNL     1      28.380 -23.652 -17.576  0.00  0.00    -0.294 OA
ATOM     13  C   UNL     1      28.686 -23.240 -16.457  0.00  0.00    +0.169 C 
ATOM     14  C   UNL     1      27.683 -22.517 -15.596  0.00  0.00    +0.074 C 
ENDBRANCH  11  13
BRANCH  11  15
ATOM     15  C   UNL     1      30.194 -22.677 -14.544  0.00  0.00    +0.136 C 
BRANCH  15  17
ATOM     16  O   UNL     1      30.494 -24.537 -13.031  0.00  0.00    -0.250 OA
ATOM     17  C   UNL     1      30.944 -23.519 -13.542  0.00  0.00    +0.316 C 
BRANCH  17  18
ATOM     18  O   UNL     1      32.172 -23.019 -13.257  0.00  0.00    -0.480 OA
ATOM     19  H   UNL     1      32.911 -23.266 -13.777  0.00  0.00    +0.295 HD
ENDBRANCH  17  18
ENDBRANCH  15  17
ENDBRANCH  11  15
ENDBRANCH   8  11
ENDBRANCH   2   9
BRANCH   1  20
ATOM     20  C   UNL     1      35.483 -20.519 -20.962  0.00  0.00    +0.118 C 
BRANCH  20  21
ATOM     21  N   UNL     1      34.829 -19.296 -21.490  0.00  0.00    -0.175 NA
ATOM     22  H   UNL     1      34.467 -19.531 -22.414  0.00  0.00    +0.149 HD
BRANCH  21  23
ATOM     23  S   UNL     1      35.727 -17.866 -21.664  0.00  0.00    +0.061 S 
ATOM     24  O   UNL     1      37.106 -18.197 -21.969  0.00  0.00    -0.153 OA
ATOM     25  O   UNL     1      35.416 -16.981 -20.557  0.00  0.00    -0.153 OA
BRANCH  23  26
ATOM     26  C   UNL     1      35.004 -17.155 -23.112  0.00  0.00    +0.122 C 
ATOM     27  C   UNL     1      34.471 -15.867 -23.064  0.00  0.00    +0.029 C 
ATOM     28  C   UNL     1      34.968 -17.882 -24.302  0.00  0.00    +0.023 C 
ATOM     29  C   UNL     1      33.903 -15.305 -24.207  0.00  0.00    +0.110 C 
ATOM     30  C   UNL     1      34.400 -17.319 -25.445  0.00  0.00    +0.038 C 
ATOM     31  C   UNL     1      33.867 -16.031 -25.397  0.00  0.00    +0.140 C 
BRANCH  31  32
ATOM     32  O   UNL     1      33.316 -15.500 -26.525  0.00  0.00    -0.505 OA
ATOM     33  H   UNL     1      33.427 -14.589 -26.715  0.00  0.00    +0.292 HD
ENDBRANCH  31  32
BRANCH  29  35
ATOM     34  O   UNL     1      33.686 -13.012 -24.856  0.00  0.00    -0.245 OA
ATOM     35  C   UNL     1      33.353 -13.958 -24.137  0.00  0.00    +0.341 C 
BRANCH  35  36
ATOM     36  O   UNL     1      32.402 -13.836 -23.171  0.00  0.00    -0.477 OA
ATOM     37  H   UNL     1      31.605 -14.325 -23.234  0.00  0.00    +0.295 HD
ENDBRANCH  35  36
ENDBRANCH  29  35
ENDBRANCH  23  26
ENDBRANCH  21  23
ENDBRANCH  20  21
ENDBRANCH   1  20
TORSDOF 13
ENDMDL
MODEL 9
REMARK VINA RESULT:     -10.4      3.795     11.435
REMARK  Name = 5287429
REMARK  13 active torsions:
REMARK  status: ('A' for Active; 'I' for Inactive)
REMARK    1  A    between atoms: C_1  and  C_20
REMARK    2  A    between atoms: C_2  and  C_9
REMARK    3  A    between atoms: N_8  and  C_11
REMARK    4  A    between atoms: C_11  and  C_13
REMARK    5  A    between atoms: C_11  and  C_15
REMARK    6  A    between atoms: C_15  and  C_17
REMARK    7  A    between atoms: C_17  and  O_18
REMARK    8  A    between atoms: C_20  and  N_21
REMARK    9  A    between atoms: N_21  and  S_23
REMARK   10  A    between atoms: S_23  and  C_26
REMARK   11  A    between atoms: C_29  and  C_35
REMARK   12  A    between atoms: C_31  and  O_32
REMARK   13  A    between atoms: C_35  and  O_36
REMARK                            x       y       z     vdW  Elec       q    Type
REMARK                         _______ _______ _______ _____ _____    ______ ____
ROOT
ATOM      1  C   UNL     1      33.630 -14.812 -23.205  0.00  0.00    -0.005 C 
ATOM      2  C   UNL     1      32.504 -12.354 -22.516  0.00  0.00    +0.053 C 
ATOM      3  C   UNL     1      33.854 -13.694 -24.008  0.00  0.00    -0.003 C 
ATOM      4  C   UNL     1      32.843 -14.702 -22.059  0.00  0.00    -0.003 C 
ATOM      5  C   UNL     1      33.292 -12.465 -23.663  0.00  0.00    +0.004 C 
ATOM      6  C   UNL     1      32.280 -13.473 -21.715  0.00  0.00    +0.004 C 
ENDROOT
BRANCH   2   9
ATOM      7  O   UNL     1      30.874 -11.023 -21.482  0.00  0.00    -0.270 OA
ATOM      8  N   UNL     1      32.591  -9.918 -22.585  0.00  0.00    -0.296 N 
ATOM      9  C   UNL     1      31.905 -11.045 -22.150  0.00  0.00    +0.246 C 
ATOM     10  H   UNL     1      33.410 -10.040 -23.116  0.00  0.00    +0.150 HD
BRANCH   8  11
ATOM     11  C   UNL     1      32.150  -8.580 -22.288  0.00  0.00    +0.141 C 
BRANCH  11  13
ATOM     12  O   UNL     1      30.966  -7.978 -24.306  0.00  0.00    -0.294 OA
ATOM     13  C   UNL     1      31.978  -7.859 -23.616  0.00  0.00    +0.169 C 
ATOM     14  C   UNL     1      33.140  -7.021 -24.082  0.00  0.00    +0.074 C 
ENDBRANCH  11  13
BRANCH  11  15
ATOM     15  C   UNL     1      33.136  -7.832 -21.400  0.00  0.00    +0.136 C 
BRANCH  15  17
ATOM     16  O   UNL     1      32.786  -6.751 -19.268  0.00  0.00    -0.250 OA
ATOM     17  C   UNL     1      32.633  -7.734 -19.981  0.00  0.00    +0.316 C 
BRANCH  17  18
ATOM     18  O   UNL     1      32.000  -8.862 -19.574  0.00  0.00    -0.480 OA
ATOM     19  H   UNL     1      31.158  -8.806 -19.166  0.00  0.00    +0.295 HD
ENDBRANCH  17  18
ENDBRANCH  15  17
ENDBRANCH  11  15
ENDBRANCH   8  11
ENDBRANCH   2   9
BRANCH   1  20
ATOM     20  C   UNL     1      34.233 -16.126 -23.573  0.00  0.00    +0.118 C 
BRANCH  20  21
ATOM     21  N   UNL     1      34.871 -16.806 -22.419  0.00  0.00    -0.175 NA
ATOM     22  H   UNL     1      35.573 -16.165 -22.050  0.00  0.00    +0.149 HD
BRANCH  21  23
ATOM     23  S   UNL     1      35.640 -18.303 -22.640  0.00  0.00    +0.061 S 
ATOM     24  O   UNL     1      37.009 -18.216 -22.169  0.00  0.00    -0.153 OA
ATOM     25  O   UNL     1      35.358 -18.779 -23.981  0.00  0.00    -0.153 OA
BRANCH  23  26
ATOM     26  C   UNL     1      34.745 -19.342 -21.524  0.00  0.00    +0.122 C 
ATOM     27  C   UNL     1      35.433 -20.135 -20.606  0.00  0.00    +0.029 C 
ATOM     28  C   UNL     1      33.351 -19.369 -21.563  0.00  0.00    +0.023 C 
ATOM     29  C   UNL     1      34.728 -20.953 -19.724  0.00  0.00    +0.110 C 
ATOM     30  C   UNL     1      32.645 -20.187 -20.681  0.00  0.00    +0.038 C 
ATOM     31  C   UNL     1      33.334 -20.980 -19.763  0.00  0.00    +0.140 C 
BRANCH  31  32
ATOM     32  O   UNL     1      32.625 -21.772 -18.909  0.00  0.00    -0.505 OA
ATOM     33  H   UNL     1      31.725 -21.965 -19.088  0.00  0.00    +0.292 HD
ENDBRANCH  31  32
BRANCH  29  35
ATOM     34  O   UNL     1      35.095 -22.865 -18.334  0.00  0.00    -0.245 OA
ATOM     35  C   UNL     1      35.465 -21.772 -18.772  0.00  0.00    +0.341 C 
BRANCH  35  36
ATOM     36  O   UNL     1      36.641 -21.199 -18.397  0.00  0.00    -0.477 OA
ATOM     37  H   UNL     1      36.767 -20.276 -18.501  0.00  0.00    +0.295 HD
ENDBRANCH  35  36
ENDBRANCH  29  35
ENDBRANCH  23  26
ENDBRANCH  21  23
ENDBRANCH  20  21
ENDBRANCH   1  20
TORSDOF 13
ENDMDL
