MODEL 1
REMARK VINA RESULT:      -8.3      0.000      0.000
REMARK  Name = 3162
REMARK  6 active torsions:
REMARK  status: ('A' for Active; 'I' for Inactive)
REMARK    1  A    between atoms: C_1  and  C_4
REMARK    2  A    between atoms: C_1  and  C_9
REMARK    3  A    between atoms: C_1  and  O_15
REMARK    4  A    between atoms: O_15  and  C_16
REMARK    5  A    between atoms: C_16  and  C_17
REMARK    6  A    between atoms: C_17  and  N_18
REMARK                            x       y       z     vdW  Elec       q    Type
REMARK                         _______ _______ _______ _____ _____    ______ ____
ROOT
ATOM      1  C   UNL     1      34.935 -18.606 -21.724  0.00  0.00    +0.146 C 
ATOM      2  C   UNL     1      36.460 -18.547 -21.945  0.00  0.00    +0.040 C 
ENDROOT
BRANCH   1   4
ATOM      3  N   UNL     1      35.154 -16.442 -20.658  0.00  0.00    -0.246 NA
ATOM      4  C   UNL     1      34.304 -17.305 -21.216  0.00  0.00    +0.087 C 
ATOM      5  C   UNL     1      32.955 -17.146 -21.375  0.00  0.00    +0.017 C 
ATOM      6  C   UNL     1      32.413 -15.955 -20.903  0.00  0.00    +0.003 C 
ATOM      7  C   UNL     1      34.592 -15.297 -20.211  0.00  0.00    +0.099 C 
ATOM      8  C   UNL     1      33.240 -15.008 -20.309  0.00  0.00    +0.021 C 
ENDBRANCH   1   4
BRANCH   1   9
ATOM      9  C   UNL     1      34.608 -19.783 -20.795  0.00  0.00    +0.007 C 
ATOM     10  C   UNL     1      35.649 -20.494 -20.249  0.00  0.00    -0.002 C 
ATOM     11  C   UNL     1      33.288 -20.075 -20.549  0.00  0.00    -0.002 C 
ATOM     12  C   UNL     1      35.351 -21.564 -19.405  0.00  0.00    -0.000 C 
ATOM     13  C   UNL     1      32.991 -21.145 -19.705  0.00  0.00    -0.000 C 
ATOM     14  C   UNL     1      34.022 -21.890 -19.133  0.00  0.00    -0.000 C 
ENDBRANCH   1   9
BRANCH   1  15
ATOM     15  O   UNL     1      34.413 -18.848 -23.023  0.00  0.00    -0.351 OA
BRANCH  15  16
ATOM     16  C   UNL     1      35.220 -18.248 -24.028  0.00  0.00    +0.120 C 
BRANCH  16  17
ATOM     17  C   UNL     1      34.311 -17.667 -25.101  0.00  0.00    -0.045 C 
BRANCH  17  18
ATOM     18  N   UNL     1      33.881 -16.317 -24.738  0.00  0.00    +0.386 N 
ATOM     19  C   UNL     1      33.421 -15.591 -25.921  0.00  0.00    -0.101 C 
ATOM     20  C   UNL     1      34.971 -15.592 -24.085  0.00  0.00    -0.101 C 
ATOM     21  H   UNL     1      33.104 -16.391 -24.082  0.00  0.00    -0.080 HD
ENDBRANCH  17  18
ENDBRANCH  16  17
ENDBRANCH  15  16
ENDBRANCH   1  15
TORSDOF 6
ENDMDL
MODEL 2
REMARK VINA RESULT:      -7.7      6.005      9.558
REMARK  Name = 3162
REMARK  6 active torsions:
REMARK  status: ('A' for Active; 'I' for Inactive)
REMARK    1  A    between atoms: C_1  and  C_4
REMARK    2  A    between atoms: C_1  and  C_9
REMARK    3  A    between atoms: C_1  and  O_15
REMARK    4  A    between atoms: O_15  and  C_16
REMARK    5  A    between atoms: C_16  and  C_17
REMARK    6  A    between atoms: C_17  and  N_18
REMARK                            x       y       z     vdW  Elec       q    Type
REMARK                         _______ _______ _______ _____ _____    ______ ____
ROOT
ATOM      1  C   UNL     1      34.869 -23.524 -15.691  0.00  0.00    +0.146 C 
ATOM      2  C   UNL     1      35.587 -23.202 -14.365  0.00  0.00    +0.040 C 
ENDROOT
BRANCH   1   4
ATOM      3  N   UNL     1      34.615 -22.843 -18.001  0.00  0.00    -0.246 NA
ATOM      4  C   UNL     1      35.373 -22.741 -16.908  0.00  0.00    +0.087 C 
ATOM      5  C   UNL     1      36.528 -22.023 -16.771  0.00  0.00    +0.017 C 
ATOM      6  C   UNL     1      36.959 -21.324 -17.894  0.00  0.00    +0.003 C 
ATOM      7  C   UNL     1      35.065 -22.152 -19.072  0.00  0.00    +0.099 C 
ATOM      8  C   UNL     1      36.219 -21.385 -19.070  0.00  0.00    +0.021 C 
ENDBRANCH   1   4
BRANCH   1   9
ATOM      9  C   UNL     1      33.357 -23.343 -15.499  0.00  0.00    +0.007 C 
ATOM     10  C   UNL     1      32.558 -23.295 -16.616  0.00  0.00    -0.002 C 
ATOM     11  C   UNL     1      32.867 -23.236 -14.220  0.00  0.00    -0.002 C 
ATOM     12  C   UNL     1      31.184 -23.131 -16.442  0.00  0.00    -0.000 C 
ATOM     13  C   UNL     1      31.493 -23.072 -14.047  0.00  0.00    -0.000 C 
ATOM     14  C   UNL     1      30.651 -23.019 -15.157  0.00  0.00    -0.000 C 
ENDBRANCH   1   9
BRANCH   1  15
ATOM     15  O   UNL     1      35.172 -24.894 -15.916  0.00  0.00    -0.351 OA
BRANCH  15  16
ATOM     16  C   UNL     1      35.765 -25.492 -14.771  0.00  0.00    +0.120 C 
BRANCH  16  17
ATOM     17  C   UNL     1      36.802 -26.505 -15.230  0.00  0.00    -0.045 C 
BRANCH  17  18
ATOM     18  N   UNL     1      37.836 -26.683 -14.211  0.00  0.00    +0.386 N 
ATOM     19  C   UNL     1      37.324 -26.308 -12.893  0.00  0.00    -0.101 C 
ATOM     20  C   UNL     1      39.022 -25.893 -14.543  0.00  0.00    -0.101 C 
ATOM     21  H   UNL     1      38.100 -27.668 -14.187  0.00  0.00    -0.080 HD
ENDBRANCH  17  18
ENDBRANCH  16  17
ENDBRANCH  15  16
ENDBRANCH   1  15
TORSDOF 6
ENDMDL
MODEL 3
REMARK VINA RESULT:      -7.6      1.501      3.462
REMARK  Name = 3162
REMARK  6 active torsions:
REMARK  status: ('A' for Active; 'I' for Inactive)
REMARK    1  A    between atoms: C_1  and  C_4
REMARK    2  A    between atoms: C_1  and  C_9
REMARK    3  A    between atoms: C_1  and  O_15
REMARK    4  A    between atoms: O_15  and  C_16
REMARK    5  A    between atoms: C_16  and  C_17
REMARK    6  A    between atoms: C_17  and  N_18
REMARK                            x       y       z     vdW  Elec       q    Type
REMARK                         _______ _______ _______ _____ _____    ______ ____
ROOT
ATOM      1  C   UNL     1      34.383 -17.915 -21.409  0.00  0.00    +0.146 C 
ATOM      2  C   UNL     1      32.980 -17.578 -20.867  0.00  0.00    +0.040 C 
ENDROOT
BRANCH   1   4
ATOM      3  N   UNL     1      34.550 -16.779 -23.541  0.00  0.00    -0.246 NA
ATOM      4  C   UNL     1      34.493 -17.966 -22.937  0.00  0.00    +0.087 C 
ATOM      5  C   UNL     1      34.522 -19.196 -23.534  0.00  0.00    +0.017 C 
ATOM      6  C   UNL     1      34.621 -19.208 -24.920  0.00  0.00    +0.003 C 
ATOM      7  C   UNL     1      34.646 -16.830 -24.888  0.00  0.00    +0.099 C 
ATOM      8  C   UNL     1      34.686 -18.007 -25.618  0.00  0.00    +0.021 C 
ENDBRANCH   1   4
BRANCH   1   9
ATOM      9  C   UNL     1      34.865 -19.225 -20.771  0.00  0.00    +0.007 C 
ATOM     10  C   UNL     1      36.218 -19.433 -20.648  0.00  0.00    -0.002 C 
ATOM     11  C   UNL     1      33.925 -20.134 -20.351  0.00  0.00    -0.002 C 
ATOM     12  C   UNL     1      36.657 -20.623 -20.069  0.00  0.00    -0.000 C 
ATOM     13  C   UNL     1      34.364 -21.324 -19.771  0.00  0.00    -0.000 C 
ATOM     14  C   UNL     1      35.730 -21.570 -19.630  0.00  0.00    -0.000 C 
ENDBRANCH   1   9
BRANCH   1  15
ATOM     15  O   UNL     1      35.187 -16.830 -20.965  0.00  0.00    -0.351 OA
BRANCH  15  16
ATOM     16  C   UNL     1      34.396 -15.793 -20.400  0.00  0.00    +0.120 C 
BRANCH  16  17
ATOM     17  C   UNL     1      34.624 -14.516 -21.195  0.00  0.00    -0.045 C 
BRANCH  17  18
ATOM     18  N   UNL     1      33.512 -14.275 -22.114  0.00  0.00    +0.386 N 
ATOM     19  C   UNL     1      33.930 -13.391 -23.201  0.00  0.00    -0.101 C 
ATOM     20  C   UNL     1      32.373 -13.701 -21.397  0.00  0.00    -0.101 C 
ATOM     21  H   UNL     1      33.225 -15.167 -22.515  0.00  0.00    -0.080 HD
ENDBRANCH  17  18
ENDBRANCH  16  17
ENDBRANCH  15  16
ENDBRANCH   1  15
TORSDOF 6
ENDMDL
MODEL 4
REMARK VINA RESULT:      -7.3      1.631      4.549
REMARK  Name = 3162
REMARK  6 active torsions:
REMARK  status: ('A' for Active; 'I' for Inactive)
REMARK    1  A    between atoms: C_1  and  C_4
REMARK    2  A    between atoms: C_1  and  C_9
REMARK    3  A    between atoms: C_1  and  O_15
REMARK    4  A    between atoms: O_15  and  C_16
REMARK    5  A    between atoms: C_16  and  C_17
REMARK    6  A    between atoms: C_17  and  N_18
REMARK                            x       y       z     vdW  Elec       q    Type
REMARK                         _______ _______ _______ _____ _____    ______ ____
ROOT
ATOM      1  C   UNL     1      35.781 -18.598 -21.421  0.00  0.00    +0.146 C 
ATOM      2  C   UNL     1      37.293 -18.894 -21.458  0.00  0.00    +0.040 C 
ENDROOT
BRANCH   1   4
ATOM      3  N   UNL     1      35.614 -20.568 -20.023  0.00  0.00    -0.246 NA
ATOM      4  C   UNL     1      34.928 -19.664 -20.724  0.00  0.00    +0.087 C 
ATOM      5  C   UNL     1      33.571 -19.598 -20.878  0.00  0.00    +0.017 C 
ATOM      6  C   UNL     1      32.827 -20.579 -20.234  0.00  0.00    +0.003 C 
ATOM      7  C   UNL     1      34.857 -21.507 -19.412  0.00  0.00    +0.099 C 
ATOM      8  C   UNL     1      33.474 -21.556 -19.485  0.00  0.00    +0.021 C 
ENDBRANCH   1   4
BRANCH   1   9
ATOM      9  C   UNL     1      35.285 -18.335 -22.849  0.00  0.00    +0.007 C 
ATOM     10  C   UNL     1      34.775 -19.389 -23.569  0.00  0.00    -0.002 C 
ATOM     11  C   UNL     1      35.373 -17.058 -23.348  0.00  0.00    -0.002 C 
ATOM     12  C   UNL     1      34.325 -19.150 -24.867  0.00  0.00    -0.000 C 
ATOM     13  C   UNL     1      34.922 -16.820 -24.646  0.00  0.00    -0.000 C 
ATOM     14  C   UNL     1      34.398 -17.866 -25.407  0.00  0.00    -0.000 C 
ENDBRANCH   1   9
BRANCH   1  15
ATOM     15  O   UNL     1      35.687 -17.411 -20.645  0.00  0.00    -0.351 OA
BRANCH  15  16
ATOM     16  C   UNL     1      34.461 -16.731 -20.879  0.00  0.00    +0.120 C 
BRANCH  16  17
ATOM     17  C   UNL     1      34.621 -15.277 -20.462  0.00  0.00    -0.045 C 
BRANCH  17  18
ATOM     18  N   UNL     1      33.591 -14.445 -21.085  0.00  0.00    +0.386 N 
ATOM     19  C   UNL     1      32.340 -15.191 -21.212  0.00  0.00    -0.101 C 
ATOM     20  C   UNL     1      34.040 -13.971 -22.394  0.00  0.00    -0.101 C 
ATOM     21  H   UNL     1      33.426 -13.635 -20.488  0.00  0.00    -0.080 HD
ENDBRANCH  17  18
ENDBRANCH  16  17
ENDBRANCH  15  16
ENDBRANCH   1  15
TORSDOF 6
ENDMDL
MODEL 5
REMARK VINA RESULT:      -7.3      6.738     10.222
REMARK  Name = 3162
REMARK  6 active torsions:
REMARK  status: ('A' for Active; 'I' for Inactive)
REMARK    1  A    between atoms: C_1  and  C_4
REMARK    2  A    between atoms: C_1  and  C_9
REMARK    3  A    between atoms: C_1  and  O_15
REMARK    4  A    between atoms: O_15  and  C_16
REMARK    5  A    between atoms: C_16  and  C_17
REMARK    6  A    between atoms: C_17  and  N_18
REMARK                            x       y       z     vdW  Elec       q    Type
REMARK                         _______ _______ _______ _____ _____    ______ ____
ROOT
ATOM      1  C   UNL     1      34.886 -23.838 -15.131  0.00  0.00    +0.146 C 
ATOM      2  C   UNL     1      34.696 -22.770 -14.037  0.00  0.00    +0.040 C 
ENDROOT
BRANCH   1   4
ATOM      3  N   UNL     1      35.979 -25.970 -15.489  0.00  0.00    -0.246 NA
ATOM      4  C   UNL     1      36.092 -24.763 -14.933  0.00  0.00    +0.087 C 
ATOM      5  C   UNL     1      37.154 -24.282 -14.220  0.00  0.00    +0.017 C 
ATOM      6  C   UNL     1      38.232 -25.145 -14.057  0.00  0.00    +0.003 C 
ATOM      7  C   UNL     1      37.045 -26.781 -15.310  0.00  0.00    +0.099 C 
ATOM      8  C   UNL     1      38.184 -26.420 -14.610  0.00  0.00    +0.021 C 
ENDBRANCH   1   4
BRANCH   1   9
ATOM      9  C   UNL     1      34.932 -23.150 -16.502  0.00  0.00    +0.007 C 
ATOM     10  C   UNL     1      33.822 -23.225 -17.309  0.00  0.00    -0.002 C 
ATOM     11  C   UNL     1      36.079 -22.486 -16.863  0.00  0.00    -0.002 C 
ATOM     12  C   UNL     1      33.864 -22.599 -18.555  0.00  0.00    -0.000 C 
ATOM     13  C   UNL     1      36.120 -21.860 -18.108  0.00  0.00    -0.000 C 
ATOM     14  C   UNL     1      35.013 -21.916 -18.955  0.00  0.00    -0.000 C 
ENDBRANCH   1   9
BRANCH   1  15
ATOM     15  O   UNL     1      33.718 -24.642 -15.027  0.00  0.00    -0.351 OA
BRANCH  15  16
ATOM     16  C   UNL     1      33.001 -24.367 -13.831  0.00  0.00    +0.120 C 
BRANCH  16  17
ATOM     17  C   UNL     1      31.637 -25.034 -13.915  0.00  0.00    -0.045 C 
BRANCH  17  18
ATOM     18  N   UNL     1      30.817 -24.404 -14.950  0.00  0.00    +0.386 N 
ATOM     19  C   UNL     1      30.702 -22.967 -14.706  0.00  0.00    -0.101 C 
ATOM     20  C   UNL     1      29.493 -25.024 -15.000  0.00  0.00    -0.101 C 
ATOM     21  H   UNL     1      31.273 -24.544 -15.852  0.00  0.00    -0.080 HD
ENDBRANCH  17  18
ENDBRANCH  16  17
ENDBRANCH  15  16
ENDBRANCH   1  15
TORSDOF 6
ENDMDL
MODEL 6
REMARK VINA RESULT:      -7.3      7.981     10.384
REMARK  Name = 3162
REMARK  6 active torsions:
REMARK  status: ('A' for Active; 'I' for Inactive)
REMARK    1  A    between atoms: C_1  and  C_4
REMARK    2  A    between atoms: C_1  and  C_9
REMARK    3  A    between atoms: C_1  and  O_15
REMARK    4  A    between atoms: O_15  and  C_16
REMARK    5  A    between atoms: C_16  and  C_17
REMARK    6  A    between atoms: C_17  and  N_18
REMARK                            x       y       z     vdW  Elec       q    Type
REMARK                         _______ _______ _______ _____ _____    ______ ____
ROOT
ATOM      1  C   UNL     1      32.454  -8.671 -22.490  0.00  0.00    +0.146 C 
ATOM      2  C   UNL     1      33.179  -7.388 -22.039  0.00  0.00    +0.040 C 
ENDROOT
BRANCH   1   4
ATOM      3  N   UNL     1      32.358  -9.203 -20.129  0.00  0.00    -0.246 NA
ATOM      4  C   UNL     1      31.987  -9.586 -21.352  0.00  0.00    +0.087 C 
ATOM      5  C   UNL     1      31.247 -10.687 -21.681  0.00  0.00    +0.017 C 
ATOM      6  C   UNL     1      30.839 -11.496 -20.626  0.00  0.00    +0.003 C 
ATOM      7  C   UNL     1      31.945 -10.014 -19.130  0.00  0.00    +0.099 C 
ATOM      8  C   UNL     1      31.191 -11.160 -19.323  0.00  0.00    +0.021 C 
ENDBRANCH   1   4
BRANCH   1   9
ATOM      9  C   UNL     1      33.346  -9.429 -23.482  0.00  0.00    +0.007 C 
ATOM     10  C   UNL     1      34.443  -8.784 -24.000  0.00  0.00    -0.002 C 
ATOM     11  C   UNL     1      33.010 -10.720 -23.811  0.00  0.00    -0.002 C 
ATOM     12  C   UNL     1      35.254  -9.473 -24.901  0.00  0.00    -0.000 C 
ATOM     13  C   UNL     1      33.822 -11.409 -24.712  0.00  0.00    -0.000 C 
ATOM     14  C   UNL     1      34.944 -10.786 -25.258  0.00  0.00    -0.000 C 
ENDBRANCH   1   9
BRANCH   1  15
ATOM     15  O   UNL     1      31.290  -8.190 -23.148  0.00  0.00    -0.351 OA
BRANCH  15  16
ATOM     16  C   UNL     1      31.151  -6.783 -22.998  0.00  0.00    +0.120 C 
BRANCH  16  17
ATOM     17  C   UNL     1      30.948  -6.164 -24.372  0.00  0.00    -0.045 C 
BRANCH  17  18
ATOM     18  N   UNL     1      30.819  -4.710 -24.269  0.00  0.00    +0.386 N 
ATOM     19  C   UNL     1      31.643  -4.051 -25.282  0.00  0.00    -0.101 C 
ATOM     20  C   UNL     1      31.194  -4.258 -22.930  0.00  0.00    -0.101 C 
ATOM     21  H   UNL     1      29.844  -4.460 -24.433  0.00  0.00    -0.080 HD
ENDBRANCH  17  18
ENDBRANCH  16  17
ENDBRANCH  15  16
ENDBRANCH   1  15
TORSDOF 6
ENDMDL
MODEL 7
REMARK VINA RESULT:      -7.2      6.849     10.121
REMARK  Name = 3162
REMARK  6 active torsions:
REMARK  status: ('A' for Active; 'I' for Inactive)
REMARK    1  A    between atoms: C_1  and  C_4
REMARK    2  A    between atoms: C_1  and  C_9
REMARK    3  A    between atoms: C_1  and  O_15
REMARK    4  A    between atoms: O_15  and  C_16
REMARK    5  A    between atoms: C_16  and  C_17
REMARK    6  A    between atoms: C_17  and  N_18
REMARK                            x       y       z     vdW  Elec       q    Type
REMARK                         _______ _______ _______ _____ _____    ______ ____
ROOT
ATOM      1  C   UNL     1      34.551 -23.849 -15.139  0.00  0.00    +0.146 C 
ATOM      2  C   UNL     1      35.224 -25.235 -15.172  0.00  0.00    +0.040 C 
ENDROOT
BRANCH   1   4
ATOM      3  N   UNL     1      32.638 -25.005 -14.209  0.00  0.00    -0.246 NA
ATOM      4  C   UNL     1      33.078 -23.853 -14.717  0.00  0.00    +0.087 C 
ATOM      5  C   UNL     1      32.360 -22.703 -14.894  0.00  0.00    +0.017 C 
ATOM      6  C   UNL     1      31.027 -22.740 -14.501  0.00  0.00    +0.003 C 
ATOM      7  C   UNL     1      31.337 -25.003 -13.840  0.00  0.00    +0.099 C 
ATOM      8  C   UNL     1      30.498 -23.908 -13.963  0.00  0.00    +0.021 C 
ENDBRANCH   1   4
BRANCH   1   9
ATOM      9  C   UNL     1      34.738 -23.168 -16.502  0.00  0.00    +0.007 C 
ATOM     10  C   UNL     1      35.910 -22.491 -16.740  0.00  0.00    -0.002 C 
ATOM     11  C   UNL     1      33.726 -23.264 -17.426  0.00  0.00    -0.002 C 
ATOM     12  C   UNL     1      36.080 -21.873 -17.978  0.00  0.00    -0.000 C 
ATOM     13  C   UNL     1      33.897 -22.646 -18.664  0.00  0.00    -0.000 C 
ATOM     14  C   UNL     1      35.073 -21.949 -18.941  0.00  0.00    -0.000 C 
ENDBRANCH   1   9
BRANCH   1  15
ATOM     15  O   UNL     1      35.274 -23.145 -14.138  0.00  0.00    -0.351 OA
BRANCH  15  16
ATOM     16  C   UNL     1      35.949 -24.036 -13.260  0.00  0.00    +0.120 C 
BRANCH  16  17
ATOM     17  C   UNL     1      37.391 -23.576 -13.112  0.00  0.00    -0.045 C 
BRANCH  17  18
ATOM     18  N   UNL     1      38.287 -24.723 -12.966  0.00  0.00    +0.386 N 
ATOM     19  C   UNL     1      38.902 -25.057 -14.250  0.00  0.00    -0.101 C 
ATOM     20  C   UNL     1      37.559 -25.874 -12.433  0.00  0.00    -0.101 C 
ATOM     21  H   UNL     1      39.025 -24.475 -12.308  0.00  0.00    -0.080 HD
ENDBRANCH  17  18
ENDBRANCH  16  17
ENDBRANCH  15  16
ENDBRANCH   1  15
TORSDOF 6
ENDMDL
MODEL 8
REMARK VINA RESULT:      -7.1      7.975     10.663
REMARK  Name = 3162
REMARK  6 active torsions:
REMARK  status: ('A' for Active; 'I' for Inactive)
REMARK    1  A    between atoms: C_1  and  C_4
REMARK    2  A    between atoms: C_1  and  C_9
REMARK    3  A    between atoms: C_1  and  O_15
REMARK    4  A    between atoms: O_15  and  C_16
REMARK    5  A    between atoms: C_16  and  C_17
REMARK    6  A    between atoms: C_17  and  N_18
REMARK                            x       y       z     vdW  Elec       q    Type
REMARK                         _______ _______ _______ _____ _____    ______ ____
ROOT
ATOM      1  C   UNL     1      31.964  -8.672 -22.695  0.00  0.00    +0.146 C 
ATOM      2  C   UNL     1      30.624  -8.589 -23.452  0.00  0.00    +0.040 C 
ENDROOT
BRANCH   1   4
ATOM      3  N   UNL     1      33.055 -10.447 -23.929  0.00  0.00    -0.246 NA
ATOM      4  C   UNL     1      33.148  -9.179 -23.527  0.00  0.00    +0.087 C 
ATOM      5  C   UNL     1      34.171  -8.308 -23.777  0.00  0.00    +0.017 C 
ATOM      6  C   UNL     1      35.230  -8.799 -24.533  0.00  0.00    +0.003 C 
ATOM      7  C   UNL     1      34.101 -10.889 -24.661  0.00  0.00    +0.099 C 
ATOM      8  C   UNL     1      35.202 -10.113 -24.987  0.00  0.00    +0.021 C 
ENDBRANCH   1   4
BRANCH   1   9
ATOM      9  C   UNL     1      31.773  -9.514 -21.427  0.00  0.00    +0.007 C 
ATOM     10  C   UNL     1      31.115 -10.716 -21.533  0.00  0.00    -0.002 C 
ATOM     11  C   UNL     1      32.267  -9.032 -20.239  0.00  0.00    -0.002 C 
ATOM     12  C   UNL     1      30.941 -11.482 -20.381  0.00  0.00    -0.000 C 
ATOM     13  C   UNL     1      32.094  -9.798 -19.088  0.00  0.00    -0.000 C 
ATOM     14  C   UNL     1      31.431 -11.023 -19.157  0.00  0.00    -0.000 C 
ENDBRANCH   1   9
BRANCH   1  15
ATOM     15  O   UNL     1      32.241  -7.322 -22.348  0.00  0.00    -0.351 OA
BRANCH  15  16
ATOM     16  C   UNL     1      31.098  -6.494 -22.520  0.00  0.00    +0.120 C 
BRANCH  16  17
ATOM     17  C   UNL     1      31.531  -5.039 -22.428  0.00  0.00    -0.045 C 
BRANCH  17  18
ATOM     18  N   UNL     1      30.813  -4.224 -23.409  0.00  0.00    +0.386 N 
ATOM     19  C   UNL     1      30.964  -4.788 -24.750  0.00  0.00    -0.101 C 
ATOM     20  C   UNL     1      31.296  -2.844 -23.377  0.00  0.00    -0.101 C 
ATOM     21  H   UNL     1      29.823  -4.225 -23.167  0.00  0.00    -0.080 HD
ENDBRANCH  17  18
ENDBRANCH  16  17
ENDBRANCH  15  16
ENDBRANCH   1  15
TORSDOF 6
ENDMDL
MODEL 9
REMARK VINA RESULT:      -7.1      6.591      9.768
REMARK  Name = 3162
REMARK  6 active torsions:
REMARK  status: ('A' for Active; 'I' for Inactive)
REMARK    1  A    between atoms: C_1  and  C_4
REMARK    2  A    between atoms: C_1  and  C_9
REMARK    3  A    between atoms: C_1  and  O_15
REMARK    4  A    between atoms: O_15  and  C_16
REMARK    5  A    between atoms: C_16  and  C_17
REMARK    6  A    between atoms: C_17  and  N_18
REMARK                            x       y       z     vdW  Elec       q    Type
REMARK                         _______ _______ _______ _____ _____    ______ ____
ROOT
ATOM      1  C   UNL     1      35.393 -23.884 -14.879  0.00  0.00    +0.146 C 
ATOM      2  C   UNL     1      34.926 -25.305 -15.251  0.00  0.00    +0.040 C 
ENDROOT
BRANCH   1   4
ATOM      3  N   UNL     1      34.967 -23.044 -17.110  0.00  0.00    -0.246 NA
ATOM      4  C   UNL     1      35.796 -23.002 -16.066  0.00  0.00    +0.087 C 
ATOM      5  C   UNL     1      36.943 -22.267 -15.954  0.00  0.00    +0.017 C 
ATOM      6  C   UNL     1      37.281 -21.478 -17.048  0.00  0.00    +0.003 C 
ATOM      7  C   UNL     1      35.328 -22.266 -18.155  0.00  0.00    +0.099 C 
ATOM      8  C   UNL     1      36.463 -21.472 -18.173  0.00  0.00    +0.021 C 
ENDBRANCH   1   4
BRANCH   1   9
ATOM      9  C   UNL     1      36.525 -23.982 -13.848  0.00  0.00    +0.007 C 
ATOM     10  C   UNL     1      37.542 -24.878 -14.077  0.00  0.00    -0.002 C 
ATOM     11  C   UNL     1      36.476 -23.169 -12.742  0.00  0.00    -0.002 C 
ATOM     12  C   UNL     1      38.571 -24.967 -13.140  0.00  0.00    -0.000 C 
ATOM     13  C   UNL     1      37.506 -23.258 -11.806  0.00  0.00    -0.000 C 
ATOM     14  C   UNL     1      38.554 -24.157 -12.004  0.00  0.00    -0.000 C 
ENDBRANCH   1   9
BRANCH   1  15
ATOM     15  O   UNL     1      34.243 -23.293 -14.287  0.00  0.00    -0.351 OA
BRANCH  15  16
ATOM     16  C   UNL     1      33.192 -24.238 -14.136  0.00  0.00    +0.120 C 
BRANCH  16  17
ATOM     17  C   UNL     1      31.918 -23.495 -13.764  0.00  0.00    -0.045 C 
BRANCH  17  18
ATOM     18  N   UNL     1      30.848 -23.795 -14.717  0.00  0.00    +0.386 N 
ATOM     19  C   UNL     1      30.458 -25.201 -14.619  0.00  0.00    -0.101 C 
ATOM     20  C   UNL     1      31.274 -23.475 -16.079  0.00  0.00    -0.101 C 
ATOM     21  H   UNL     1      30.040 -23.219 -14.487  0.00  0.00    -0.080 HD
ENDBRANCH  17  18
ENDBRANCH  16  17
ENDBRANCH  15  16
ENDBRANCH   1  15
TORSDOF 6
ENDMDL
