MODEL 1
REMARK VINA RESULT:     -10.1      0.000      0.000
REMARK  Name = 11987780
REMARK  6 active torsions:
REMARK  status: ('A' for Active; 'I' for Inactive)
REMARK    1  A    between atoms: N_3  and  C_20
REMARK    2  A    between atoms: C_20  and  C_21
REMARK    3  A    between atoms: C_21  and  C_22
REMARK    4  A    between atoms: C_22  and  N_23
REMARK    5  A    between atoms: N_23  and  S_25
REMARK    6  A    between atoms: S_25  and  C_28
REMARK                            x       y       z     vdW  Elec       q    Type
REMARK                         _______ _______ _______ _____ _____    ______ ____
ROOT
ATOM      1  O   UNL     1      33.472 -24.160 -12.795  0.00  0.00    -0.294 OA
ATOM      2  N   UNL     1      30.984 -24.675 -15.298  0.00  0.00    +0.397 N 
ATOM      3  N   UNL     1      33.670 -22.980 -17.206  0.00  0.00    -0.332 N 
ATOM      4  C   UNL     1      31.388 -23.762 -16.397  0.00  0.00    -0.018 C 
ATOM      5  C   UNL     1      32.831 -23.425 -16.226  0.00  0.00    +0.020 A 
ATOM      6  C   UNL     1      30.526 -22.491 -16.471  0.00  0.00    -0.015 C 
ATOM      7  C   UNL     1      29.554 -25.005 -15.382  0.00  0.00    -0.076 C 
ATOM      8  C   UNL     1      29.042 -22.834 -16.557  0.00  0.00    -0.004 C 
ATOM      9  C   UNL     1      33.545 -23.534 -15.055  0.00  0.00    +0.044 A 
ATOM     10  C   UNL     1      28.637 -23.782 -15.435  0.00  0.00    -0.023 C 
ATOM     11  C   UNL     1      31.362 -24.199 -13.952  0.00  0.00    -0.006 C 
ATOM     12  C   UNL     1      32.875 -23.999 -13.856  0.00  0.00    +0.153 C 
ATOM     13  C   UNL     1      34.884 -23.140 -15.327  0.00  0.00    +0.019 A 
ATOM     14  C   UNL     1      34.934 -22.795 -16.684  0.00  0.00    +0.060 A 
ATOM     15  C   UNL     1      36.063 -23.038 -14.562  0.00  0.00    +0.002 C 
ATOM     16  C   UNL     1      36.108 -22.354 -17.307  0.00  0.00    +0.017 C 
ATOM     17  C   UNL     1      37.242 -22.598 -15.174  0.00  0.00    +0.000 C 
ATOM     18  C   UNL     1      37.262 -22.262 -16.525  0.00  0.00    +0.001 C 
ATOM     19  H   UNL     1      31.520 -25.532 -15.435  0.00  0.00    -0.078 HD
ENDROOT
BRANCH   3  20
ATOM     20  C   UNL     1      33.389 -22.830 -18.617  0.00  0.00    +0.107 C 
BRANCH  20  21
ATOM     21  C   UNL     1      33.232 -21.361 -19.018  0.00  0.00    +0.043 C 
BRANCH  21  22
ATOM     22  C   UNL     1      34.036 -21.009 -20.264  0.00  0.00    +0.093 C 
BRANCH  22  23
ATOM     23  N   UNL     1      33.823 -19.592 -20.629  0.00  0.00    -0.183 NA
ATOM     24  H   UNL     1      32.959 -19.550 -21.169  0.00  0.00    +0.148 HD
BRANCH  23  25
ATOM     25  S   UNL     1      35.018 -18.782 -21.536  0.00  0.00    +0.039 S 
ATOM     26  O   UNL     1      35.133 -19.383 -22.850  0.00  0.00    -0.158 OA
ATOM     27  O   UNL     1      36.186 -18.604 -20.696  0.00  0.00    -0.158 OA
BRANCH  25  28
ATOM     28  C   UNL     1      34.256 -17.186 -21.729  0.00  0.00    +0.146 C 
ATOM     29  C   UNL     1      34.576 -16.613 -23.103  0.00  0.00    +0.027 C 
ATOM     30  C   UNL     1      34.705 -16.249 -20.617  0.00  0.00    +0.027 C 
ENDBRANCH  25  28
ENDBRANCH  23  25
ENDBRANCH  22  23
ENDBRANCH  21  22
ENDBRANCH  20  21
ENDBRANCH   3  20
TORSDOF 6
ENDMDL
MODEL 2
REMARK VINA RESULT:      -9.5      3.740      6.705
REMARK  Name = 11987780
REMARK  6 active torsions:
REMARK  status: ('A' for Active; 'I' for Inactive)
REMARK    1  A    between atoms: N_3  and  C_20
REMARK    2  A    between atoms: C_20  and  C_21
REMARK    3  A    between atoms: C_21  and  C_22
REMARK    4  A    between atoms: C_22  and  N_23
REMARK    5  A    between atoms: N_23  and  S_25
REMARK    6  A    between atoms: S_25  and  C_28
REMARK                            x       y       z     vdW  Elec       q    Type
REMARK                         _______ _______ _______ _____ _____    ______ ____
ROOT
ATOM      1  O   UNL     1      38.366 -22.518 -16.176  0.00  0.00    -0.294 OA
ATOM      2  N   UNL     1      36.573 -24.834 -14.140  0.00  0.00    +0.397 N 
ATOM      3  N   UNL     1      33.913 -23.533 -16.368  0.00  0.00    -0.332 N 
ATOM      4  C   UNL     1      35.150 -24.467 -14.350  0.00  0.00    -0.018 C 
ATOM      5  C   UNL     1      35.043 -23.690 -15.619  0.00  0.00    +0.020 A 
ATOM      6  C   UNL     1      34.549 -23.688 -13.169  0.00  0.00    -0.015 C 
ATOM      7  C   UNL     1      36.751 -25.562 -12.876  0.00  0.00    -0.076 C 
ATOM      8  C   UNL     1      34.736 -24.443 -11.856  0.00  0.00    -0.004 C 
ATOM      9  C   UNL     1      36.076 -23.029 -16.241  0.00  0.00    +0.044 A 
ATOM     10  C   UNL     1      36.196 -24.828 -11.654  0.00  0.00    -0.023 C 
ATOM     11  C   UNL     1      37.510 -23.699 -14.260  0.00  0.00    -0.006 C 
ATOM     12  C   UNL     1      37.397 -23.051 -15.642  0.00  0.00    +0.153 C 
ATOM     13  C   UNL     1      35.560 -22.440 -17.428  0.00  0.00    +0.019 A 
ATOM     14  C   UNL     1      34.200 -22.771 -17.482  0.00  0.00    +0.060 A 
ATOM     15  C   UNL     1      36.106 -21.658 -18.466  0.00  0.00    +0.002 C 
ATOM     16  C   UNL     1      33.364 -22.354 -18.525  0.00  0.00    +0.017 C 
ATOM     17  C   UNL     1      35.279 -21.236 -19.513  0.00  0.00    +0.000 C 
ATOM     18  C   UNL     1      33.930 -21.580 -19.541  0.00  0.00    +0.001 C 
ATOM     19  H   UNL     1      36.816 -25.461 -14.908  0.00  0.00    -0.078 HD
ENDROOT
BRANCH   3  20
ATOM     20  C   UNL     1      32.619 -24.147 -16.165  0.00  0.00    +0.107 C 
BRANCH  20  21
ATOM     21  C   UNL     1      31.672 -23.242 -15.376  0.00  0.00    +0.043 C 
BRANCH  21  22
ATOM     22  C   UNL     1      30.671 -22.524 -16.274  0.00  0.00    +0.093 C 
BRANCH  22  23
ATOM     23  N   UNL     1      29.885 -23.504 -17.055  0.00  0.00    -0.183 NA
ATOM     24  H   UNL     1      29.829 -23.148 -18.009  0.00  0.00    +0.148 HD
BRANCH  23  25
ATOM     25  S   UNL     1      28.294 -23.869 -16.563  0.00  0.00    +0.039 S 
ATOM     26  O   UNL     1      28.301 -24.373 -15.204  0.00  0.00    -0.158 OA
ATOM     27  O   UNL     1      27.647 -24.611 -17.627  0.00  0.00    -0.158 OA
BRANCH  25  28
ATOM     28  C   UNL     1      27.577 -22.242 -16.539  0.00  0.00    +0.146 C 
ATOM     29  C   UNL     1      26.685 -22.077 -15.317  0.00  0.00    +0.027 C 
ATOM     30  C   UNL     1      26.809 -21.985 -17.827  0.00  0.00    +0.027 C 
ENDBRANCH  25  28
ENDBRANCH  23  25
ENDBRANCH  22  23
ENDBRANCH  21  22
ENDBRANCH  20  21
ENDBRANCH   3  20
TORSDOF 6
ENDMDL
MODEL 3
REMARK VINA RESULT:      -9.3      9.434     12.732
REMARK  Name = 11987780
REMARK  6 active torsions:
REMARK  status: ('A' for Active; 'I' for Inactive)
REMARK    1  A    between atoms: N_3  and  C_20
REMARK    2  A    between atoms: C_20  and  C_21
REMARK    3  A    between atoms: C_21  and  C_22
REMARK    4  A    between atoms: C_22  and  N_23
REMARK    5  A    between atoms: N_23  and  S_25
REMARK    6  A    between atoms: S_25  and  C_28
REMARK                            x       y       z     vdW  Elec       q    Type
REMARK                         _______ _______ _______ _____ _____    ______ ____
ROOT
ATOM      1  O   UNL     1      32.598 -15.198 -20.240  0.00  0.00    -0.294 OA
ATOM      2  N   UNL     1      34.305 -14.998 -23.366  0.00  0.00    +0.397 N 
ATOM      3  N   UNL     1      32.809 -11.620 -23.077  0.00  0.00    -0.332 N 
ATOM      4  C   UNL     1      33.714 -13.804 -24.020  0.00  0.00    -0.018 C 
ATOM      5  C   UNL     1      33.080 -12.954 -22.971  0.00  0.00    +0.020 A 
ATOM      6  C   UNL     1      32.708 -14.160 -25.128  0.00  0.00    -0.015 C 
ATOM      7  C   UNL     1      34.902 -15.904 -24.357  0.00  0.00    -0.076 C 
ATOM      8  C   UNL     1      33.329 -15.101 -26.156  0.00  0.00    -0.004 C 
ATOM      9  C   UNL     1      32.692 -13.381 -21.722  0.00  0.00    +0.044 A 
ATOM     10  C   UNL     1      33.946 -16.318 -25.477  0.00  0.00    -0.023 C 
ATOM     11  C   UNL     1      33.378 -15.707 -22.460  0.00  0.00    -0.006 C 
ATOM     12  C   UNL     1      32.883 -14.771 -21.356  0.00  0.00    +0.153 C 
ATOM     13  C   UNL     1      32.159 -12.260 -21.028  0.00  0.00    +0.019 A 
ATOM     14  C   UNL     1      32.243 -11.169 -21.903  0.00  0.00    +0.060 A 
ATOM     15  C   UNL     1      31.612 -12.055 -19.745  0.00  0.00    +0.002 C 
ATOM     16  C   UNL     1      31.805  -9.886 -21.552  0.00  0.00    +0.017 C 
ATOM     17  C   UNL     1      31.171 -10.777 -19.384  0.00  0.00    +0.000 C 
ATOM     18  C   UNL     1      31.267  -9.711 -20.275  0.00  0.00    +0.001 C 
ATOM     19  H   UNL     1      35.048 -14.648 -22.762  0.00  0.00    -0.078 HD
ENDROOT
BRANCH   3  20
ATOM     20  C   UNL     1      33.152 -10.727 -24.162  0.00  0.00    +0.107 C 
BRANCH  20  21
ATOM     21  C   UNL     1      34.501 -10.041 -23.936  0.00  0.00    +0.043 C 
BRANCH  21  22
ATOM     22  C   UNL     1      34.477  -8.568 -24.325  0.00  0.00    +0.093 C 
BRANCH  22  23
ATOM     23  N   UNL     1      33.667  -7.794 -23.359  0.00  0.00    -0.183 NA
ATOM     24  H   UNL     1      33.256  -8.464 -22.710  0.00  0.00    +0.148 HD
BRANCH  23  25
ATOM     25  S   UNL     1      32.395  -6.818 -23.940  0.00  0.00    +0.039 S 
ATOM     26  O   UNL     1      31.227  -7.635 -24.205  0.00  0.00    -0.158 OA
ATOM     27  O   UNL     1      32.926  -5.931 -24.955  0.00  0.00    -0.158 OA
BRANCH  25  28
ATOM     28  C   UNL     1      32.056  -5.832 -22.499  0.00  0.00    +0.146 C 
ATOM     29  C   UNL     1      32.636  -6.494 -21.258  0.00  0.00    +0.027 C 
ATOM     30  C   UNL     1      30.558  -5.602 -22.358  0.00  0.00    +0.027 C 
ENDBRANCH  25  28
ENDBRANCH  23  25
ENDBRANCH  22  23
ENDBRANCH  21  22
ENDBRANCH  20  21
ENDBRANCH   3  20
TORSDOF 6
ENDMDL
MODEL 4
REMARK VINA RESULT:      -9.2      8.736     14.606
REMARK  Name = 11987780
REMARK  6 active torsions:
REMARK  status: ('A' for Active; 'I' for Inactive)
REMARK    1  A    between atoms: N_3  and  C_20
REMARK    2  A    between atoms: C_20  and  C_21
REMARK    3  A    between atoms: C_21  and  C_22
REMARK    4  A    between atoms: C_22  and  N_23
REMARK    5  A    between atoms: N_23  and  S_25
REMARK    6  A    between atoms: S_25  and  C_28
REMARK                            x       y       z     vdW  Elec       q    Type
REMARK                         _______ _______ _______ _____ _____    ______ ____
ROOT
ATOM      1  O   UNL     1      31.552  -6.157 -20.186  0.00  0.00    -0.294 OA
ATOM      2  N   UNL     1      31.781  -6.164 -23.745  0.00  0.00    +0.397 N 
ATOM      3  N   UNL     1      32.297  -9.740 -22.925  0.00  0.00    -0.332 N 
ATOM      4  C   UNL     1      32.420  -7.466 -24.060  0.00  0.00    -0.018 C 
ATOM      5  C   UNL     1      32.239  -8.376 -22.892  0.00  0.00    +0.020 A 
ATOM      6  C   UNL     1      33.905  -7.333 -24.436  0.00  0.00    -0.015 C 
ATOM      7  C   UNL     1      31.969  -5.203 -24.842  0.00  0.00    -0.076 C 
ATOM      8  C   UNL     1      34.100  -6.334 -25.573  0.00  0.00    -0.004 C 
ATOM      9  C   UNL     1      31.963  -7.981 -21.604  0.00  0.00    +0.044 A 
ATOM     10  C   UNL     1      33.430  -5.004 -25.249  0.00  0.00    -0.023 C 
ATOM     11  C   UNL     1      32.181  -5.597 -22.441  0.00  0.00    -0.006 C 
ATOM     12  C   UNL     1      31.842  -6.566 -21.307  0.00  0.00    +0.153 C 
ATOM     13  C   UNL     1      31.844  -9.153 -20.808  0.00  0.00    +0.019 A 
ATOM     14  C   UNL     1      32.060 -10.242 -21.662  0.00  0.00    +0.060 A 
ATOM     15  C   UNL     1      31.575  -9.405 -19.448  0.00  0.00    +0.002 C 
ATOM     16  C   UNL     1      32.019 -11.569 -21.216  0.00  0.00    +0.017 C 
ATOM     17  C   UNL     1      31.532 -10.727 -18.991  0.00  0.00    +0.000 C 
ATOM     18  C   UNL     1      31.751 -11.791 -19.862  0.00  0.00    +0.001 C 
ATOM     19  H   UNL     1      30.783  -6.356 -23.655  0.00  0.00    -0.078 HD
ENDROOT
BRANCH   3  20
ATOM     20  C   UNL     1      32.444 -10.596 -24.081  0.00  0.00    +0.107 C 
BRANCH  20  21
ATOM     21  C   UNL     1      33.863 -11.154 -24.206  0.00  0.00    +0.043 C 
BRANCH  21  22
ATOM     22  C   UNL     1      33.878 -12.647 -24.507  0.00  0.00    +0.093 C 
BRANCH  22  23
ATOM     23  N   UNL     1      34.217 -13.415 -23.288  0.00  0.00    -0.183 NA
ATOM     24  H   UNL     1      35.234 -13.491 -23.258  0.00  0.00    +0.148 HD
BRANCH  23  25
ATOM     25  S   UNL     1      33.591 -14.989 -23.100  0.00  0.00    +0.039 S 
ATOM     26  O   UNL     1      33.557 -15.664 -24.383  0.00  0.00    -0.158 OA
ATOM     27  O   UNL     1      32.406 -14.913 -22.269  0.00  0.00    -0.158 OA
BRANCH  25  28
ATOM     28  C   UNL     1      34.876 -15.737 -22.124  0.00  0.00    +0.146 C 
ATOM     29  C   UNL     1      35.128 -17.164 -22.589  0.00  0.00    +0.027 C 
ATOM     30  C   UNL     1      34.512 -15.690 -20.647  0.00  0.00    +0.027 C 
ENDBRANCH  25  28
ENDBRANCH  23  25
ENDBRANCH  22  23
ENDBRANCH  21  22
ENDBRANCH  20  21
ENDBRANCH   3  20
TORSDOF 6
ENDMDL
MODEL 5
REMARK VINA RESULT:      -8.8      3.964      6.614
REMARK  Name = 11987780
REMARK  6 active torsions:
REMARK  status: ('A' for Active; 'I' for Inactive)
REMARK    1  A    between atoms: N_3  and  C_20
REMARK    2  A    between atoms: C_20  and  C_21
REMARK    3  A    between atoms: C_21  and  C_22
REMARK    4  A    between atoms: C_22  and  N_23
REMARK    5  A    between atoms: N_23  and  S_25
REMARK    6  A    between atoms: S_25  and  C_28
REMARK                            x       y       z     vdW  Elec       q    Type
REMARK                         _______ _______ _______ _____ _____    ______ ____
ROOT
ATOM      1  O   UNL     1      32.600 -22.430 -18.574  0.00  0.00    -0.294 OA
ATOM      2  N   UNL     1      30.984 -22.899 -15.429  0.00  0.00    +0.397 N 
ATOM      3  N   UNL     1      34.565 -23.149 -14.510  0.00  0.00    -0.332 N 
ATOM      4  C   UNL     1      32.043 -23.481 -14.566  0.00  0.00    -0.018 C 
ATOM      5  C   UNL     1      33.370 -23.169 -15.171  0.00  0.00    +0.020 A 
ATOM      6  C   UNL     1      31.875 -24.993 -14.345  0.00  0.00    -0.015 C 
ATOM      7  C   UNL     1      29.645 -23.217 -14.912  0.00  0.00    -0.076 C 
ATOM      8  C   UNL     1      30.485 -25.323 -13.809  0.00  0.00    -0.004 C 
ATOM      9  C   UNL     1      33.592 -22.830 -16.485  0.00  0.00    +0.044 A 
ATOM     10  C   UNL     1      29.403 -24.711 -14.691  0.00  0.00    -0.023 C 
ATOM     11  C   UNL     1      31.118 -23.243 -16.859  0.00  0.00    -0.006 C 
ATOM     12  C   UNL     1      32.469 -22.772 -17.402  0.00  0.00    +0.153 C 
ATOM     13  C   UNL     1      34.984 -22.589 -16.641  0.00  0.00    +0.019 A 
ATOM     14  C   UNL     1      35.571 -22.798 -15.386  0.00  0.00    +0.060 A 
ATOM     15  C   UNL     1      35.812 -22.214 -17.719  0.00  0.00    +0.002 C 
ATOM     16  C   UNL     1      36.945 -22.650 -15.163  0.00  0.00    +0.017 C 
ATOM     17  C   UNL     1      37.187 -22.064 -17.507  0.00  0.00    +0.000 C 
ATOM     18  C   UNL     1      37.743 -22.278 -16.248  0.00  0.00    +0.001 C 
ATOM     19  H   UNL     1      31.112 -21.888 -15.387  0.00  0.00    -0.078 HD
ENDROOT
BRANCH   3  20
ATOM     20  C   UNL     1      34.801 -23.324 -13.094  0.00  0.00    +0.107 C 
BRANCH  20  21
ATOM     21  C   UNL     1      34.976 -24.796 -12.719  0.00  0.00    +0.043 C 
BRANCH  21  22
ATOM     22  C   UNL     1      36.428 -25.153 -12.422  0.00  0.00    +0.093 C 
BRANCH  22  23
ATOM     23  N   UNL     1      36.776 -26.449 -13.043  0.00  0.00    -0.183 NA
ATOM     24  H   UNL     1      37.416 -26.923 -12.406  0.00  0.00    +0.148 HD
BRANCH  23  25
ATOM     25  S   UNL     1      37.507 -26.460 -14.584  0.00  0.00    +0.039 S 
ATOM     26  O   UNL     1      36.575 -25.961 -15.576  0.00  0.00    -0.158 OA
ATOM     27  O   UNL     1      38.173 -27.734 -14.764  0.00  0.00    -0.158 OA
BRANCH  25  28
ATOM     28  C   UNL     1      38.771 -25.229 -14.354  0.00  0.00    +0.146 C 
ATOM     29  C   UNL     1      39.839 -25.364 -15.429  0.00  0.00    +0.027 C 
ATOM     30  C   UNL     1      39.368 -25.340 -12.959  0.00  0.00    +0.027 C 
ENDBRANCH  25  28
ENDBRANCH  23  25
ENDBRANCH  22  23
ENDBRANCH  21  22
ENDBRANCH  20  21
ENDBRANCH   3  20
TORSDOF 6
ENDMDL
MODEL 6
REMARK VINA RESULT:      -8.8      2.427      5.426
REMARK  Name = 11987780
REMARK  6 active torsions:
REMARK  status: ('A' for Active; 'I' for Inactive)
REMARK    1  A    between atoms: N_3  and  C_20
REMARK    2  A    between atoms: C_20  and  C_21
REMARK    3  A    between atoms: C_21  and  C_22
REMARK    4  A    between atoms: C_22  and  N_23
REMARK    5  A    between atoms: N_23  and  S_25
REMARK    6  A    between atoms: S_25  and  C_28
REMARK                            x       y       z     vdW  Elec       q    Type
REMARK                         _______ _______ _______ _____ _____    ______ ____
ROOT
ATOM      1  O   UNL     1      34.676 -24.809 -11.072  0.00  0.00    -0.294 OA
ATOM      2  N   UNL     1      37.596 -24.133 -13.007  0.00  0.00    +0.397 N 
ATOM      3  N   UNL     1      34.885 -23.628 -15.483  0.00  0.00    -0.332 N 
ATOM      4  C   UNL     1      37.119 -24.207 -14.411  0.00  0.00    -0.018 C 
ATOM      5  C   UNL     1      35.638 -24.033 -14.418  0.00  0.00    +0.020 A 
ATOM      6  C   UNL     1      37.528 -25.511 -15.116  0.00  0.00    -0.015 C 
ATOM      7  C   UNL     1      39.047 -24.349 -12.928  0.00  0.00    -0.076 C 
ATOM      8  C   UNL     1      39.035 -25.736 -15.033  0.00  0.00    -0.004 C 
ATOM      9  C   UNL     1      34.803 -24.231 -13.343  0.00  0.00    +0.044 A 
ATOM     10  C   UNL     1      39.519 -25.644 -13.591  0.00  0.00    -0.023 C 
ATOM     11  C   UNL     1      36.856 -25.007 -12.074  0.00  0.00    -0.006 C 
ATOM     12  C   UNL     1      35.366 -24.661 -12.077  0.00  0.00    +0.153 C 
ATOM     13  C   UNL     1      33.478 -23.934 -13.764  0.00  0.00    +0.019 A 
ATOM     14  C   UNL     1      33.558 -23.560 -15.111  0.00  0.00    +0.060 A 
ATOM     15  C   UNL     1      32.214 -23.943 -13.141  0.00  0.00    +0.002 C 
ATOM     16  C   UNL     1      32.433 -23.196 -15.861  0.00  0.00    +0.017 C 
ATOM     17  C   UNL     1      31.082 -23.582 -13.881  0.00  0.00    +0.000 C 
ATOM     18  C   UNL     1      31.192 -23.214 -15.220  0.00  0.00    +0.001 C 
ATOM     19  H   UNL     1      37.395 -23.183 -12.694  0.00  0.00    -0.078 HD
ENDROOT
BRANCH   3  20
ATOM     20  C   UNL     1      35.346 -23.193 -16.783  0.00  0.00    +0.107 C 
BRANCH  20  21
ATOM     21  C   UNL     1      36.266 -21.974 -16.688  0.00  0.00    +0.043 C 
BRANCH  21  22
ATOM     22  C   UNL     1      37.078 -21.757 -17.958  0.00  0.00    +0.093 C 
BRANCH  22  23
ATOM     23  N   UNL     1      36.552 -20.599 -18.715  0.00  0.00    -0.183 NA
ATOM     24  H   UNL     1      35.902 -20.112 -18.099  0.00  0.00    +0.148 HD
BRANCH  23  25
ATOM     25  S   UNL     1      35.735 -20.874 -20.186  0.00  0.00    +0.039 S 
ATOM     26  O   UNL     1      35.998 -22.221 -20.653  0.00  0.00    -0.158 OA
ATOM     27  O   UNL     1      35.956 -19.732 -21.051  0.00  0.00    -0.158 OA
BRANCH  25  28
ATOM     28  C   UNL     1      34.044 -20.806 -19.639  0.00  0.00    +0.146 C 
ATOM     29  C   UNL     1      33.498 -22.212 -19.440  0.00  0.00    +0.027 C 
ATOM     30  C   UNL     1      33.200 -20.017 -20.629  0.00  0.00    +0.027 C 
ENDBRANCH  25  28
ENDBRANCH  23  25
ENDBRANCH  22  23
ENDBRANCH  21  22
ENDBRANCH  20  21
ENDBRANCH   3  20
TORSDOF 6
ENDMDL
MODEL 7
REMARK VINA RESULT:      -8.8      3.570      6.806
REMARK  Name = 11987780
REMARK  6 active torsions:
REMARK  status: ('A' for Active; 'I' for Inactive)
REMARK    1  A    between atoms: N_3  and  C_20
REMARK    2  A    between atoms: C_20  and  C_21
REMARK    3  A    between atoms: C_21  and  C_22
REMARK    4  A    between atoms: C_22  and  N_23
REMARK    5  A    between atoms: N_23  and  S_25
REMARK    6  A    between atoms: S_25  and  C_28
REMARK                            x       y       z     vdW  Elec       q    Type
REMARK                         _______ _______ _______ _____ _____    ______ ____
ROOT
ATOM      1  O   UNL     1      38.639 -22.136 -16.366  0.00  0.00    -0.294 OA
ATOM      2  N   UNL     1      36.482 -24.528 -14.835  0.00  0.00    +0.397 N 
ATOM      3  N   UNL     1      34.248 -22.955 -17.339  0.00  0.00    -0.332 N 
ATOM      4  C   UNL     1      35.121 -24.090 -15.235  0.00  0.00    -0.018 C 
ATOM      5  C   UNL     1      35.239 -23.214 -16.436  0.00  0.00    +0.020 A 
ATOM      6  C   UNL     1      34.360 -23.380 -14.103  0.00  0.00    -0.015 C 
ATOM      7  C   UNL     1      36.436 -25.357 -13.622  0.00  0.00    -0.076 C 
ATOM      8  C   UNL     1      34.314 -24.241 -12.843  0.00  0.00    -0.004 C 
ATOM      9  C   UNL     1      36.376 -22.549 -16.832  0.00  0.00    +0.044 A 
ATOM     10  C   UNL     1      35.712 -24.699 -12.447  0.00  0.00    -0.023 C 
ATOM     11  C   UNL     1      37.456 -23.425 -14.712  0.00  0.00    -0.006 C 
ATOM     12  C   UNL     1      37.583 -22.669 -16.036  0.00  0.00    +0.153 C 
ATOM     13  C   UNL     1      36.072 -21.850 -18.033  0.00  0.00    +0.019 A 
ATOM     14  C   UNL     1      34.730 -22.121 -18.327  0.00  0.00    +0.060 A 
ATOM     15  C   UNL     1      36.798 -21.013 -18.904  0.00  0.00    +0.002 C 
ATOM     16  C   UNL     1      34.082 -21.593 -19.450  0.00  0.00    +0.017 C 
ATOM     17  C   UNL     1      36.161 -20.479 -20.030  0.00  0.00    +0.000 C 
ATOM     18  C   UNL     1      34.824 -20.766 -20.298  0.00  0.00    +0.001 C 
ATOM     19  H   UNL     1      36.828 -25.103 -15.603  0.00  0.00    -0.078 HD
ENDROOT
BRANCH   3  20
ATOM     20  C   UNL     1      32.923 -23.531 -17.393  0.00  0.00    +0.107 C 
BRANCH  20  21
ATOM     21  C   UNL     1      31.922 -22.750 -16.539  0.00  0.00    +0.043 C 
BRANCH  21  22
ATOM     22  C   UNL     1      30.548 -22.657 -17.191  0.00  0.00    +0.093 C 
BRANCH  22  23
ATOM     23  N   UNL     1      29.511 -22.389 -16.170  0.00  0.00    -0.183 NA
ATOM     24  H   UNL     1      29.990 -22.308 -15.273  0.00  0.00    +0.148 HD
BRANCH  23  25
ATOM     25  S   UNL     1      28.245 -23.511 -15.961  0.00  0.00    +0.039 S 
ATOM     26  O   UNL     1      28.022 -24.239 -17.194  0.00  0.00    -0.158 OA
ATOM     27  O   UNL     1      27.151 -22.844 -15.283  0.00  0.00    -0.158 OA
BRANCH  25  28
ATOM     28  C   UNL     1      28.988 -24.629 -14.794  0.00  0.00    +0.146 C 
ATOM     29  C   UNL     1      29.920 -23.872 -13.859  0.00  0.00    +0.027 C 
ATOM     30  C   UNL     1      29.720 -25.745 -15.525  0.00  0.00    +0.027 C 
ENDBRANCH  25  28
ENDBRANCH  23  25
ENDBRANCH  22  23
ENDBRANCH  21  22
ENDBRANCH  20  21
ENDBRANCH   3  20
TORSDOF 6
ENDMDL
MODEL 8
REMARK VINA RESULT:      -8.7     11.454     15.767
REMARK  Name = 11987780
REMARK  6 active torsions:
REMARK  status: ('A' for Active; 'I' for Inactive)
REMARK    1  A    between atoms: N_3  and  C_20
REMARK    2  A    between atoms: C_20  and  C_21
REMARK    3  A    between atoms: C_21  and  C_22
REMARK    4  A    between atoms: C_22  and  N_23
REMARK    5  A    between atoms: N_23  and  S_25
REMARK    6  A    between atoms: S_25  and  C_28
REMARK                            x       y       z     vdW  Elec       q    Type
REMARK                         _______ _______ _______ _____ _____    ______ ____
ROOT
ATOM      1  O   UNL     1      30.446  -4.779 -22.298  0.00  0.00    -0.294 OA
ATOM      2  N   UNL     1      32.206  -7.310 -20.503  0.00  0.00    +0.397 N 
ATOM      3  N   UNL     1      33.877  -7.394 -23.810  0.00  0.00    -0.332 N 
ATOM      4  C   UNL     1      32.899  -8.083 -21.564  0.00  0.00    -0.018 C 
ATOM      5  C   UNL     1      32.984  -7.236 -22.789  0.00  0.00    +0.020 A 
ATOM      6  C   UNL     1      32.222  -9.431 -21.866  0.00  0.00    -0.015 C 
ATOM      7  C   UNL     1      32.046  -8.111 -19.282  0.00  0.00    -0.076 C 
ATOM      8  C   UNL     1      32.055 -10.262 -20.598  0.00  0.00    -0.004 C 
ATOM      9  C   UNL     1      32.188  -6.150 -23.067  0.00  0.00    +0.044 A 
ATOM     10  C   UNL     1      31.356  -9.457 -19.509  0.00  0.00    -0.023 C 
ATOM     11  C   UNL     1      30.930  -6.705 -20.937  0.00  0.00    -0.006 C 
ATOM     12  C   UNL     1      31.155  -5.766 -22.124  0.00  0.00    +0.153 C 
ATOM     13  C   UNL     1      32.610  -5.613 -24.314  0.00  0.00    +0.019 A 
ATOM     14  C   UNL     1      33.670  -6.414 -24.759  0.00  0.00    +0.060 A 
ATOM     15  C   UNL     1      32.202  -4.528 -25.116  0.00  0.00    +0.002 C 
ATOM     16  C   UNL     1      34.338  -6.178 -25.967  0.00  0.00    +0.017 C 
ATOM     17  C   UNL     1      32.862  -4.283 -26.325  0.00  0.00    +0.000 C 
ATOM     18  C   UNL     1      33.914  -5.096 -26.743  0.00  0.00    +0.001 C 
ATOM     19  H   UNL     1      32.814  -6.519 -20.291  0.00  0.00    -0.078 HD
ENDROOT
BRANCH   3  20
ATOM     20  C   UNL     1      34.978  -8.328 -23.892  0.00  0.00    +0.107 C 
BRANCH  20  21
ATOM     21  C   UNL     1      34.654  -9.519 -24.796  0.00  0.00    +0.043 C 
BRANCH  21  22
ATOM     22  C   UNL     1      33.918 -10.629 -24.056  0.00  0.00    +0.093 C 
BRANCH  22  23
ATOM     23  N   UNL     1      34.249 -11.946 -24.643  0.00  0.00    -0.183 NA
ATOM     24  H   UNL     1      34.024 -11.894 -25.636  0.00  0.00    +0.148 HD
BRANCH  23  25
ATOM     25  S   UNL     1      33.486 -13.341 -24.029  0.00  0.00    +0.039 S 
ATOM     26  O   UNL     1      32.314 -12.966 -23.263  0.00  0.00    -0.158 OA
ATOM     27  O   UNL     1      34.502 -14.203 -23.459  0.00  0.00    -0.158 OA
BRANCH  25  28
ATOM     28  C   UNL     1      32.931 -14.101 -25.538  0.00  0.00    +0.146 C 
ATOM     29  C   UNL     1      33.506 -15.505 -25.663  0.00  0.00    +0.027 C 
ATOM     30  C   UNL     1      33.308 -13.238 -26.734  0.00  0.00    +0.027 C 
ENDBRANCH  25  28
ENDBRANCH  23  25
ENDBRANCH  22  23
ENDBRANCH  21  22
ENDBRANCH  20  21
ENDBRANCH   3  20
TORSDOF 6
ENDMDL
MODEL 9
REMARK VINA RESULT:      -8.5      5.987     11.504
REMARK  Name = 11987780
REMARK  6 active torsions:
REMARK  status: ('A' for Active; 'I' for Inactive)
REMARK    1  A    between atoms: N_3  and  C_20
REMARK    2  A    between atoms: C_20  and  C_21
REMARK    3  A    between atoms: C_21  and  C_22
REMARK    4  A    between atoms: C_22  and  N_23
REMARK    5  A    between atoms: N_23  and  S_25
REMARK    6  A    between atoms: S_25  and  C_28
REMARK                            x       y       z     vdW  Elec       q    Type
REMARK                         _______ _______ _______ _____ _____    ______ ____
ROOT
ATOM      1  O   UNL     1      33.173 -10.463 -24.955  0.00  0.00    -0.294 OA
ATOM      2  N   UNL     1      32.894 -14.012 -25.184  0.00  0.00    +0.397 N 
ATOM      3  N   UNL     1      32.336 -13.417 -21.569  0.00  0.00    -0.332 N 
ATOM      4  C   UNL     1      33.028 -14.472 -23.779  0.00  0.00    -0.018 C 
ATOM      5  C   UNL     1      32.727 -13.325 -22.874  0.00  0.00    +0.020 A 
ATOM      6  C   UNL     1      34.410 -15.073 -23.472  0.00  0.00    -0.015 C 
ATOM      7  C   UNL     1      33.229 -15.087 -26.128  0.00  0.00    -0.076 C 
ATOM      8  C   UNL     1      34.758 -16.188 -24.453  0.00  0.00    -0.004 C 
ATOM      9  C   UNL     1      32.774 -11.996 -23.224  0.00  0.00    +0.044 A 
ATOM     10  C   UNL     1      34.604 -15.714 -25.893  0.00  0.00    -0.023 C 
ATOM     11  C   UNL     1      33.632 -12.767 -25.482  0.00  0.00    -0.006 C 
ATOM     12  C   UNL     1      33.159 -11.630 -24.573  0.00  0.00    +0.153 C 
ATOM     13  C   UNL     1      32.394 -11.235 -22.084  0.00  0.00    +0.019 A 
ATOM     14  C   UNL     1      32.127 -12.152 -21.059  0.00  0.00    +0.060 A 
ATOM     15  C   UNL     1      32.249  -9.860 -21.813  0.00  0.00    +0.002 C 
ATOM     16  C   UNL     1      31.722 -11.756 -19.779  0.00  0.00    +0.017 C 
ATOM     17  C   UNL     1      31.846  -9.452 -20.537  0.00  0.00    +0.000 C 
ATOM     18  C   UNL     1      31.586 -10.386 -19.537  0.00  0.00    +0.001 C 
ATOM     19  H   UNL     1      31.910 -13.772 -25.306  0.00  0.00    -0.078 HD
ENDROOT
BRANCH   3  20
ATOM     20  C   UNL     1      32.038 -14.614 -20.812  0.00  0.00    +0.107 C 
BRANCH  20  21
ATOM     21  C   UNL     1      33.290 -15.214 -20.170  0.00  0.00    +0.043 C 
BRANCH  21  22
ATOM     22  C   UNL     1      33.636 -16.584 -20.739  0.00  0.00    +0.093 C 
BRANCH  22  23
ATOM     23  N   UNL     1      35.085 -16.849 -20.596  0.00  0.00    -0.183 NA
ATOM     24  H   UNL     1      35.575 -16.074 -21.041  0.00  0.00    +0.148 HD
BRANCH  23  25
ATOM     25  S   UNL     1      35.731 -18.287 -21.244  0.00  0.00    +0.039 S 
ATOM     26  O   UNL     1      36.233 -19.129 -20.176  0.00  0.00    -0.158 OA
ATOM     27  O   UNL     1      36.571 -17.942 -22.374  0.00  0.00    -0.158 OA
BRANCH  25  28
ATOM     28  C   UNL     1      34.258 -19.046 -21.891  0.00  0.00    +0.146 C 
ATOM     29  C   UNL     1      33.777 -20.145 -20.955  0.00  0.00    +0.027 C 
ATOM     30  C   UNL     1      34.513 -19.582 -23.293  0.00  0.00    +0.027 C 
ENDBRANCH  25  28
ENDBRANCH  23  25
ENDBRANCH  22  23
ENDBRANCH  21  22
ENDBRANCH  20  21
ENDBRANCH   3  20
TORSDOF 6
ENDMDL
