MODEL 1
REMARK VINA RESULT:      -9.0      0.000      0.000
REMARK  Name = 5572
REMARK  6 active torsions:
REMARK  status: ('A' for Active; 'I' for Inactive)
REMARK    1  A    between atoms: C_1  and  C_2
REMARK    2  A    between atoms: C_1  and  C_8
REMARK    3  A    between atoms: C_1  and  O_14
REMARK    4  A    between atoms: C_1  and  C_16
REMARK    5  A    between atoms: C_16  and  C_17
REMARK    6  A    between atoms: C_17  and  N_18
REMARK                            x       y       z     vdW  Elec       q    Type
REMARK                         _______ _______ _______ _____ _____    ______ ____
ROOT
ATOM      1  C   UNL     1      35.076 -23.421 -15.463  0.00  0.00    +0.105 C 
ENDROOT
BRANCH   1   2
ATOM      2  C   UNL     1      36.312 -24.255 -15.127  0.00  0.00    +0.029 C 
ATOM      3  C   UNL     1      36.900 -23.831 -13.774  0.00  0.00    +0.003 C 
ATOM      4  C   UNL     1      35.971 -25.751 -15.131  0.00  0.00    +0.003 C 
ATOM      5  C   UNL     1      38.105 -24.687 -13.391  0.00  0.00    +0.000 C 
ATOM      6  C   UNL     1      37.178 -26.604 -14.745  0.00  0.00    +0.000 C 
ATOM      7  C   UNL     1      37.766 -26.175 -13.405  0.00  0.00    +0.000 C 
ENDBRANCH   1   2
BRANCH   1   8
ATOM      8  C   UNL     1      35.053 -22.826 -16.874  0.00  0.00    +0.002 C 
ATOM      9  C   UNL     1      36.177 -22.180 -17.333  0.00  0.00    -0.002 C 
ATOM     10  C   UNL     1      33.910 -22.963 -17.626  0.00  0.00    -0.002 C 
ATOM     11  C   UNL     1      36.157 -21.638 -18.619  0.00  0.00    -0.000 C 
ATOM     12  C   UNL     1      33.890 -22.422 -18.913  0.00  0.00    -0.000 C 
ATOM     13  C   UNL     1      35.013 -21.760 -19.408  0.00  0.00    -0.000 C 
ENDBRANCH   1   8
BRANCH   1  14
ATOM     14  O   UNL     1      35.104 -22.296 -14.559  0.00  0.00    -0.383 OA
ATOM     15  H   UNL     1      35.862 -22.382 -13.959  0.00  0.00    +0.211 HD
ENDBRANCH   1  14
BRANCH   1  16
ATOM     16  C   UNL     1      33.768 -24.206 -15.162  0.00  0.00    +0.008 C 
BRANCH  16  17
ATOM     17  C   UNL     1      33.107 -23.864 -13.823  0.00  0.00    -0.075 C 
BRANCH  17  18
ATOM     18  N   UNL     1      31.653 -23.821 -13.980  0.00  0.00    +0.387 N 
ATOM     19  C   UNL     1      31.137 -25.144 -14.357  0.00  0.00    -0.077 C 
ATOM     20  C   UNL     1      31.272 -22.802 -14.967  0.00  0.00    -0.077 C 
ATOM     21  C   UNL     1      29.613 -25.129 -14.477  0.00  0.00    -0.023 C 
ATOM     22  C   UNL     1      29.752 -22.709 -15.107  0.00  0.00    -0.023 C 
ATOM     23  C   UNL     1      29.144 -24.062 -15.460  0.00  0.00    -0.004 C 
ATOM     24  H   UNL     1      31.236 -23.565 -13.085  0.00  0.00    -0.080 HD
ENDBRANCH  17  18
ENDBRANCH  16  17
ENDBRANCH   1  16
TORSDOF 6
ENDMDL
MODEL 2
REMARK VINA RESULT:      -8.6     13.799     17.262
REMARK  Name = 5572
REMARK  6 active torsions:
REMARK  status: ('A' for Active; 'I' for Inactive)
REMARK    1  A    between atoms: C_1  and  C_2
REMARK    2  A    between atoms: C_1  and  C_8
REMARK    3  A    between atoms: C_1  and  O_14
REMARK    4  A    between atoms: C_1  and  C_16
REMARK    5  A    between atoms: C_16  and  C_17
REMARK    6  A    between atoms: C_17  and  N_18
REMARK                            x       y       z     vdW  Elec       q    Type
REMARK                         _______ _______ _______ _____ _____    ______ ____
ROOT
ATOM      1  C   UNL     1      32.543  -8.626 -22.692  0.00  0.00    +0.105 C 
ENDROOT
BRANCH   1   2
ATOM      2  C   UNL     1      31.665  -7.437 -23.080  0.00  0.00    +0.029 C 
ATOM      3  C   UNL     1      31.467  -6.497 -21.882  0.00  0.00    +0.003 C 
ATOM      4  C   UNL     1      32.269  -6.684 -24.272  0.00  0.00    +0.003 C 
ATOM      5  C   UNL     1      30.636  -5.272 -22.259  0.00  0.00    +0.000 C 
ATOM      6  C   UNL     1      31.437  -5.459 -24.644  0.00  0.00    +0.000 C 
ATOM      7  C   UNL     1      31.235  -4.531 -23.450  0.00  0.00    +0.000 C 
ENDBRANCH   1   2
BRANCH   1   8
ATOM      8  C   UNL     1      32.030  -9.462 -21.516  0.00  0.00    +0.002 C 
ATOM      9  C   UNL     1      31.221 -10.542 -21.780  0.00  0.00    -0.002 C 
ATOM     10  C   UNL     1      32.399  -9.099 -20.242  0.00  0.00    -0.002 C 
ATOM     11  C   UNL     1      30.754 -11.304 -20.709  0.00  0.00    -0.000 C 
ATOM     12  C   UNL     1      31.932  -9.861 -19.170  0.00  0.00    -0.000 C 
ATOM     13  C   UNL     1      31.109 -10.963 -19.403  0.00  0.00    -0.000 C 
ENDBRANCH   1   8
BRANCH   1  14
ATOM     14  O   UNL     1      33.799  -8.063 -22.261  0.00  0.00    -0.383 OA
ATOM     15  H   UNL     1      34.430  -8.778 -22.081  0.00  0.00    +0.211 HD
ENDBRANCH   1  14
BRANCH   1  16
ATOM     16  C   UNL     1      32.852  -9.522 -23.925  0.00  0.00    +0.008 C 
BRANCH  16  17
ATOM     17  C   UNL     1      34.283 -10.064 -23.983  0.00  0.00    -0.075 C 
BRANCH  17  18
ATOM     18  N   UNL     1      34.277 -11.443 -24.470  0.00  0.00    +0.387 N 
ATOM     19  C   UNL     1      33.639 -11.519 -25.792  0.00  0.00    -0.077 C 
ATOM     20  C   UNL     1      33.607 -12.326 -23.505  0.00  0.00    -0.077 C 
ATOM     21  C   UNL     1      33.668 -12.948 -26.337  0.00  0.00    -0.023 C 
ATOM     22  C   UNL     1      33.635 -13.781 -23.976  0.00  0.00    -0.023 C 
ATOM     23  C   UNL     1      33.021 -13.927 -25.364  0.00  0.00    -0.004 C 
ATOM     24  H   UNL     1      35.242 -11.760 -24.568  0.00  0.00    -0.080 HD
ENDBRANCH  17  18
ENDBRANCH  16  17
ENDBRANCH   1  16
TORSDOF 6
ENDMDL
MODEL 3
REMARK VINA RESULT:      -8.6      9.458     13.030
REMARK  Name = 5572
REMARK  6 active torsions:
REMARK  status: ('A' for Active; 'I' for Inactive)
REMARK    1  A    between atoms: C_1  and  C_2
REMARK    2  A    between atoms: C_1  and  C_8
REMARK    3  A    between atoms: C_1  and  O_14
REMARK    4  A    between atoms: C_1  and  C_16
REMARK    5  A    between atoms: C_16  and  C_17
REMARK    6  A    between atoms: C_17  and  N_18
REMARK                            x       y       z     vdW  Elec       q    Type
REMARK                         _______ _______ _______ _____ _____    ______ ____
ROOT
ATOM      1  C   UNL     1      33.224 -13.713 -22.740  0.00  0.00    +0.105 C 
ENDROOT
BRANCH   1   2
ATOM      2  C   UNL     1      32.777 -12.517 -21.900  0.00  0.00    +0.029 C 
ATOM      3  C   UNL     1      31.739 -11.679 -22.659  0.00  0.00    +0.003 C 
ATOM      4  C   UNL     1      32.222 -12.982 -20.547  0.00  0.00    +0.003 C 
ATOM      5  C   UNL     1      31.237 -10.507 -21.819  0.00  0.00    +0.000 C 
ATOM      6  C   UNL     1      31.719 -11.807 -19.711  0.00  0.00    +0.000 C 
ATOM      7  C   UNL     1      30.694 -10.972 -20.471  0.00  0.00    +0.000 C 
ENDBRANCH   1   2
BRANCH   1   8
ATOM      8  C   UNL     1      33.286 -13.464 -24.250  0.00  0.00    +0.002 C 
ATOM      9  C   UNL     1      32.832 -14.448 -25.097  0.00  0.00    -0.002 C 
ATOM     10  C   UNL     1      33.794 -12.268 -24.698  0.00  0.00    -0.002 C 
ATOM     11  C   UNL     1      32.888 -14.222 -26.472  0.00  0.00    -0.000 C 
ATOM     12  C   UNL     1      33.850 -12.041 -26.074  0.00  0.00    -0.000 C 
ATOM     13  C   UNL     1      33.397 -13.018 -26.961  0.00  0.00    -0.000 C 
ENDBRANCH   1   8
BRANCH   1  14
ATOM     14  O   UNL     1      32.216 -14.727 -22.546  0.00  0.00    -0.383 OA
ATOM     15  H   UNL     1      31.337 -14.342 -22.694  0.00  0.00    +0.211 HD
ENDBRANCH   1  14
BRANCH   1  16
ATOM     16  C   UNL     1      34.562 -14.303 -22.211  0.00  0.00    +0.008 C 
BRANCH  16  17
ATOM     17  C   UNL     1      34.412 -15.549 -21.333  0.00  0.00    -0.075 C 
BRANCH  17  18
ATOM     18  N   UNL     1      34.253 -16.737 -22.172  0.00  0.00    +0.387 N 
ATOM     19  C   UNL     1      34.528 -17.954 -21.396  0.00  0.00    -0.077 C 
ATOM     20  C   UNL     1      35.122 -16.652 -23.354  0.00  0.00    -0.077 C 
ATOM     21  C   UNL     1      34.319 -19.209 -22.245  0.00  0.00    -0.023 C 
ATOM     22  C   UNL     1      34.932 -17.864 -24.267  0.00  0.00    -0.023 C 
ATOM     23  C   UNL     1      35.165 -19.169 -23.513  0.00  0.00    -0.004 C 
ATOM     24  H   UNL     1      33.286 -16.782 -22.494  0.00  0.00    -0.080 HD
ENDBRANCH  17  18
ENDBRANCH  16  17
ENDBRANCH   1  16
TORSDOF 6
ENDMDL
MODEL 4
REMARK VINA RESULT:      -8.3      9.912     12.862
REMARK  Name = 5572
REMARK  6 active torsions:
REMARK  status: ('A' for Active; 'I' for Inactive)
REMARK    1  A    between atoms: C_1  and  C_2
REMARK    2  A    between atoms: C_1  and  C_8
REMARK    3  A    between atoms: C_1  and  O_14
REMARK    4  A    between atoms: C_1  and  C_16
REMARK    5  A    between atoms: C_16  and  C_17
REMARK    6  A    between atoms: C_17  and  N_18
REMARK                            x       y       z     vdW  Elec       q    Type
REMARK                         _______ _______ _______ _____ _____    ______ ____
ROOT
ATOM      1  C   UNL     1      33.687 -14.360 -22.925  0.00  0.00    +0.105 C 
ENDROOT
BRANCH   1   2
ATOM      2  C   UNL     1      33.874 -15.873 -22.817  0.00  0.00    +0.029 C 
ATOM      3  C   UNL     1      35.134 -16.318 -23.573  0.00  0.00    +0.003 C 
ATOM      4  C   UNL     1      33.936 -16.307 -21.347  0.00  0.00    +0.003 C 
ATOM      5  C   UNL     1      35.372 -17.820 -23.435  0.00  0.00    +0.000 C 
ATOM      6  C   UNL     1      34.177 -17.809 -21.213  0.00  0.00    +0.000 C 
ATOM      7  C   UNL     1      35.424 -18.250 -21.972  0.00  0.00    +0.000 C 
ENDBRANCH   1   2
BRANCH   1   8
ATOM      8  C   UNL     1      33.548 -13.819 -24.351  0.00  0.00    +0.002 C 
ATOM      9  C   UNL     1      33.028 -14.645 -25.320  0.00  0.00    -0.002 C 
ATOM     10  C   UNL     1      33.948 -12.528 -24.606  0.00  0.00    -0.002 C 
ATOM     11  C   UNL     1      32.901 -14.152 -26.618  0.00  0.00    -0.000 C 
ATOM     12  C   UNL     1      33.820 -12.035 -25.905  0.00  0.00    -0.000 C 
ATOM     13  C   UNL     1      33.297 -12.847 -26.911  0.00  0.00    -0.000 C 
ENDBRANCH   1   8
BRANCH   1  14
ATOM     14  O   UNL     1      34.895 -13.776 -22.395  0.00  0.00    -0.383 OA
ATOM     15  H   UNL     1      35.173 -14.268 -21.606  0.00  0.00    +0.211 HD
ENDBRANCH   1  14
BRANCH   1  16
ATOM     16  C   UNL     1      32.519 -13.872 -22.022  0.00  0.00    +0.008 C 
BRANCH  16  17
ATOM     17  C   UNL     1      31.635 -12.787 -22.644  0.00  0.00    -0.075 C 
BRANCH  17  18
ATOM     18  N   UNL     1      31.376 -11.730 -21.667  0.00  0.00    +0.387 N 
ATOM     19  C   UNL     1      32.059 -10.489 -22.059  0.00  0.00    -0.077 C 
ATOM     20  C   UNL     1      31.788 -12.161 -20.323  0.00  0.00    -0.077 C 
ATOM     21  C   UNL     1      31.759  -9.359 -21.072  0.00  0.00    -0.023 C 
ATOM     22  C   UNL     1      31.479 -11.086 -19.280  0.00  0.00    -0.023 C 
ATOM     23  C   UNL     1      32.127  -9.755 -19.647  0.00  0.00    -0.004 C 
ATOM     24  H   UNL     1      30.374 -11.544 -21.644  0.00  0.00    -0.080 HD
ENDBRANCH  17  18
ENDBRANCH  16  17
ENDBRANCH   1  16
TORSDOF 6
ENDMDL
MODEL 5
REMARK VINA RESULT:      -8.2      6.738     10.630
REMARK  Name = 5572
REMARK  6 active torsions:
REMARK  status: ('A' for Active; 'I' for Inactive)
REMARK    1  A    between atoms: C_1  and  C_2
REMARK    2  A    between atoms: C_1  and  C_8
REMARK    3  A    between atoms: C_1  and  O_14
REMARK    4  A    between atoms: C_1  and  C_16
REMARK    5  A    between atoms: C_16  and  C_17
REMARK    6  A    between atoms: C_17  and  N_18
REMARK                            x       y       z     vdW  Elec       q    Type
REMARK                         _______ _______ _______ _____ _____    ______ ____
ROOT
ATOM      1  C   UNL     1      34.789 -18.337 -21.499  0.00  0.00    +0.105 C 
ENDROOT
BRANCH   1   2
ATOM      2  C   UNL     1      34.157 -17.156 -20.763  0.00  0.00    +0.029 C 
ATOM      3  C   UNL     1      34.980 -15.879 -20.983  0.00  0.00    +0.003 C 
ATOM      4  C   UNL     1      32.704 -16.954 -21.211  0.00  0.00    +0.003 C 
ATOM      5  C   UNL     1      34.340 -14.672 -20.301  0.00  0.00    +0.000 C 
ATOM      6  C   UNL     1      32.067 -15.745 -20.529  0.00  0.00    +0.000 C 
ATOM      7  C   UNL     1      32.891 -14.479 -20.741  0.00  0.00    +0.000 C 
ENDBRANCH   1   2
BRANCH   1   8
ATOM      8  C   UNL     1      34.734 -19.675 -20.754  0.00  0.00    +0.002 C 
ATOM      9  C   UNL     1      35.918 -20.299 -20.437  0.00  0.00    -0.002 C 
ATOM     10  C   UNL     1      33.504 -20.198 -20.432  0.00  0.00    -0.002 C 
ATOM     11  C   UNL     1      35.868 -21.517 -19.759  0.00  0.00    -0.000 C 
ATOM     12  C   UNL     1      33.455 -21.416 -19.753  0.00  0.00    -0.000 C 
ATOM     13  C   UNL     1      34.636 -22.076 -19.417  0.00  0.00    -0.000 C 
ENDBRANCH   1   8
BRANCH   1  14
ATOM     14  O   UNL     1      36.189 -18.014 -21.632  0.00  0.00    -0.383 OA
ATOM     15  H   UNL     1      36.336 -17.095 -21.360  0.00  0.00    +0.211 HD
ENDBRANCH   1  14
BRANCH   1  16
ATOM     16  C   UNL     1      34.220 -18.472 -22.939  0.00  0.00    +0.008 C 
BRANCH  16  17
ATOM     17  C   UNL     1      34.902 -17.584 -23.985  0.00  0.00    -0.075 C 
BRANCH  17  18
ATOM     18  N   UNL     1      33.997 -16.513 -24.401  0.00  0.00    +0.387 N 
ATOM     19  C   UNL     1      33.823 -16.525 -25.860  0.00  0.00    -0.077 C 
ATOM     20  C   UNL     1      34.493 -15.211 -23.935  0.00  0.00    -0.077 C 
ATOM     21  C   UNL     1      32.841 -15.441 -26.307  0.00  0.00    -0.023 C 
ATOM     22  C   UNL     1      33.533 -14.084 -24.319  0.00  0.00    -0.023 C 
ATOM     23  C   UNL     1      33.276 -14.063 -25.822  0.00  0.00    -0.004 C 
ATOM     24  H   UNL     1      33.084 -16.673 -23.974  0.00  0.00    -0.080 HD
ENDBRANCH  17  18
ENDBRANCH  16  17
ENDBRANCH   1  16
TORSDOF 6
ENDMDL
MODEL 6
REMARK VINA RESULT:      -8.2      1.160      4.342
REMARK  Name = 5572
REMARK  6 active torsions:
REMARK  status: ('A' for Active; 'I' for Inactive)
REMARK    1  A    between atoms: C_1  and  C_2
REMARK    2  A    between atoms: C_1  and  C_8
REMARK    3  A    between atoms: C_1  and  O_14
REMARK    4  A    between atoms: C_1  and  C_16
REMARK    5  A    between atoms: C_16  and  C_17
REMARK    6  A    between atoms: C_17  and  N_18
REMARK                            x       y       z     vdW  Elec       q    Type
REMARK                         _______ _______ _______ _____ _____    ______ ____
ROOT
ATOM      1  C   UNL     1      35.133 -23.799 -14.820  0.00  0.00    +0.105 C 
ENDROOT
BRANCH   1   2
ATOM      2  C   UNL     1      35.324 -22.716 -15.882  0.00  0.00    +0.029 C 
ATOM      3  C   UNL     1      36.816 -22.497 -16.169  0.00  0.00    +0.003 C 
ATOM      4  C   UNL     1      34.567 -23.079 -17.166  0.00  0.00    +0.003 C 
ATOM      5  C   UNL     1      37.031 -21.456 -17.266  0.00  0.00    +0.000 C 
ATOM      6  C   UNL     1      34.787 -22.038 -18.262  0.00  0.00    +0.000 C 
ATOM      7  C   UNL     1      36.270 -21.815 -18.539  0.00  0.00    +0.000 C 
ENDBRANCH   1   2
BRANCH   1   8
ATOM      8  C   UNL     1      36.339 -24.039 -13.907  0.00  0.00    +0.002 C 
ATOM      9  C   UNL     1      36.526 -23.203 -12.832  0.00  0.00    -0.002 C 
ATOM     10  C   UNL     1      37.187 -25.081 -14.199  0.00  0.00    -0.002 C 
ATOM     11  C   UNL     1      37.624 -23.422 -12.000  0.00  0.00    -0.000 C 
ATOM     12  C   UNL     1      38.286 -25.300 -13.367  0.00  0.00    -0.000 C 
ATOM     13  C   UNL     1      38.504 -24.471 -12.268  0.00  0.00    -0.000 C 
ENDBRANCH   1   8
BRANCH   1  14
ATOM     14  O   UNL     1      34.933 -25.030 -15.546  0.00  0.00    -0.383 OA
ATOM     15  H   UNL     1      35.030 -24.864 -16.497  0.00  0.00    +0.211 HD
ENDBRANCH   1  14
BRANCH   1  16
ATOM     16  C   UNL     1      33.841 -23.551 -13.991  0.00  0.00    +0.008 C 
BRANCH  16  17
ATOM     17  C   UNL     1      32.878 -24.741 -13.932  0.00  0.00    -0.075 C 
BRANCH  17  18
ATOM     18  N   UNL     1      31.759 -24.525 -14.850  0.00  0.00    +0.387 N 
ATOM     19  C   UNL     1      31.556 -23.089 -15.084  0.00  0.00    -0.077 C 
ATOM     20  C   UNL     1      30.538 -25.156 -14.329  0.00  0.00    -0.077 C 
ATOM     21  C   UNL     1      30.421 -22.847 -16.080  0.00  0.00    -0.023 C 
ATOM     22  C   UNL     1      29.370 -24.983 -15.300  0.00  0.00    -0.023 C 
ATOM     23  C   UNL     1      29.128 -23.511 -15.619  0.00  0.00    -0.004 C 
ATOM     24  H   UNL     1      31.982 -24.961 -15.744  0.00  0.00    -0.080 HD
ENDBRANCH  17  18
ENDBRANCH  16  17
ENDBRANCH   1  16
TORSDOF 6
ENDMDL
MODEL 7
REMARK VINA RESULT:      -8.2      9.300     13.041
REMARK  Name = 5572
REMARK  6 active torsions:
REMARK  status: ('A' for Active; 'I' for Inactive)
REMARK    1  A    between atoms: C_1  and  C_2
REMARK    2  A    between atoms: C_1  and  C_8
REMARK    3  A    between atoms: C_1  and  O_14
REMARK    4  A    between atoms: C_1  and  C_16
REMARK    5  A    between atoms: C_16  and  C_17
REMARK    6  A    between atoms: C_17  and  N_18
REMARK                            x       y       z     vdW  Elec       q    Type
REMARK                         _______ _______ _______ _____ _____    ______ ____
ROOT
ATOM      1  C   UNL     1      33.268 -13.636 -22.848  0.00  0.00    +0.105 C 
ENDROOT
BRANCH   1   2
ATOM      2  C   UNL     1      32.898 -13.648 -24.331  0.00  0.00    +0.029 C 
ATOM      3  C   UNL     1      33.657 -12.550 -25.088  0.00  0.00    +0.003 C 
ATOM      4  C   UNL     1      33.173 -15.027 -24.945  0.00  0.00    +0.003 C 
ATOM      5  C   UNL     1      33.344 -12.577 -26.582  0.00  0.00    +0.000 C 
ATOM      6  C   UNL     1      32.861 -15.049 -26.440  0.00  0.00    +0.000 C 
ATOM      7  C   UNL     1      33.610 -13.952 -27.189  0.00  0.00    +0.000 C 
ENDBRANCH   1   2
BRANCH   1   8
ATOM      8  C   UNL     1      32.446 -12.681 -21.977  0.00  0.00    +0.002 C 
ATOM      9  C   UNL     1      32.392 -12.909 -20.622  0.00  0.00    -0.002 C 
ATOM     10  C   UNL     1      31.795 -11.633 -22.585  0.00  0.00    -0.002 C 
ATOM     11  C   UNL     1      31.644 -12.039 -19.829  0.00  0.00    -0.000 C 
ATOM     12  C   UNL     1      31.047 -10.762 -21.791  0.00  0.00    -0.000 C 
ATOM     13  C   UNL     1      30.971 -10.965 -20.414  0.00  0.00    -0.000 C 
ENDBRANCH   1   8
BRANCH   1  14
ATOM     14  O   UNL     1      34.628 -13.157 -22.787  0.00  0.00    -0.383 OA
ATOM     15  H   UNL     1      34.951 -13.214 -21.873  0.00  0.00    +0.211 HD
ENDBRANCH   1  14
BRANCH   1  16
ATOM     16  C   UNL     1      33.271 -15.073 -22.257  0.00  0.00    +0.008 C 
BRANCH  16  17
ATOM     17  C   UNL     1      34.464 -15.393 -21.350  0.00  0.00    -0.075 C 
BRANCH  17  18
ATOM     18  N   UNL     1      34.907 -16.770 -21.571  0.00  0.00    +0.387 N 
ATOM     19  C   UNL     1      35.267 -16.973 -22.981  0.00  0.00    -0.077 C 
ATOM     20  C   UNL     1      33.867 -17.718 -21.147  0.00  0.00    -0.077 C 
ATOM     21  C   UNL     1      35.779 -18.395 -23.220  0.00  0.00    -0.023 C 
ATOM     22  C   UNL     1      34.333 -19.164 -21.325  0.00  0.00    -0.023 C 
ATOM     23  C   UNL     1      34.762 -19.435 -22.763  0.00  0.00    -0.004 C 
ATOM     24  H   UNL     1      35.738 -16.940 -21.006  0.00  0.00    -0.080 HD
ENDBRANCH  17  18
ENDBRANCH  16  17
ENDBRANCH   1  16
TORSDOF 6
ENDMDL
MODEL 8
REMARK VINA RESULT:      -8.1      1.706      5.450
REMARK  Name = 5572
REMARK  6 active torsions:
REMARK  status: ('A' for Active; 'I' for Inactive)
REMARK    1  A    between atoms: C_1  and  C_2
REMARK    2  A    between atoms: C_1  and  C_8
REMARK    3  A    between atoms: C_1  and  O_14
REMARK    4  A    between atoms: C_1  and  C_16
REMARK    5  A    between atoms: C_16  and  C_17
REMARK    6  A    between atoms: C_17  and  N_18
REMARK                            x       y       z     vdW  Elec       q    Type
REMARK                         _______ _______ _______ _____ _____    ______ ____
ROOT
ATOM      1  C   UNL     1      34.113 -23.193 -16.813  0.00  0.00    +0.105 C 
ENDROOT
BRANCH   1   2
ATOM      2  C   UNL     1      32.798 -22.789 -16.148  0.00  0.00    +0.029 C 
ATOM      3  C   UNL     1      31.604 -23.406 -16.889  0.00  0.00    +0.003 C 
ATOM      4  C   UNL     1      32.793 -23.195 -14.668  0.00  0.00    +0.003 C 
ATOM      5  C   UNL     1      30.281 -23.060 -16.211  0.00  0.00    +0.000 C 
ATOM      6  C   UNL     1      31.467 -22.849 -13.994  0.00  0.00    +0.000 C 
ATOM      7  C   UNL     1      30.282 -23.457 -14.737  0.00  0.00    +0.000 C 
ENDBRANCH   1   2
BRANCH   1   8
ATOM      8  C   UNL     1      34.534 -22.330 -18.007  0.00  0.00    +0.002 C 
ATOM      9  C   UNL     1      33.565 -21.911 -18.888  0.00  0.00    -0.002 C 
ATOM     10  C   UNL     1      35.863 -22.009 -18.149  0.00  0.00    -0.002 C 
ATOM     11  C   UNL     1      33.948 -21.125 -19.975  0.00  0.00    -0.000 C 
ATOM     12  C   UNL     1      36.246 -21.222 -19.237  0.00  0.00    -0.000 C 
ATOM     13  C   UNL     1      35.288 -20.780 -20.149  0.00  0.00    -0.000 C 
ENDBRANCH   1   8
BRANCH   1  14
ATOM     14  O   UNL     1      33.896 -24.519 -17.339  0.00  0.00    -0.383 OA
ATOM     15  H   UNL     1      32.999 -24.814 -17.114  0.00  0.00    +0.211 HD
ENDBRANCH   1  14
BRANCH   1  16
ATOM     16  C   UNL     1      35.260 -23.306 -15.770  0.00  0.00    +0.008 C 
BRANCH  16  17
ATOM     17  C   UNL     1      35.637 -24.739 -15.382  0.00  0.00    -0.075 C 
BRANCH  17  18
ATOM     18  N   UNL     1      36.212 -24.760 -14.037  0.00  0.00    +0.387 N 
ATOM     19  C   UNL     1      36.272 -23.400 -13.483  0.00  0.00    -0.077 C 
ATOM     20  C   UNL     1      37.542 -25.384 -14.056  0.00  0.00    -0.077 C 
ATOM     21  C   UNL     1      36.825 -23.409 -12.057  0.00  0.00    -0.023 C 
ATOM     22  C   UNL     1      38.137 -25.458 -12.649  0.00  0.00    -0.023 C 
ATOM     23  C   UNL     1      38.192 -24.081 -11.997  0.00  0.00    -0.004 C 
ATOM     24  H   UNL     1      35.610 -25.319 -13.433  0.00  0.00    -0.080 HD
ENDBRANCH  17  18
ENDBRANCH  16  17
ENDBRANCH   1  16
TORSDOF 6
ENDMDL
MODEL 9
REMARK VINA RESULT:      -8.0     14.930     17.855
REMARK  Name = 5572
REMARK  6 active torsions:
REMARK  status: ('A' for Active; 'I' for Inactive)
REMARK    1  A    between atoms: C_1  and  C_2
REMARK    2  A    between atoms: C_1  and  C_8
REMARK    3  A    between atoms: C_1  and  O_14
REMARK    4  A    between atoms: C_1  and  C_16
REMARK    5  A    between atoms: C_16  and  C_17
REMARK    6  A    between atoms: C_17  and  N_18
REMARK                            x       y       z     vdW  Elec       q    Type
REMARK                         _______ _______ _______ _____ _____    ______ ____
ROOT
ATOM      1  C   UNL     1      32.772  -8.864 -22.637  0.00  0.00    +0.105 C 
ENDROOT
BRANCH   1   2
ATOM      2  C   UNL     1      32.393  -9.812 -21.500  0.00  0.00    +0.029 C 
ATOM      3  C   UNL     1      32.357  -9.065 -20.160  0.00  0.00    +0.003 C 
ATOM      4  C   UNL     1      31.046 -10.489 -21.786  0.00  0.00    +0.003 C 
ATOM      5  C   UNL     1      31.928  -9.980 -19.016  0.00  0.00    +0.000 C 
ATOM      6  C   UNL     1      30.620 -11.402 -20.638  0.00  0.00    +0.000 C 
ATOM      7  C   UNL     1      30.593 -10.658 -19.307  0.00  0.00    +0.000 C 
ENDBRANCH   1   2
BRANCH   1   8
ATOM      8  C   UNL     1      33.641  -9.478 -23.738  0.00  0.00    +0.002 C 
ATOM      9  C   UNL     1      33.399 -10.778 -24.119  0.00  0.00    -0.002 C 
ATOM     10  C   UNL     1      34.629  -8.707 -24.303  0.00  0.00    -0.002 C 
ATOM     11  C   UNL     1      34.190 -11.338 -25.122  0.00  0.00    -0.000 C 
ATOM     12  C   UNL     1      35.420  -9.267 -25.308  0.00  0.00    -0.000 C 
ATOM     13  C   UNL     1      35.201 -10.582 -25.716  0.00  0.00    -0.000 C 
ENDBRANCH   1   8
BRANCH   1  14
ATOM     14  O   UNL     1      33.573  -7.826 -22.033  0.00  0.00    -0.383 OA
ATOM     15  H   UNL     1      33.558  -7.037 -22.596  0.00  0.00    +0.211 HD
ENDBRANCH   1  14
BRANCH   1  16
ATOM     16  C   UNL     1      31.515  -8.171 -23.234  0.00  0.00    +0.008 C 
BRANCH  16  17
ATOM     17  C   UNL     1      31.170  -6.816 -22.608  0.00  0.00    -0.075 C 
BRANCH  17  18
ATOM     18  N   UNL     1      31.789  -5.737 -23.377  0.00  0.00    +0.387 N 
ATOM     19  C   UNL     1      31.008  -4.498 -23.244  0.00  0.00    -0.077 C 
ATOM     20  C   UNL     1      31.930  -6.126 -24.787  0.00  0.00    -0.077 C 
ATOM     21  C   UNL     1      31.668  -3.346 -24.003  0.00  0.00    -0.023 C 
ATOM     22  C   UNL     1      32.621  -5.027 -25.596  0.00  0.00    -0.023 C 
ATOM     23  C   UNL     1      31.882  -3.699 -25.470  0.00  0.00    -0.004 C 
ATOM     24  H   UNL     1      32.721  -5.562 -23.004  0.00  0.00    -0.080 HD
ENDBRANCH  17  18
ENDBRANCH  16  17
ENDBRANCH   1  16
TORSDOF 6
ENDMDL
