MODEL 1
REMARK VINA RESULT:      -9.8      0.000      0.000
REMARK  Name = 447280
REMARK  10 active torsions:
REMARK  status: ('A' for Active; 'I' for Inactive)
REMARK    1  A    between atoms: C_3  and  C_13
REMARK    2  A    between atoms: C_7  and  C_26
REMARK    3  A    between atoms: C_10  and  C_17
REMARK    4  A    between atoms: N_16  and  C_19
REMARK    5  A    between atoms: C_19  and  C_23
REMARK    6  A    between atoms: C_26  and  O_27
REMARK    7  A    between atoms: C_26  and  C_29
REMARK    8  A    between atoms: C_29  and  N_30
REMARK    9  A    between atoms: C_29  and  C_34
REMARK   10  A    between atoms: C_34  and  C_35
REMARK                            x       y       z     vdW  Elec       q    Type
REMARK                         _______ _______ _______ _____ _____    ______ ____
ROOT
ATOM      1  O   UNL     1      35.092 -16.439 -24.074  0.00  0.00    -0.272 OA
ATOM      2  N   UNL     1      34.045 -15.857 -22.093  0.00  0.00    -0.271 N 
ATOM      3  C   UNL     1      33.108 -14.905 -22.674  0.00  0.00    +0.152 C 
ATOM      4  C   UNL     1      32.067 -14.673 -21.585  0.00  0.00    +0.031 C 
ATOM      5  C   UNL     1      32.847 -14.901 -20.294  0.00  0.00    +0.024 C 
ATOM      6  C   UNL     1      33.812 -16.019 -20.661  0.00  0.00    +0.094 C 
ATOM      7  C   UNL     1      34.921 -16.606 -22.864  0.00  0.00    +0.251 C 
ENDROOT
BRANCH   3  13
ATOM      8  O   UNL     1      34.660 -13.187 -22.152  0.00  0.00    -0.273 OA
ATOM      9  N   UNL     1      33.637 -13.097 -24.227  0.00  0.00    -0.272 N 
ATOM     10  C   UNL     1      34.415 -11.981 -24.747  0.00  0.00    +0.152 C 
ATOM     11  C   UNL     1      34.152 -11.993 -26.249  0.00  0.00    +0.031 C 
ATOM     12  C   UNL     1      32.721 -13.619 -25.239  0.00  0.00    +0.094 C 
ATOM     13  C   UNL     1      33.879 -13.657 -22.983  0.00  0.00    +0.244 C 
ATOM     14  C   UNL     1      32.752 -12.591 -26.360  0.00  0.00    +0.024 C 
BRANCH  10  17
ATOM     15  O   UNL     1      34.333  -9.624 -24.382  0.00  0.00    -0.273 OA
ATOM     16  N   UNL     1      32.899 -11.002 -23.173  0.00  0.00    -0.297 N 
ATOM     17  C   UNL     1      33.889 -10.735 -24.101  0.00  0.00    +0.241 C 
ATOM     18  H   UNL     1      32.626 -11.939 -23.035  0.00  0.00    +0.150 HD
BRANCH  16  19
ATOM     19  C   UNL     1      32.245  -9.975 -22.396  0.00  0.00    +0.148 C 
ATOM     20  C   UNL     1      31.330  -9.128 -23.267  0.00  0.00    +0.031 C 
BRANCH  19  23
ATOM     21  O   UNL     1      31.646 -10.420 -20.085  0.00  0.00    -0.274 OA
ATOM     22  N   UNL     1      30.495 -11.512 -21.746  0.00  0.00    -0.327 N 
ATOM     23  C   UNL     1      31.464 -10.648 -21.278  0.00  0.00    +0.237 C 
ATOM     24  H   UNL     1      29.926 -12.004 -21.111  0.00  0.00    +0.145 HD
ATOM     25  H   UNL     1      30.372 -11.635 -22.715  0.00  0.00    +0.145 HD
ENDBRANCH  19  23
ENDBRANCH  16  19
ENDBRANCH  10  17
ENDBRANCH   3  13
BRANCH   7  26
ATOM     26  C   UNL     1      35.694 -17.666 -22.124  0.00  0.00    +0.167 C 
BRANCH  26  27
ATOM     27  O   UNL     1      35.714 -17.310 -20.758  0.00  0.00    -0.377 OA
ATOM     28  H   UNL     1      36.401 -16.642 -20.608  0.00  0.00    +0.211 HD
ENDBRANCH  26  27
BRANCH  26  29
ATOM     29  C   UNL     1      35.083 -19.058 -22.348  0.00  0.00    -0.025 C 
BRANCH  29  30
ATOM     30  N   UNL     1      34.612 -19.100 -23.742  0.00  0.00    +0.384 N 
ATOM     31  H   UNL     1      34.595 -20.067 -24.065  0.00  0.00    -0.089 HD
ATOM     32  H   UNL     1      35.242 -18.555 -24.330  0.00  0.00    -0.089 HD
ATOM     33  H   UNL     1      33.671 -18.707 -23.795  0.00  0.00    -0.089 HD
ENDBRANCH  29  30
BRANCH  29  34
ATOM     34  C   UNL     1      33.890 -19.419 -21.432  0.00  0.00    +0.007 C 
BRANCH  34  35
ATOM     35  C   UNL     1      34.187 -20.468 -20.389  0.00  0.00    -0.024 C 
ATOM     36  C   UNL     1      35.508 -20.754 -20.043  0.00  0.00    -0.004 C 
ATOM     37  C   UNL     1      33.141 -21.152 -19.769  0.00  0.00    -0.004 C 
ATOM     38  C   UNL     1      35.782 -21.723 -19.079  0.00  0.00    -0.000 C 
ATOM     39  C   UNL     1      33.416 -22.122 -18.804  0.00  0.00    -0.000 C 
ATOM     40  C   UNL     1      34.737 -22.407 -18.459  0.00  0.00    -0.000 C 
ENDBRANCH  34  35
ENDBRANCH  29  34
ENDBRANCH  26  29
ENDBRANCH   7  26
TORSDOF 10
ENDMDL
MODEL 2
REMARK VINA RESULT:      -9.6      2.204      9.655
REMARK  Name = 447280
REMARK  10 active torsions:
REMARK  status: ('A' for Active; 'I' for Inactive)
REMARK    1  A    between atoms: C_3  and  C_13
REMARK    2  A    between atoms: C_7  and  C_26
REMARK    3  A    between atoms: C_10  and  C_17
REMARK    4  A    between atoms: N_16  and  C_19
REMARK    5  A    between atoms: C_19  and  C_23
REMARK    6  A    between atoms: C_26  and  O_27
REMARK    7  A    between atoms: C_26  and  C_29
REMARK    8  A    between atoms: C_29  and  N_30
REMARK    9  A    between atoms: C_29  and  C_34
REMARK   10  A    between atoms: C_34  and  C_35
REMARK                            x       y       z     vdW  Elec       q    Type
REMARK                         _______ _______ _______ _____ _____    ______ ____
ROOT
ATOM      1  O   UNL     1      33.302 -12.327 -22.702  0.00  0.00    -0.272 OA
ATOM      2  N   UNL     1      33.496 -13.043 -24.894  0.00  0.00    -0.271 N 
ATOM      3  C   UNL     1      32.940 -14.373 -24.685  0.00  0.00    +0.152 C 
ATOM      4  C   UNL     1      32.633 -14.889 -26.087  0.00  0.00    +0.031 C 
ATOM      5  C   UNL     1      33.665 -14.180 -26.959  0.00  0.00    +0.024 C 
ATOM      6  C   UNL     1      33.798 -12.813 -26.305  0.00  0.00    +0.094 C 
ATOM      7  C   UNL     1      33.564 -12.096 -23.884  0.00  0.00    +0.251 C 
ENDROOT
BRANCH   3  13
ATOM      8  O   UNL     1      34.979 -15.586 -24.641  0.00  0.00    -0.273 OA
ATOM      9  N   UNL     1      33.773 -15.469 -22.669  0.00  0.00    -0.272 N 
ATOM     10  C   UNL     1      34.770 -16.113 -21.826  0.00  0.00    +0.152 C 
ATOM     11  C   UNL     1      34.327 -15.806 -20.399  0.00  0.00    +0.031 C 
ATOM     12  C   UNL     1      32.624 -15.025 -21.882  0.00  0.00    +0.094 C 
ATOM     13  C   UNL     1      33.996 -15.194 -24.009  0.00  0.00    +0.244 C 
ATOM     14  C   UNL     1      32.811 -15.673 -20.519  0.00  0.00    +0.024 C 
BRANCH  10  17
ATOM     15  O   UNL     1      34.467 -18.008 -23.245  0.00  0.00    -0.273 OA
ATOM     16  N   UNL     1      34.956 -18.351 -20.995  0.00  0.00    -0.297 N 
ATOM     17  C   UNL     1      34.718 -17.582 -22.120  0.00  0.00    +0.241 C 
ATOM     18  H   UNL     1      35.147 -17.892 -20.145  0.00  0.00    +0.150 HD
BRANCH  16  19
ATOM     19  C   UNL     1      34.940 -19.796 -21.007  0.00  0.00    +0.148 C 
ATOM     20  C   UNL     1      36.127 -20.363 -20.243  0.00  0.00    +0.031 C 
BRANCH  19  23
ATOM     21  O   UNL     1      32.535 -19.774 -20.677  0.00  0.00    -0.274 OA
ATOM     22  N   UNL     1      33.785 -21.325 -19.533  0.00  0.00    -0.327 N 
ATOM     23  C   UNL     1      33.628 -20.263 -20.399  0.00  0.00    +0.237 C 
ATOM     24  H   UNL     1      33.002 -21.712 -19.080  0.00  0.00    +0.145 HD
ATOM     25  H   UNL     1      34.682 -21.697 -19.369  0.00  0.00    +0.145 HD
ENDBRANCH  19  23
ENDBRANCH  16  19
ENDBRANCH  10  17
ENDBRANCH   3  13
BRANCH   7  26
ATOM     26  C   UNL     1      34.003 -10.720 -24.311  0.00  0.00    +0.167 C 
BRANCH  26  27
ATOM     27  O   UNL     1      33.499 -10.491 -25.610  0.00  0.00    -0.377 OA
ATOM     28  H   UNL     1      33.367  -9.540 -25.743  0.00  0.00    +0.211 HD
ENDBRANCH  26  27
BRANCH  26  29
ATOM     29  C   UNL     1      33.530  -9.651 -23.314  0.00  0.00    -0.025 C 
BRANCH  29  30
ATOM     30  N   UNL     1      32.061  -9.602 -23.404  0.00  0.00    +0.384 N 
ATOM     31  H   UNL     1      31.690 -10.552 -23.417  0.00  0.00    -0.089 HD
ATOM     32  H   UNL     1      31.789  -9.118 -24.260  0.00  0.00    -0.089 HD
ATOM     33  H   UNL     1      31.688  -9.102 -22.597  0.00  0.00    -0.089 HD
ENDBRANCH  29  30
BRANCH  29  34
ATOM     34  C   UNL     1      34.069  -8.222 -23.559  0.00  0.00    +0.007 C 
BRANCH  34  35
ATOM     35  C   UNL     1      33.084  -7.116 -23.272  0.00  0.00    -0.024 C 
ATOM     36  C   UNL     1      32.567  -6.352 -24.319  0.00  0.00    -0.004 C 
ATOM     37  C   UNL     1      32.688  -6.856 -21.959  0.00  0.00    -0.004 C 
ATOM     38  C   UNL     1      31.656  -5.330 -24.053  0.00  0.00    -0.000 C 
ATOM     39  C   UNL     1      31.778  -5.833 -21.694  0.00  0.00    -0.000 C 
ATOM     40  C   UNL     1      31.262  -5.070 -22.742  0.00  0.00    -0.000 C 
ENDBRANCH  34  35
ENDBRANCH  29  34
ENDBRANCH  26  29
ENDBRANCH   7  26
TORSDOF 10
ENDMDL
MODEL 3
REMARK VINA RESULT:      -9.5      2.432      4.355
REMARK  Name = 447280
REMARK  10 active torsions:
REMARK  status: ('A' for Active; 'I' for Inactive)
REMARK    1  A    between atoms: C_3  and  C_13
REMARK    2  A    between atoms: C_7  and  C_26
REMARK    3  A    between atoms: C_10  and  C_17
REMARK    4  A    between atoms: N_16  and  C_19
REMARK    5  A    between atoms: C_19  and  C_23
REMARK    6  A    between atoms: C_26  and  O_27
REMARK    7  A    between atoms: C_26  and  C_29
REMARK    8  A    between atoms: C_29  and  N_30
REMARK    9  A    between atoms: C_29  and  C_34
REMARK   10  A    between atoms: C_34  and  C_35
REMARK                            x       y       z     vdW  Elec       q    Type
REMARK                         _______ _______ _______ _____ _____    ______ ____
ROOT
ATOM      1  O   UNL     1      34.869 -13.774 -22.564  0.00  0.00    -0.272 OA
ATOM      2  N   UNL     1      33.716 -13.359 -24.528  0.00  0.00    -0.271 N 
ATOM      3  C   UNL     1      34.162 -11.983 -24.695  0.00  0.00    +0.152 C 
ATOM      4  C   UNL     1      33.809 -11.634 -26.137  0.00  0.00    +0.031 C 
ATOM      5  C   UNL     1      32.593 -12.510 -26.426  0.00  0.00    +0.024 C 
ATOM      6  C   UNL     1      32.889 -13.786 -25.653  0.00  0.00    +0.094 C 
ATOM      7  C   UNL     1      34.171 -14.171 -23.500  0.00  0.00    +0.251 C 
ENDROOT
BRANCH   3  13
ATOM      8  O   UNL     1      32.426 -11.621 -23.117  0.00  0.00    -0.273 OA
ATOM      9  N   UNL     1      33.844  -9.845 -23.559  0.00  0.00    -0.272 N 
ATOM     10  C   UNL     1      33.317  -8.953 -22.537  0.00  0.00    +0.152 C 
ATOM     11  C   UNL     1      34.361  -7.850 -22.409  0.00  0.00    +0.031 C 
ATOM     12  C   UNL     1      34.984  -9.244 -24.247  0.00  0.00    +0.094 C 
ATOM     13  C   UNL     1      33.394 -11.147 -23.716  0.00  0.00    +0.244 C 
ATOM     14  C   UNL     1      34.986  -7.790 -23.800  0.00  0.00    +0.024 C 
BRANCH  10  17
ATOM     15  O   UNL     1      31.175  -9.155 -23.571  0.00  0.00    -0.273 OA
ATOM     16  N   UNL     1      31.890  -7.057 -22.861  0.00  0.00    -0.297 N 
ATOM     17  C   UNL     1      32.009  -8.423 -23.043  0.00  0.00    +0.241 C 
ATOM     18  H   UNL     1      32.629  -6.577 -22.421  0.00  0.00    +0.150 HD
BRANCH  16  19
ATOM     19  C   UNL     1      30.734  -6.300 -23.282  0.00  0.00    +0.148 C 
ATOM     20  C   UNL     1      30.146  -5.507 -22.125  0.00  0.00    +0.031 C 
BRANCH  19  23
ATOM     21  O   UNL     1      30.494  -4.414 -24.793  0.00  0.00    -0.274 OA
ATOM     22  N   UNL     1      32.382  -5.713 -24.951  0.00  0.00    -0.327 N 
ATOM     23  C   UNL     1      31.155  -5.379 -24.416  0.00  0.00    +0.237 C 
ATOM     24  H   UNL     1      32.757  -5.184 -25.692  0.00  0.00    +0.145 HD
ATOM     25  H   UNL     1      32.884  -6.479 -24.590  0.00  0.00    +0.145 HD
ENDBRANCH  19  23
ENDBRANCH  16  19
ENDBRANCH  10  17
ENDBRANCH   3  13
BRANCH   7  26
ATOM     26  C   UNL     1      33.747 -15.615 -23.575  0.00  0.00    +0.167 C 
BRANCH  26  27
ATOM     27  O   UNL     1      34.760 -16.326 -24.256  0.00  0.00    -0.377 OA
ATOM     28  H   UNL     1      34.811 -16.015 -25.173  0.00  0.00    +0.211 HD
ENDBRANCH  26  27
BRANCH  26  29
ATOM     29  C   UNL     1      33.483 -16.190 -22.175  0.00  0.00    -0.025 C 
BRANCH  29  30
ATOM     30  N   UNL     1      32.793 -15.142 -21.405  0.00  0.00    +0.384 N 
ATOM     31  H   UNL     1      33.438 -14.742 -20.724  0.00  0.00    -0.089 HD
ATOM     32  H   UNL     1      31.993 -15.548 -20.920  0.00  0.00    -0.089 HD
ATOM     33  H   UNL     1      32.472 -14.410 -22.039  0.00  0.00    -0.089 HD
ENDBRANCH  29  30
BRANCH  29  34
ATOM     34  C   UNL     1      34.738 -16.617 -21.379  0.00  0.00    +0.007 C 
BRANCH  34  35
ATOM     35  C   UNL     1      34.807 -18.087 -21.044  0.00  0.00    -0.024 C 
ATOM     36  C   UNL     1      33.632 -18.826 -20.899  0.00  0.00    -0.004 C 
ATOM     37  C   UNL     1      36.045 -18.708 -20.882  0.00  0.00    -0.004 C 
ATOM     38  C   UNL     1      33.696 -20.184 -20.591  0.00  0.00    -0.000 C 
ATOM     39  C   UNL     1      36.109 -20.067 -20.573  0.00  0.00    -0.000 C 
ATOM     40  C   UNL     1      34.934 -20.805 -20.428  0.00  0.00    -0.000 C 
ENDBRANCH  34  35
ENDBRANCH  29  34
ENDBRANCH  26  29
ENDBRANCH   7  26
TORSDOF 10
ENDMDL
MODEL 4
REMARK VINA RESULT:      -9.4      2.312      9.373
REMARK  Name = 447280
REMARK  10 active torsions:
REMARK  status: ('A' for Active; 'I' for Inactive)
REMARK    1  A    between atoms: C_3  and  C_13
REMARK    2  A    between atoms: C_7  and  C_26
REMARK    3  A    between atoms: C_10  and  C_17
REMARK    4  A    between atoms: N_16  and  C_19
REMARK    5  A    between atoms: C_19  and  C_23
REMARK    6  A    between atoms: C_26  and  O_27
REMARK    7  A    between atoms: C_26  and  C_29
REMARK    8  A    between atoms: C_29  and  N_30
REMARK    9  A    between atoms: C_29  and  C_34
REMARK   10  A    between atoms: C_34  and  C_35
REMARK                            x       y       z     vdW  Elec       q    Type
REMARK                         _______ _______ _______ _____ _____    ______ ____
ROOT
ATOM      1  O   UNL     1      31.756 -12.013 -21.585  0.00  0.00    -0.272 OA
ATOM      2  N   UNL     1      32.800 -12.005 -23.651  0.00  0.00    -0.271 N 
ATOM      3  C   UNL     1      32.775 -13.447 -23.856  0.00  0.00    +0.152 C 
ATOM      4  C   UNL     1      33.085 -13.633 -25.337  0.00  0.00    +0.031 C 
ATOM      5  C   UNL     1      33.952 -12.422 -25.672  0.00  0.00    +0.024 C 
ATOM      6  C   UNL     1      33.357 -11.317 -24.813  0.00  0.00    +0.094 C 
ATOM      7  C   UNL     1      32.216 -11.398 -22.550  0.00  0.00    +0.251 C 
ENDROOT
BRANCH   3  13
ATOM      8  O   UNL     1      35.032 -13.868 -23.258  0.00  0.00    -0.273 OA
ATOM      9  N   UNL     1      33.390 -14.767 -21.897  0.00  0.00    -0.272 N 
ATOM     10  C   UNL     1      34.286 -15.270 -20.865  0.00  0.00    +0.152 C 
ATOM     11  C   UNL     1      33.377 -15.581 -19.680  0.00  0.00    +0.031 C 
ATOM     12  C   UNL     1      31.992 -14.993 -21.537  0.00  0.00    +0.094 C 
ATOM     13  C   UNL     1      33.842 -14.037 -22.984  0.00  0.00    +0.244 C 
ATOM     14  C   UNL     1      32.044 -15.927 -20.338  0.00  0.00    +0.024 C 
BRANCH  10  17
ATOM     15  O   UNL     1      35.648 -17.224 -20.707  0.00  0.00    -0.273 OA
ATOM     16  N   UNL     1      34.651 -16.707 -22.746  0.00  0.00    -0.297 N 
ATOM     17  C   UNL     1      34.935 -16.508 -21.407  0.00  0.00    +0.241 C 
ATOM     18  H   UNL     1      34.062 -16.061 -23.201  0.00  0.00    +0.150 HD
BRANCH  16  19
ATOM     19  C   UNL     1      35.173 -17.816 -23.510  0.00  0.00    +0.148 C 
ATOM     20  C   UNL     1      34.751 -19.146 -22.904  0.00  0.00    +0.031 C 
BRANCH  19  23
ATOM     21  O   UNL     1      34.956 -16.744 -25.678  0.00  0.00    -0.274 OA
ATOM     22  N   UNL     1      33.910 -18.761 -25.341  0.00  0.00    -0.327 N 
ATOM     23  C   UNL     1      34.676 -17.686 -24.940  0.00  0.00    +0.237 C 
ATOM     24  H   UNL     1      33.533 -18.787 -26.250  0.00  0.00    +0.145 HD
ATOM     25  H   UNL     1      33.741 -19.504 -24.718  0.00  0.00    +0.145 HD
ENDBRANCH  19  23
ENDBRANCH  16  19
ENDBRANCH  10  17
ENDBRANCH   3  13
BRANCH   7  26
ATOM     26  C   UNL     1      32.179  -9.892 -22.581  0.00  0.00    +0.167 C 
BRANCH  26  27
ATOM     27  O   UNL     1      30.854  -9.501 -22.874  0.00  0.00    -0.377 OA
ATOM     28  H   UNL     1      30.411 -10.206 -23.371  0.00  0.00    +0.211 HD
ENDBRANCH  26  27
BRANCH  26  29
ATOM     29  C   UNL     1      32.675  -9.296 -21.255  0.00  0.00    -0.025 C 
BRANCH  29  30
ATOM     30  N   UNL     1      31.623  -9.542 -20.254  0.00  0.00    +0.384 N 
ATOM     31  H   UNL     1      30.811  -9.957 -20.711  0.00  0.00    -0.089 HD
ATOM     32  H   UNL     1      31.356  -8.659 -19.819  0.00  0.00    -0.089 HD
ATOM     33  H   UNL     1      31.976 -10.181 -19.541  0.00  0.00    -0.089 HD
ENDBRANCH  29  30
BRANCH  29  34
ATOM     34  C   UNL     1      32.970  -7.778 -21.272  0.00  0.00    +0.007 C 
BRANCH  34  35
ATOM     35  C   UNL     1      33.250  -7.202 -22.638  0.00  0.00    -0.024 C 
ATOM     36  C   UNL     1      32.319  -6.361 -23.246  0.00  0.00    -0.004 C 
ATOM     37  C   UNL     1      34.442  -7.511 -23.294  0.00  0.00    -0.004 C 
ATOM     38  C   UNL     1      32.578  -5.828 -24.508  0.00  0.00    -0.000 C 
ATOM     39  C   UNL     1      34.702  -6.979 -24.557  0.00  0.00    -0.000 C 
ATOM     40  C   UNL     1      33.769  -6.137 -25.164  0.00  0.00    -0.000 C 
ENDBRANCH  34  35
ENDBRANCH  29  34
ENDBRANCH  26  29
ENDBRANCH   7  26
TORSDOF 10
ENDMDL
MODEL 5
REMARK VINA RESULT:      -8.5      3.726      6.346
REMARK  Name = 447280
REMARK  10 active torsions:
REMARK  status: ('A' for Active; 'I' for Inactive)
REMARK    1  A    between atoms: C_3  and  C_13
REMARK    2  A    between atoms: C_7  and  C_26
REMARK    3  A    between atoms: C_10  and  C_17
REMARK    4  A    between atoms: N_16  and  C_19
REMARK    5  A    between atoms: C_19  and  C_23
REMARK    6  A    between atoms: C_26  and  O_27
REMARK    7  A    between atoms: C_26  and  C_29
REMARK    8  A    between atoms: C_29  and  N_30
REMARK    9  A    between atoms: C_29  and  C_34
REMARK   10  A    between atoms: C_34  and  C_35
REMARK                            x       y       z     vdW  Elec       q    Type
REMARK                         _______ _______ _______ _____ _____    ______ ____
ROOT
ATOM      1  O   UNL     1      31.830 -11.305 -21.576  0.00  0.00    -0.272 OA
ATOM      2  N   UNL     1      33.212 -11.162 -23.427  0.00  0.00    -0.271 N 
ATOM      3  C   UNL     1      33.740  -9.836 -23.139  0.00  0.00    +0.152 C 
ATOM      4  C   UNL     1      34.957  -9.698 -24.047  0.00  0.00    +0.031 C 
ATOM      5  C   UNL     1      34.609 -10.580 -25.242  0.00  0.00    +0.024 C 
ATOM      6  C   UNL     1      33.841 -11.734 -24.615  0.00  0.00    +0.094 C 
ATOM      7  C   UNL     1      32.343 -11.821 -22.570  0.00  0.00    +0.251 C 
ENDROOT
BRANCH   3  13
ATOM      8  O   UNL     1      32.098  -8.908 -24.579  0.00  0.00    -0.273 OA
ATOM      9  N   UNL     1      32.399  -7.891 -22.521  0.00  0.00    -0.272 N 
ATOM     10  C   UNL     1      31.285  -6.960 -22.632  0.00  0.00    +0.152 C 
ATOM     11  C   UNL     1      31.074  -6.438 -21.215  0.00  0.00    +0.031 C 
ATOM     12  C   UNL     1      33.051  -7.782 -21.218  0.00  0.00    +0.094 C 
ATOM     13  C   UNL     1      32.669  -8.847 -23.488  0.00  0.00    +0.244 C 
ATOM     14  C   UNL     1      32.467  -6.523 -20.595  0.00  0.00    +0.024 C 
BRANCH  10  17
ATOM     15  O   UNL     1      32.540  -6.063 -24.453  0.00  0.00    -0.273 OA
ATOM     16  N   UNL     1      31.081  -4.668 -23.294  0.00  0.00    -0.297 N 
ATOM     17  C   UNL     1      31.709  -5.870 -23.568  0.00  0.00    +0.241 C 
ATOM     18  H   UNL     1      30.430  -4.638 -22.555  0.00  0.00    +0.150 HD
BRANCH  16  19
ATOM     19  C   UNL     1      31.333  -3.455 -24.037  0.00  0.00    +0.148 C 
ATOM     20  C   UNL     1      31.296  -3.713 -25.536  0.00  0.00    +0.031 C 
BRANCH  19  23
ATOM     21  O   UNL     1      30.009  -2.157 -22.470  0.00  0.00    -0.274 OA
ATOM     22  N   UNL     1      29.723  -1.786 -24.719  0.00  0.00    -0.327 N 
ATOM     23  C   UNL     1      30.291  -2.424 -23.636  0.00  0.00    +0.237 C 
ATOM     24  H   UNL     1      29.034  -1.097 -24.579  0.00  0.00    +0.145 HD
ATOM     25  H   UNL     1      30.008  -2.019 -25.632  0.00  0.00    +0.145 HD
ENDBRANCH  19  23
ENDBRANCH  16  19
ENDBRANCH  10  17
ENDBRANCH   3  13
BRANCH   7  26
ATOM     26  C   UNL     1      32.033 -13.251 -22.932  0.00  0.00    +0.167 C 
BRANCH  26  27
ATOM     27  O   UNL     1      32.395 -13.441 -24.284  0.00  0.00    -0.377 OA
ATOM     28  H   UNL     1      31.594 -13.561 -24.818  0.00  0.00    +0.211 HD
ENDBRANCH  26  27
BRANCH  26  29
ATOM     29  C   UNL     1      32.761 -14.230 -21.999  0.00  0.00    -0.025 C 
BRANCH  29  30
ATOM     30  N   UNL     1      32.705 -13.654 -20.645  0.00  0.00    +0.384 N 
ATOM     31  H   UNL     1      33.573 -13.155 -20.452  0.00  0.00    -0.089 HD
ATOM     32  H   UNL     1      32.583 -14.401 -19.962  0.00  0.00    -0.089 HD
ATOM     33  H   UNL     1      31.919 -13.005 -20.584  0.00  0.00    -0.089 HD
ENDBRANCH  29  30
BRANCH  29  34
ATOM     34  C   UNL     1      34.245 -14.501 -22.338  0.00  0.00    +0.007 C 
BRANCH  34  35
ATOM     35  C   UNL     1      34.616 -15.960 -22.440  0.00  0.00    -0.024 C 
ATOM     36  C   UNL     1      34.633 -16.758 -21.296  0.00  0.00    -0.004 C 
ATOM     37  C   UNL     1      34.941 -16.512 -23.680  0.00  0.00    -0.004 C 
ATOM     38  C   UNL     1      34.975 -18.107 -21.391  0.00  0.00    -0.000 C 
ATOM     39  C   UNL     1      35.284 -17.861 -23.774  0.00  0.00    -0.000 C 
ATOM     40  C   UNL     1      35.300 -18.658 -22.630  0.00  0.00    -0.000 C 
ENDBRANCH  34  35
ENDBRANCH  29  34
ENDBRANCH  26  29
ENDBRANCH   7  26
TORSDOF 10
ENDMDL
MODEL 6
REMARK VINA RESULT:      -8.5      1.786      8.462
REMARK  Name = 447280
REMARK  10 active torsions:
REMARK  status: ('A' for Active; 'I' for Inactive)
REMARK    1  A    between atoms: C_3  and  C_13
REMARK    2  A    between atoms: C_7  and  C_26
REMARK    3  A    between atoms: C_10  and  C_17
REMARK    4  A    between atoms: N_16  and  C_19
REMARK    5  A    between atoms: C_19  and  C_23
REMARK    6  A    between atoms: C_26  and  O_27
REMARK    7  A    between atoms: C_26  and  C_29
REMARK    8  A    between atoms: C_29  and  N_30
REMARK    9  A    between atoms: C_29  and  C_34
REMARK   10  A    between atoms: C_34  and  C_35
REMARK                            x       y       z     vdW  Elec       q    Type
REMARK                         _______ _______ _______ _____ _____    ______ ____
ROOT
ATOM      1  O   UNL     1      33.265 -12.361 -22.527  0.00  0.00    -0.272 OA
ATOM      2  N   UNL     1      33.463 -12.938 -24.760  0.00  0.00    -0.271 N 
ATOM      3  C   UNL     1      32.919 -14.283 -24.633  0.00  0.00    +0.152 C 
ATOM      4  C   UNL     1      32.615 -14.714 -26.064  0.00  0.00    +0.031 C 
ATOM      5  C   UNL     1      33.641 -13.944 -26.891  0.00  0.00    +0.024 C 
ATOM      6  C   UNL     1      33.762 -12.619 -26.153  0.00  0.00    +0.094 C 
ATOM      7  C   UNL     1      33.525 -12.055 -23.692  0.00  0.00    +0.251 C 
ENDROOT
BRANCH   3  13
ATOM      8  O   UNL     1      34.933 -15.537 -24.684  0.00  0.00    -0.273 OA
ATOM      9  N   UNL     1      33.805 -15.426 -22.666  0.00  0.00    -0.272 N 
ATOM     10  C   UNL     1      34.820 -16.103 -21.871  0.00  0.00    +0.152 C 
ATOM     11  C   UNL     1      34.437 -15.810 -20.424  0.00  0.00    +0.031 C 
ATOM     12  C   UNL     1      32.696 -14.972 -21.830  0.00  0.00    +0.094 C 
ATOM     13  C   UNL     1      33.983 -15.135 -24.009  0.00  0.00    +0.244 C 
ATOM     14  C   UNL     1      32.921 -15.645 -20.485  0.00  0.00    +0.024 C 
BRANCH  10  17
ATOM     15  O   UNL     1      34.505 -17.971 -23.323  0.00  0.00    -0.273 OA
ATOM     16  N   UNL     1      34.895 -18.355 -21.061  0.00  0.00    -0.297 N 
ATOM     17  C   UNL     1      34.727 -17.566 -22.185  0.00  0.00    +0.241 C 
ATOM     18  H   UNL     1      35.070 -17.912 -20.199  0.00  0.00    +0.150 HD
BRANCH  16  19
ATOM     19  C   UNL     1      34.829 -19.798 -21.091  0.00  0.00    +0.148 C 
ATOM     20  C   UNL     1      36.032 -20.416 -20.395  0.00  0.00    +0.031 C 
BRANCH  19  23
ATOM     21  O   UNL     1      32.449 -19.683 -20.621  0.00  0.00    -0.274 OA
ATOM     22  N   UNL     1      33.690 -21.329 -19.606  0.00  0.00    -0.327 N 
ATOM     23  C   UNL     1      33.532 -20.229 -20.424  0.00  0.00    +0.237 C 
ATOM     24  H   UNL     1      32.916 -21.697 -19.122  0.00  0.00    +0.145 HD
ATOM     25  H   UNL     1      34.576 -21.745 -19.507  0.00  0.00    +0.145 HD
ENDBRANCH  19  23
ENDBRANCH  16  19
ENDBRANCH  10  17
ENDBRANCH   3  13
BRANCH   7  26
ATOM     26  C   UNL     1      33.951 -10.651 -24.034  0.00  0.00    +0.167 C 
BRANCH  26  27
ATOM     27  O   UNL     1      34.393 -10.649 -25.375  0.00  0.00    -0.377 OA
ATOM     28  H   UNL     1      33.653 -10.421 -25.959  0.00  0.00    +0.211 HD
ENDBRANCH  26  27
BRANCH  26  29
ATOM     29  C   UNL     1      32.807  -9.651 -23.804  0.00  0.00    -0.025 C 
BRANCH  29  30
ATOM     30  N   UNL     1      32.871  -8.668 -24.898  0.00  0.00    +0.384 N 
ATOM     31  H   UNL     1      31.973  -8.190 -24.978  0.00  0.00    -0.089 HD
ATOM     32  H   UNL     1      33.080  -9.148 -25.774  0.00  0.00    -0.089 HD
ATOM     33  H   UNL     1      33.603  -7.986 -24.700  0.00  0.00    -0.089 HD
ENDBRANCH  29  30
BRANCH  29  34
ATOM     34  C   UNL     1      32.853  -8.877 -22.467  0.00  0.00    +0.007 C 
BRANCH  34  35
ATOM     35  C   UNL     1      32.104  -9.528 -21.330  0.00  0.00    -0.024 C 
ATOM     36  C   UNL     1      31.143 -10.504 -21.597  0.00  0.00    -0.004 C 
ATOM     37  C   UNL     1      32.372  -9.157 -20.013  0.00  0.00    -0.004 C 
ATOM     38  C   UNL     1      30.450 -11.106 -20.547  0.00  0.00    -0.000 C 
ATOM     39  C   UNL     1      31.679  -9.759 -18.963  0.00  0.00    -0.000 C 
ATOM     40  C   UNL     1      30.718 -10.734 -19.230  0.00  0.00    -0.000 C 
ENDBRANCH  34  35
ENDBRANCH  29  34
ENDBRANCH  26  29
ENDBRANCH   7  26
TORSDOF 10
ENDMDL
MODEL 7
REMARK VINA RESULT:      -8.3      3.054     10.298
REMARK  Name = 447280
REMARK  10 active torsions:
REMARK  status: ('A' for Active; 'I' for Inactive)
REMARK    1  A    between atoms: C_3  and  C_13
REMARK    2  A    between atoms: C_7  and  C_26
REMARK    3  A    between atoms: C_10  and  C_17
REMARK    4  A    between atoms: N_16  and  C_19
REMARK    5  A    between atoms: C_19  and  C_23
REMARK    6  A    between atoms: C_26  and  O_27
REMARK    7  A    between atoms: C_26  and  C_29
REMARK    8  A    between atoms: C_29  and  N_30
REMARK    9  A    between atoms: C_29  and  C_34
REMARK   10  A    between atoms: C_34  and  C_35
REMARK                            x       y       z     vdW  Elec       q    Type
REMARK                         _______ _______ _______ _____ _____    ______ ____
ROOT
ATOM      1  O   UNL     1      30.747  -9.367 -23.167  0.00  0.00    -0.272 OA
ATOM      2  N   UNL     1      33.038  -9.264 -23.486  0.00  0.00    -0.271 N 
ATOM      3  C   UNL     1      33.100 -10.244 -24.562  0.00  0.00    +0.152 C 
ATOM      4  C   UNL     1      34.483 -10.057 -25.176  0.00  0.00    +0.031 C 
ATOM      5  C   UNL     1      35.325  -9.553 -24.007  0.00  0.00    +0.024 C 
ATOM      6  C   UNL     1      34.352  -8.683 -23.225  0.00  0.00    +0.094 C 
ATOM      7  C   UNL     1      31.840  -8.852 -22.922  0.00  0.00    +0.251 C 
ENDROOT
BRANCH   3  13
ATOM      8  O   UNL     1      32.695 -11.703 -22.734  0.00  0.00    -0.273 OA
ATOM      9  N   UNL     1      33.116 -12.674 -24.793  0.00  0.00    -0.272 N 
ATOM     10  C   UNL     1      32.845 -14.046 -24.388  0.00  0.00    +0.152 C 
ATOM     11  C   UNL     1      32.706 -14.816 -25.697  0.00  0.00    +0.031 C 
ATOM     12  C   UNL     1      33.416 -12.595 -26.221  0.00  0.00    +0.094 C 
ATOM     13  C   UNL     1      32.946 -11.598 -23.937  0.00  0.00    +0.244 C 
ATOM     14  C   UNL     1      33.599 -14.039 -26.661  0.00  0.00    +0.024 C 
BRANCH  10  17
ATOM     15  O   UNL     1      34.862 -13.730 -23.151  0.00  0.00    -0.273 OA
ATOM     16  N   UNL     1      34.047 -15.890 -23.445  0.00  0.00    -0.297 N 
ATOM     17  C   UNL     1      34.025 -14.515 -23.590  0.00  0.00    +0.241 C 
ATOM     18  H   UNL     1      33.315 -16.416 -23.844  0.00  0.00    +0.150 HD
BRANCH  16  19
ATOM     19  C   UNL     1      35.092 -16.594 -22.738  0.00  0.00    +0.148 C 
ATOM     20  C   UNL     1      34.829 -16.602 -21.239  0.00  0.00    +0.031 C 
BRANCH  19  23
ATOM     21  O   UNL     1      35.407 -18.998 -22.593  0.00  0.00    -0.274 OA
ATOM     22  N   UNL     1      34.893 -18.079 -24.635  0.00  0.00    -0.327 N 
ATOM     23  C   UNL     1      35.167 -18.011 -23.285  0.00  0.00    +0.237 C 
ATOM     24  H   UNL     1      34.912 -18.948 -25.098  0.00  0.00    +0.145 HD
ATOM     25  H   UNL     1      34.677 -17.260 -25.135  0.00  0.00    +0.145 HD
ENDBRANCH  19  23
ENDBRANCH  16  19
ENDBRANCH  10  17
ENDBRANCH   3  13
BRANCH   7  26
ATOM     26  C   UNL     1      31.941  -7.707 -21.947  0.00  0.00    +0.167 C 
BRANCH  26  27
ATOM     27  O   UNL     1      32.869  -8.073 -20.948  0.00  0.00    -0.377 OA
ATOM     28  H   UNL     1      33.651  -8.469 -21.363  0.00  0.00    +0.211 HD
ENDBRANCH  26  27
BRANCH  26  29
ATOM     29  C   UNL     1      32.343  -6.405 -22.657  0.00  0.00    -0.025 C 
BRANCH  29  30
ATOM     30  N   UNL     1      32.032  -5.301 -21.735  0.00  0.00    +0.384 N 
ATOM     31  H   UNL     1      31.345  -5.614 -21.050  0.00  0.00    -0.089 HD
ATOM     32  H   UNL     1      31.652  -4.514 -22.262  0.00  0.00    -0.089 HD
ATOM     33  H   UNL     1      32.883  -5.009 -21.254  0.00  0.00    -0.089 HD
ENDBRANCH  29  30
BRANCH  29  34
ATOM     34  C   UNL     1      31.623  -6.124 -23.996  0.00  0.00    +0.007 C 
BRANCH  34  35
ATOM     35  C   UNL     1      32.499  -5.538 -25.076  0.00  0.00    -0.024 C 
ATOM     36  C   UNL     1      33.753  -6.091 -25.334  0.00  0.00    -0.004 C 
ATOM     37  C   UNL     1      32.055  -4.443 -25.818  0.00  0.00    -0.004 C 
ATOM     38  C   UNL     1      34.563  -5.550 -26.332  0.00  0.00    -0.000 C 
ATOM     39  C   UNL     1      32.865  -3.901 -26.816  0.00  0.00    -0.000 C 
ATOM     40  C   UNL     1      34.119  -4.455 -27.073  0.00  0.00    -0.000 C 
ENDBRANCH  34  35
ENDBRANCH  29  34
ENDBRANCH  26  29
ENDBRANCH   7  26
TORSDOF 10
ENDMDL
MODEL 8
REMARK VINA RESULT:      -8.3      2.237      9.008
REMARK  Name = 447280
REMARK  10 active torsions:
REMARK  status: ('A' for Active; 'I' for Inactive)
REMARK    1  A    between atoms: C_3  and  C_13
REMARK    2  A    between atoms: C_7  and  C_26
REMARK    3  A    between atoms: C_10  and  C_17
REMARK    4  A    between atoms: N_16  and  C_19
REMARK    5  A    between atoms: C_19  and  C_23
REMARK    6  A    between atoms: C_26  and  O_27
REMARK    7  A    between atoms: C_26  and  C_29
REMARK    8  A    between atoms: C_29  and  N_30
REMARK    9  A    between atoms: C_29  and  C_34
REMARK   10  A    between atoms: C_34  and  C_35
REMARK                            x       y       z     vdW  Elec       q    Type
REMARK                         _______ _______ _______ _____ _____    ______ ____
ROOT
ATOM      1  O   UNL     1      34.002 -15.457 -24.564  0.00  0.00    -0.272 OA
ATOM      2  N   UNL     1      33.373 -14.486 -22.559  0.00  0.00    -0.271 N 
ATOM      3  C   UNL     1      34.350 -15.175 -21.727  0.00  0.00    +0.152 C 
ATOM      4  C   UNL     1      34.354 -14.401 -20.413  0.00  0.00    +0.031 C 
ATOM      5  C   UNL     1      32.936 -13.842 -20.328  0.00  0.00    +0.024 C 
ATOM      6  C   UNL     1      32.595 -13.529 -21.777  0.00  0.00    +0.094 C 
ATOM      7  C   UNL     1      33.330 -14.636 -23.937  0.00  0.00    +0.251 C 
ENDROOT
BRANCH   3  13
ATOM      8  O   UNL     1      32.865 -16.809 -20.858  0.00  0.00    -0.273 OA
ATOM      9  N   UNL     1      34.613 -17.560 -22.177  0.00  0.00    -0.272 N 
ATOM     10  C   UNL     1      34.191 -18.952 -22.235  0.00  0.00    +0.152 C 
ATOM     11  C   UNL     1      35.011 -19.558 -23.369  0.00  0.00    +0.031 C 
ATOM     12  C   UNL     1      35.801 -17.334 -22.997  0.00  0.00    +0.094 C 
ATOM     13  C   UNL     1      33.864 -16.581 -21.544  0.00  0.00    +0.244 C 
ATOM     14  C   UNL     1      36.291 -18.726 -23.366  0.00  0.00    +0.024 C 
BRANCH  10  17
ATOM     15  O   UNL     1      35.564 -19.297 -20.313  0.00  0.00    -0.273 OA
ATOM     16  N   UNL     1      33.564 -20.473 -20.495  0.00  0.00    -0.297 N 
ATOM     17  C   UNL     1      34.528 -19.573 -20.913  0.00  0.00    +0.241 C 
ATOM     18  H   UNL     1      32.772 -20.610 -21.065  0.00  0.00    +0.150 HD
BRANCH  16  19
ATOM     19  C   UNL     1      33.662 -21.223 -19.264  0.00  0.00    +0.148 C 
ATOM     20  C   UNL     1      32.291 -21.684 -18.793  0.00  0.00    +0.031 C 
BRANCH  19  23
ATOM     21  O   UNL     1      34.188 -23.540 -19.764  0.00  0.00    -0.274 OA
ATOM     22  N   UNL     1      35.920 -22.069 -19.428  0.00  0.00    -0.327 N 
ATOM     23  C   UNL     1      34.585 -22.408 -19.499  0.00  0.00    +0.237 C 
ATOM     24  H   UNL     1      36.611 -22.757 -19.565  0.00  0.00    +0.145 HD
ATOM     25  H   UNL     1      36.183 -21.139 -19.242  0.00  0.00    +0.145 HD
ENDBRANCH  19  23
ENDBRANCH  16  19
ENDBRANCH  10  17
ENDBRANCH   3  13
BRANCH   7  26
ATOM     26  C   UNL     1      32.376 -13.721 -24.661  0.00  0.00    +0.167 C 
BRANCH  26  27
ATOM     27  O   UNL     1      31.441 -13.241 -23.718  0.00  0.00    -0.377 OA
ATOM     28  H   UNL     1      30.551 -13.532 -23.969  0.00  0.00    +0.211 HD
ENDBRANCH  26  27
BRANCH  26  29
ATOM     29  C   UNL     1      33.127 -12.578 -25.361  0.00  0.00    -0.025 C 
BRANCH  29  30
ATOM     30  N   UNL     1      33.691 -13.133 -26.602  0.00  0.00    +0.384 N 
ATOM     31  H   UNL     1      34.381 -13.848 -26.371  0.00  0.00    -0.089 HD
ATOM     32  H   UNL     1      34.139 -12.388 -27.135  0.00  0.00    -0.089 HD
ATOM     33  H   UNL     1      32.944 -13.549 -27.159  0.00  0.00    -0.089 HD
ENDBRANCH  29  30
BRANCH  29  34
ATOM     34  C   UNL     1      34.284 -11.943 -24.554  0.00  0.00    +0.007 C 
BRANCH  34  35
ATOM     35  C   UNL     1      34.045 -10.519 -24.117  0.00  0.00    -0.024 C 
ATOM     36  C   UNL     1      32.895 -10.192 -23.398  0.00  0.00    -0.004 C 
ATOM     37  C   UNL     1      34.975  -9.528 -24.432  0.00  0.00    -0.004 C 
ATOM     38  C   UNL     1      32.675  -8.876 -22.994  0.00  0.00    -0.000 C 
ATOM     39  C   UNL     1      34.755  -8.210 -24.028  0.00  0.00    -0.000 C 
ATOM     40  C   UNL     1      33.604  -7.885 -23.309  0.00  0.00    -0.000 C 
ENDBRANCH  34  35
ENDBRANCH  29  34
ENDBRANCH  26  29
ENDBRANCH   7  26
TORSDOF 10
ENDMDL
MODEL 9
REMARK VINA RESULT:      -8.1      4.628     11.813
REMARK  Name = 447280
REMARK  10 active torsions:
REMARK  status: ('A' for Active; 'I' for Inactive)
REMARK    1  A    between atoms: C_3  and  C_13
REMARK    2  A    between atoms: C_7  and  C_26
REMARK    3  A    between atoms: C_10  and  C_17
REMARK    4  A    between atoms: N_16  and  C_19
REMARK    5  A    between atoms: C_19  and  C_23
REMARK    6  A    between atoms: C_26  and  O_27
REMARK    7  A    between atoms: C_26  and  C_29
REMARK    8  A    between atoms: C_29  and  N_30
REMARK    9  A    between atoms: C_29  and  C_34
REMARK   10  A    between atoms: C_34  and  C_35
REMARK                            x       y       z     vdW  Elec       q    Type
REMARK                         _______ _______ _______ _____ _____    ______ ____
ROOT
ATOM      1  O   UNL     1      32.358  -6.292 -24.838  0.00  0.00    -0.272 OA
ATOM      2  N   UNL     1      32.167  -6.477 -22.539  0.00  0.00    -0.271 N 
ATOM      3  C   UNL     1      33.207  -7.481 -22.365  0.00  0.00    +0.152 C 
ATOM      4  C   UNL     1      33.502  -7.479 -20.869  0.00  0.00    +0.031 C 
ATOM      5  C   UNL     1      32.174  -7.055 -20.247  0.00  0.00    +0.024 C 
ATOM      6  C   UNL     1      31.620  -6.056 -21.251  0.00  0.00    +0.094 C 
ATOM      7  C   UNL     1      31.877  -5.909 -23.770  0.00  0.00    +0.251 C 
ENDROOT
BRANCH   3  13
ATOM      8  O   UNL     1      31.504  -9.130 -22.472  0.00  0.00    -0.273 OA
ATOM      9  N   UNL     1      33.469  -9.560 -23.618  0.00  0.00    -0.272 N 
ATOM     10  C   UNL     1      33.016 -10.779 -24.273  0.00  0.00    +0.152 C 
ATOM     11  C   UNL     1      34.042 -11.032 -25.372  0.00  0.00    +0.031 C 
ATOM     12  C   UNL     1      34.817  -9.198 -24.050  0.00  0.00    +0.094 C 
ATOM     13  C   UNL     1      32.638  -8.792 -22.818  0.00  0.00    +0.244 C 
ATOM     14  C   UNL     1      35.321 -10.414 -24.814  0.00  0.00    +0.024 C 
BRANCH  10  17
ATOM     15  O   UNL     1      32.415 -11.762 -22.182  0.00  0.00    -0.273 OA
ATOM     16  N   UNL     1      33.809 -12.944 -23.623  0.00  0.00    -0.297 N 
ATOM     17  C   UNL     1      33.028 -11.867 -23.241  0.00  0.00    +0.241 C 
ATOM     18  H   UNL     1      34.253 -12.912 -24.502  0.00  0.00    +0.150 HD
BRANCH  16  19
ATOM     19  C   UNL     1      34.004 -14.112 -22.797  0.00  0.00    +0.148 C 
ATOM     20  C   UNL     1      32.710 -14.517 -22.107  0.00  0.00    +0.031 C 
BRANCH  19  23
ATOM     21  O   UNL     1      35.465 -15.967 -23.365  0.00  0.00    -0.274 OA
ATOM     22  N   UNL     1      33.809 -15.381 -24.846  0.00  0.00    -0.327 N 
ATOM     23  C   UNL     1      34.527 -15.237 -23.677  0.00  0.00    +0.237 C 
ATOM     24  H   UNL     1      34.058 -16.079 -25.494  0.00  0.00    +0.145 HD
ATOM     25  H   UNL     1      33.047 -14.786 -25.032  0.00  0.00    +0.145 HD
ENDBRANCH  19  23
ENDBRANCH  16  19
ENDBRANCH  10  17
ENDBRANCH   3  13
BRANCH   7  26
ATOM     26  C   UNL     1      30.898  -4.763 -23.743  0.00  0.00    +0.167 C 
BRANCH  26  27
ATOM     27  O   UNL     1      30.173  -4.845 -22.534  0.00  0.00    -0.377 OA
ATOM     28  H   UNL     1      30.791  -4.847 -21.787  0.00  0.00    +0.211 HD
ENDBRANCH  26  27
BRANCH  26  29
ATOM     29  C   UNL     1      31.617  -3.414 -23.893  0.00  0.00    -0.025 C 
BRANCH  29  30
ATOM     30  N   UNL     1      31.169  -2.564 -22.778  0.00  0.00    +0.384 N 
ATOM     31  H   UNL     1      30.701  -1.737 -23.149  0.00  0.00    -0.089 HD
ATOM     32  H   UNL     1      31.975  -2.279 -22.221  0.00  0.00    -0.089 HD
ATOM     33  H   UNL     1      30.518  -3.087 -22.192  0.00  0.00    -0.089 HD
ENDBRANCH  29  30
BRANCH  29  34
ATOM     34  C   UNL     1      31.344  -2.652 -25.211  0.00  0.00    +0.007 C 
BRANCH  34  35
ATOM     35  C   UNL     1      32.424  -2.788 -26.256  0.00  0.00    -0.024 C 
ATOM     36  C   UNL     1      32.395  -3.852 -27.157  0.00  0.00    -0.004 C 
ATOM     37  C   UNL     1      33.453  -1.847 -26.323  0.00  0.00    -0.004 C 
ATOM     38  C   UNL     1      33.392  -3.977 -28.123  0.00  0.00    -0.000 C 
ATOM     39  C   UNL     1      34.451  -1.972 -27.289  0.00  0.00    -0.000 C 
ATOM     40  C   UNL     1      34.420  -3.038 -28.189  0.00  0.00    -0.000 C 
ENDBRANCH  34  35
ENDBRANCH  29  34
ENDBRANCH  26  29
ENDBRANCH   7  26
TORSDOF 10
ENDMDL
