MODEL 1
REMARK VINA RESULT:      -7.8      0.000      0.000
REMARK  Name = 447066
REMARK  8 active torsions:
REMARK  status: ('A' for Active; 'I' for Inactive)
REMARK    1  A    between atoms: C_1  and  C_3
REMARK    2  A    between atoms: C_1  and  C_13
REMARK    3  A    between atoms: C_1  and  N_16
REMARK    4  A    between atoms: C_13  and  O_14
REMARK    5  A    between atoms: N_16  and  O_18
REMARK    6  A    between atoms: O_18  and  C_19
REMARK    7  A    between atoms: C_19  and  C_20
REMARK    8  A    between atoms: C_20  and  S_21
REMARK                            x       y       z     vdW  Elec       q    Type
REMARK                         _______ _______ _______ _____ _____    ______ ____
ROOT
ATOM      1  C   UNL     1      34.342 -17.637 -22.247  0.00  0.00    +0.202 C 
ENDROOT
BRANCH   1   3
ATOM      2  N   UNL     1      36.708 -19.768 -20.459  0.00  0.00    -0.312 N 
ATOM      3  C   UNL     1      35.068 -18.644 -21.446  0.00  0.00    +0.021 C 
ATOM      4  C   UNL     1      34.494 -19.735 -20.735  0.00  0.00    +0.013 C 
ATOM      5  C   UNL     1      35.544 -20.424 -20.124  0.00  0.00    +0.048 C 
ATOM      6  C   UNL     1      36.430 -18.691 -21.257  0.00  0.00    +0.059 C 
ATOM      7  C   UNL     1      33.178 -20.204 -20.551  0.00  0.00    +0.001 C 
ATOM      8  C   UNL     1      35.344 -21.564 -19.336  0.00  0.00    +0.015 C 
ATOM      9  C   UNL     1      32.963 -21.343 -19.766  0.00  0.00    +0.000 C 
ATOM     10  C   UNL     1      34.030 -22.010 -19.169  0.00  0.00    +0.001 C 
ATOM     11  H   UNL     1      37.609 -20.034 -20.166  0.00  0.00    +0.152 HD
ENDBRANCH   1   3
BRANCH   1  13
ATOM     12  O   UNL     1      34.935 -18.024 -24.584  0.00  0.00    -0.248 OA
ATOM     13  C   UNL     1      34.996 -17.310 -23.591  0.00  0.00    +0.335 C 
BRANCH  13  14
ATOM     14  O   UNL     1      35.700 -16.146 -23.577  0.00  0.00    -0.479 OA
ATOM     15  H   UNL     1      36.637 -16.165 -23.583  0.00  0.00    +0.295 HD
ENDBRANCH  13  14
ENDBRANCH   1  13
BRANCH   1  16
ATOM     16  N   UNL     1      34.213 -16.371 -21.504  0.00  0.00    -0.176 NA
ATOM     17  H   UNL     1      33.784 -16.527 -20.592  0.00  0.00    +0.156 HD
BRANCH  16  18
ATOM     18  O   UNL     1      33.352 -15.560 -22.347  0.00  0.00    -0.284 OA
BRANCH  18  19
ATOM     19  C   UNL     1      32.721 -14.605 -21.506  0.00  0.00    +0.178 C 
BRANCH  19  20
ATOM     20  C   UNL     1      32.340 -13.371 -22.311  0.00  0.00    +0.088 C 
BRANCH  20  21
ATOM     21  S   UNL     1      33.554 -13.034 -23.623  0.00  0.00    -0.165 S 
ATOM     22  H   UNL     1      34.699 -12.555 -23.068  0.00  0.00    +0.102 HD
ENDBRANCH  20  21
ENDBRANCH  19  20
ENDBRANCH  18  19
ENDBRANCH  16  18
ENDBRANCH   1  16
TORSDOF 8
ENDMDL
MODEL 2
REMARK VINA RESULT:      -7.5      1.489      2.320
REMARK  Name = 447066
REMARK  8 active torsions:
REMARK  status: ('A' for Active; 'I' for Inactive)
REMARK    1  A    between atoms: C_1  and  C_3
REMARK    2  A    between atoms: C_1  and  C_13
REMARK    3  A    between atoms: C_1  and  N_16
REMARK    4  A    between atoms: C_13  and  O_14
REMARK    5  A    between atoms: N_16  and  O_18
REMARK    6  A    between atoms: O_18  and  C_19
REMARK    7  A    between atoms: C_19  and  C_20
REMARK    8  A    between atoms: C_20  and  S_21
REMARK                            x       y       z     vdW  Elec       q    Type
REMARK                         _______ _______ _______ _____ _____    ______ ____
ROOT
ATOM      1  C   UNL     1      35.377 -17.302 -21.948  0.00  0.00    +0.202 C 
ENDROOT
BRANCH   1   3
ATOM      2  N   UNL     1      36.813 -20.195 -20.244  0.00  0.00    -0.312 N 
ATOM      3  C   UNL     1      35.688 -18.553 -21.226  0.00  0.00    +0.021 C 
ATOM      4  C   UNL     1      34.749 -19.503 -20.735  0.00  0.00    +0.013 C 
ATOM      5  C   UNL     1      35.480 -20.523 -20.124  0.00  0.00    +0.048 C 
ATOM      6  C   UNL     1      36.948 -19.006 -20.909  0.00  0.00    +0.059 C 
ATOM      7  C   UNL     1      33.343 -19.593 -20.752  0.00  0.00    +0.001 C 
ATOM      8  C   UNL     1      34.874 -21.635 -19.527  0.00  0.00    +0.015 C 
ATOM      9  C   UNL     1      32.722 -20.699 -20.159  0.00  0.00    +0.000 C 
ATOM     10  C   UNL     1      33.479 -21.702 -19.556  0.00  0.00    +0.001 C 
ATOM     11  H   UNL     1      37.559 -20.737 -19.902  0.00  0.00    +0.152 HD
ENDBRANCH   1   3
BRANCH   1  13
ATOM     12  O   UNL     1      35.012 -15.658 -20.179  0.00  0.00    -0.248 OA
ATOM     13  C   UNL     1      34.571 -16.287 -21.133  0.00  0.00    +0.335 C 
BRANCH  13  14
ATOM     14  O   UNL     1      33.281 -16.168 -21.548  0.00  0.00    -0.479 OA
ATOM     15  H   UNL     1      32.758 -15.450 -21.249  0.00  0.00    +0.295 HD
ENDBRANCH  13  14
ENDBRANCH   1  13
BRANCH   1  16
ATOM     16  N   UNL     1      34.612 -17.581 -23.176  0.00  0.00    -0.176 NA
ATOM     17  H   UNL     1      34.974 -18.409 -23.649  0.00  0.00    +0.156 HD
BRANCH  16  18
ATOM     18  O   UNL     1      34.812 -16.394 -23.988  0.00  0.00    -0.284 OA
BRANCH  18  19
ATOM     19  C   UNL     1      34.247 -16.659 -25.265  0.00  0.00    +0.178 C 
BRANCH  19  20
ATOM     20  C   UNL     1      33.483 -15.441 -25.761  0.00  0.00    +0.088 C 
BRANCH  20  21
ATOM     21  S   UNL     1      33.339 -14.175 -24.463  0.00  0.00    -0.165 S 
ATOM     22  H   UNL     1      32.041 -14.077 -24.068  0.00  0.00    +0.102 HD
ENDBRANCH  20  21
ENDBRANCH  19  20
ENDBRANCH  18  19
ENDBRANCH  16  18
ENDBRANCH   1  16
TORSDOF 8
ENDMDL
MODEL 3
REMARK VINA RESULT:      -7.5      1.593      2.239
REMARK  Name = 447066
REMARK  8 active torsions:
REMARK  status: ('A' for Active; 'I' for Inactive)
REMARK    1  A    between atoms: C_1  and  C_3
REMARK    2  A    between atoms: C_1  and  C_13
REMARK    3  A    between atoms: C_1  and  N_16
REMARK    4  A    between atoms: C_13  and  O_14
REMARK    5  A    between atoms: N_16  and  O_18
REMARK    6  A    between atoms: O_18  and  C_19
REMARK    7  A    between atoms: C_19  and  C_20
REMARK    8  A    between atoms: C_20  and  S_21
REMARK                            x       y       z     vdW  Elec       q    Type
REMARK                         _______ _______ _______ _____ _____    ______ ____
ROOT
ATOM      1  C   UNL     1      34.350 -18.219 -21.988  0.00  0.00    +0.202 C 
ENDROOT
BRANCH   1   3
ATOM      2  N   UNL     1      32.633 -20.794 -20.051  0.00  0.00    -0.312 N 
ATOM      3  C   UNL     1      33.916 -19.334 -21.121  0.00  0.00    +0.021 C 
ATOM      4  C   UNL     1      34.758 -20.184 -20.351  0.00  0.00    +0.013 C 
ATOM      5  C   UNL     1      33.928 -21.091 -19.689  0.00  0.00    +0.048 C 
ATOM      6  C   UNL     1      32.616 -19.733 -20.916  0.00  0.00    +0.059 C 
ATOM      7  C   UNL     1      36.150 -20.269 -20.152  0.00  0.00    +0.001 C 
ATOM      8  C   UNL     1      34.422 -22.083 -18.834  0.00  0.00    +0.015 C 
ATOM      9  C   UNL     1      36.659 -21.257 -19.300  0.00  0.00    +0.000 C 
ATOM     10  C   UNL     1      35.806 -22.148 -18.653  0.00  0.00    +0.001 C 
ATOM     11  H   UNL     1      31.835 -21.275 -19.733  0.00  0.00    +0.152 HD
ENDBRANCH   1   3
BRANCH   1  13
ATOM     12  O   UNL     1      34.873 -19.312 -24.108  0.00  0.00    -0.248 OA
ATOM     13  C   UNL     1      35.246 -18.639 -23.155  0.00  0.00    +0.335 C 
BRANCH  13  14
ATOM     14  O   UNL     1      36.534 -18.222 -23.020  0.00  0.00    -0.479 OA
ATOM     15  H   UNL     1      37.142 -18.731 -22.520  0.00  0.00    +0.295 HD
ENDBRANCH  13  14
ENDBRANCH   1  13
BRANCH   1  16
ATOM     16  N   UNL     1      35.090 -17.208 -21.212  0.00  0.00    -0.176 NA
ATOM     17  H   UNL     1      34.620 -17.014 -20.327  0.00  0.00    +0.156 HD
BRANCH  16  18
ATOM     18  O   UNL     1      35.080 -16.036 -22.068  0.00  0.00    -0.284 OA
BRANCH  18  19
ATOM     19  C   UNL     1      34.272 -15.056 -21.431  0.00  0.00    +0.178 C 
BRANCH  19  20
ATOM     20  C   UNL     1      33.297 -14.452 -22.430  0.00  0.00    +0.088 C 
BRANCH  20  21
ATOM     21  S   UNL     1      33.652 -15.011 -24.124  0.00  0.00    -0.165 S 
ATOM     22  H   UNL     1      34.485 -14.123 -24.729  0.00  0.00    +0.102 HD
ENDBRANCH  20  21
ENDBRANCH  19  20
ENDBRANCH  18  19
ENDBRANCH  16  18
ENDBRANCH   1  16
TORSDOF 8
ENDMDL
MODEL 4
REMARK VINA RESULT:      -7.1      3.204      4.471
REMARK  Name = 447066
REMARK  8 active torsions:
REMARK  status: ('A' for Active; 'I' for Inactive)
REMARK    1  A    between atoms: C_1  and  C_3
REMARK    2  A    between atoms: C_1  and  C_13
REMARK    3  A    between atoms: C_1  and  N_16
REMARK    4  A    between atoms: C_13  and  O_14
REMARK    5  A    between atoms: N_16  and  O_18
REMARK    6  A    between atoms: O_18  and  C_19
REMARK    7  A    between atoms: C_19  and  C_20
REMARK    8  A    between atoms: C_20  and  S_21
REMARK                            x       y       z     vdW  Elec       q    Type
REMARK                         _______ _______ _______ _____ _____    ______ ____
ROOT
ATOM      1  C   UNL     1      34.131 -14.109 -23.013  0.00  0.00    +0.202 C 
ENDROOT
BRANCH   1   3
ATOM      2  N   UNL     1      34.277 -17.137 -25.049  0.00  0.00    -0.312 N 
ATOM      3  C   UNL     1      34.263 -15.461 -23.594  0.00  0.00    +0.021 C 
ATOM      4  C   UNL     1      34.620 -16.650 -22.899  0.00  0.00    +0.013 C 
ATOM      5  C   UNL     1      34.622 -17.687 -23.834  0.00  0.00    +0.048 C 
ATOM      6  C   UNL     1      34.058 -15.792 -24.914  0.00  0.00    +0.059 C 
ATOM      7  C   UNL     1      34.943 -16.945 -21.560  0.00  0.00    +0.001 C 
ATOM      8  C   UNL     1      34.931 -19.010 -23.497  0.00  0.00    +0.015 C 
ATOM      9  C   UNL     1      35.255 -18.264 -21.207  0.00  0.00    +0.000 C 
ATOM     10  C   UNL     1      35.248 -19.278 -22.163  0.00  0.00    +0.001 C 
ATOM     11  H   UNL     1      34.200 -17.637 -25.893  0.00  0.00    +0.152 HD
ENDBRANCH   1   3
BRANCH   1  13
ATOM     12  O   UNL     1      32.907 -14.079 -20.900  0.00  0.00    -0.248 OA
ATOM     13  C   UNL     1      32.905 -13.925 -22.115  0.00  0.00    +0.335 C 
BRANCH  13  14
ATOM     14  O   UNL     1      31.777 -13.603 -22.805  0.00  0.00    -0.479 OA
ATOM     15  H   UNL     1      31.274 -12.853 -22.555  0.00  0.00    +0.295 HD
ENDBRANCH  13  14
ENDBRANCH   1  13
BRANCH   1  16
ATOM     16  N   UNL     1      34.052 -13.088 -24.073  0.00  0.00    -0.176 NA
ATOM     17  H   UNL     1      34.936 -13.020 -24.578  0.00  0.00    +0.156 HD
BRANCH  16  18
ATOM     18  O   UNL     1      33.772 -11.859 -23.352  0.00  0.00    -0.284 OA
BRANCH  18  19
ATOM     19  C   UNL     1      33.715 -10.813 -24.312  0.00  0.00    +0.178 C 
BRANCH  19  20
ATOM     20  C   UNL     1      33.162  -9.549 -23.674  0.00  0.00    +0.088 C 
BRANCH  20  21
ATOM     21  S   UNL     1      31.852  -9.930 -22.471  0.00  0.00    -0.165 S 
ATOM     22  H   UNL     1      32.274 -10.921 -21.641  0.00  0.00    +0.102 HD
ENDBRANCH  20  21
ENDBRANCH  19  20
ENDBRANCH  18  19
ENDBRANCH  16  18
ENDBRANCH   1  16
TORSDOF 8
ENDMDL
MODEL 5
REMARK VINA RESULT:      -7.1      8.071      9.631
REMARK  Name = 447066
REMARK  8 active torsions:
REMARK  status: ('A' for Active; 'I' for Inactive)
REMARK    1  A    between atoms: C_1  and  C_3
REMARK    2  A    between atoms: C_1  and  C_13
REMARK    3  A    between atoms: C_1  and  N_16
REMARK    4  A    between atoms: C_13  and  O_14
REMARK    5  A    between atoms: N_16  and  O_18
REMARK    6  A    between atoms: O_18  and  C_19
REMARK    7  A    between atoms: C_19  and  C_20
REMARK    8  A    between atoms: C_20  and  S_21
REMARK                            x       y       z     vdW  Elec       q    Type
REMARK                         _______ _______ _______ _____ _____    ______ ____
ROOT
ATOM      1  C   UNL     1      36.346 -24.709 -15.031  0.00  0.00    +0.202 C 
ENDROOT
BRANCH   1   3
ATOM      2  N   UNL     1      33.353 -23.719 -13.187  0.00  0.00    -0.312 N 
ATOM      3  C   UNL     1      35.029 -24.251 -14.542  0.00  0.00    +0.021 C 
ATOM      4  C   UNL     1      33.943 -23.792 -15.338  0.00  0.00    +0.013 C 
ATOM      5  C   UNL     1      32.904 -23.465 -14.464  0.00  0.00    +0.048 C 
ATOM      6  C   UNL     1      34.637 -24.195 -13.224  0.00  0.00    +0.059 C 
ATOM      7  C   UNL     1      33.743 -23.622 -16.722  0.00  0.00    +0.001 C 
ATOM      8  C   UNL     1      31.669 -22.976 -14.907  0.00  0.00    +0.015 C 
ATOM      9  C   UNL     1      32.513 -23.134 -17.180  0.00  0.00    +0.000 C 
ATOM     10  C   UNL     1      31.495 -22.816 -16.284  0.00  0.00    +0.001 C 
ATOM     11  H   UNL     1      32.828 -23.580 -12.367  0.00  0.00    +0.152 HD
ENDBRANCH   1   3
BRANCH   1  13
ATOM     12  O   UNL     1      36.349 -26.937 -16.029  0.00  0.00    -0.248 OA
ATOM     13  C   UNL     1      36.520 -26.229 -15.044  0.00  0.00    +0.335 C 
BRANCH  13  14
ATOM     14  O   UNL     1      36.853 -26.743 -13.829  0.00  0.00    -0.479 OA
ATOM     15  H   UNL     1      37.495 -27.423 -13.769  0.00  0.00    +0.295 HD
ENDBRANCH  13  14
ENDBRANCH   1  13
BRANCH   1  16
ATOM     16  N   UNL     1      37.434 -24.152 -14.206  0.00  0.00    -0.176 NA
ATOM     17  H   UNL     1      37.203 -24.210 -13.214  0.00  0.00    +0.156 HD
BRANCH  16  18
ATOM     18  O   UNL     1      37.523 -22.768 -14.636  0.00  0.00    -0.284 OA
BRANCH  18  19
ATOM     19  C   UNL     1      37.677 -22.777 -16.048  0.00  0.00    +0.178 C 
BRANCH  19  20
ATOM     20  C   UNL     1      37.204 -21.456 -16.633  0.00  0.00    +0.088 C 
BRANCH  20  21
ATOM     21  S   UNL     1      36.561 -21.671 -18.322  0.00  0.00    -0.165 S 
ATOM     22  H   UNL     1      37.483 -22.323 -19.078  0.00  0.00    +0.102 HD
ENDBRANCH  20  21
ENDBRANCH  19  20
ENDBRANCH  18  19
ENDBRANCH  16  18
ENDBRANCH   1  16
TORSDOF 8
ENDMDL
MODEL 6
REMARK VINA RESULT:      -7.1      7.520      9.994
REMARK  Name = 447066
REMARK  8 active torsions:
REMARK  status: ('A' for Active; 'I' for Inactive)
REMARK    1  A    between atoms: C_1  and  C_3
REMARK    2  A    between atoms: C_1  and  C_13
REMARK    3  A    between atoms: C_1  and  N_16
REMARK    4  A    between atoms: C_13  and  O_14
REMARK    5  A    between atoms: N_16  and  O_18
REMARK    6  A    between atoms: O_18  and  C_19
REMARK    7  A    between atoms: C_19  and  C_20
REMARK    8  A    between atoms: C_20  and  S_21
REMARK                            x       y       z     vdW  Elec       q    Type
REMARK                         _______ _______ _______ _____ _____    ______ ____
ROOT
ATOM      1  C   UNL     1      34.582 -24.374 -15.003  0.00  0.00    +0.202 C 
ENDROOT
BRANCH   1   3
ATOM      2  N   UNL     1      37.174 -22.189 -16.360  0.00  0.00    -0.312 N 
ATOM      3  C   UNL     1      35.452 -23.459 -15.771  0.00  0.00    +0.021 C 
ATOM      4  C   UNL     1      35.163 -22.879 -17.037  0.00  0.00    +0.013 C 
ATOM      5  C   UNL     1      36.259 -22.086 -17.384  0.00  0.00    +0.048 C 
ATOM      6  C   UNL     1      36.695 -23.017 -15.380  0.00  0.00    +0.059 C 
ATOM      7  C   UNL     1      34.072 -22.952 -17.925  0.00  0.00    +0.001 C 
ATOM      8  C   UNL     1      36.318 -21.359 -18.579  0.00  0.00    +0.015 C 
ATOM      9  C   UNL     1      34.117 -22.230 -19.124  0.00  0.00    +0.000 C 
ATOM     10  C   UNL     1      35.224 -21.447 -19.443  0.00  0.00    +0.001 C 
ATOM     11  H   UNL     1      38.046 -21.733 -16.336  0.00  0.00    +0.152 HD
ENDBRANCH   1   3
BRANCH   1  13
ATOM     12  O   UNL     1      34.035 -23.997 -12.654  0.00  0.00    -0.248 OA
ATOM     13  C   UNL     1      33.852 -23.714 -13.831  0.00  0.00    +0.335 C 
BRANCH  13  14
ATOM     14  O   UNL     1      32.933 -22.790 -14.222  0.00  0.00    -0.479 OA
ATOM     15  H   UNL     1      33.216 -21.963 -14.560  0.00  0.00    +0.295 HD
ENDBRANCH  13  14
ENDBRANCH   1  13
BRANCH   1  16
ATOM     16  N   UNL     1      35.359 -25.500 -14.455  0.00  0.00    -0.176 NA
ATOM     17  H   UNL     1      36.144 -25.163 -13.899  0.00  0.00    +0.156 HD
BRANCH  16  18
ATOM     18  O   UNL     1      35.827 -26.206 -15.635  0.00  0.00    -0.284 OA
BRANCH  18  19
ATOM     19  C   UNL     1      37.002 -26.913 -15.262  0.00  0.00    +0.178 C 
BRANCH  19  20
ATOM     20  C   UNL     1      37.496 -26.427 -13.908  0.00  0.00    +0.088 C 
BRANCH  20  21
ATOM     21  S   UNL     1      39.122 -25.623 -14.045  0.00  0.00    -0.165 S 
ATOM     22  H   UNL     1      39.138 -24.501 -13.278  0.00  0.00    +0.102 HD
ENDBRANCH  20  21
ENDBRANCH  19  20
ENDBRANCH  18  19
ENDBRANCH  16  18
ENDBRANCH   1  16
TORSDOF 8
ENDMDL
MODEL 7
REMARK VINA RESULT:      -7.0      3.895      6.308
REMARK  Name = 447066
REMARK  8 active torsions:
REMARK  status: ('A' for Active; 'I' for Inactive)
REMARK    1  A    between atoms: C_1  and  C_3
REMARK    2  A    between atoms: C_1  and  C_13
REMARK    3  A    between atoms: C_1  and  N_16
REMARK    4  A    between atoms: C_13  and  O_14
REMARK    5  A    between atoms: N_16  and  O_18
REMARK    6  A    between atoms: O_18  and  C_19
REMARK    7  A    between atoms: C_19  and  C_20
REMARK    8  A    between atoms: C_20  and  S_21
REMARK                            x       y       z     vdW  Elec       q    Type
REMARK                         _______ _______ _______ _____ _____    ______ ____
ROOT
ATOM      1  C   UNL     1      34.593 -20.001 -21.366  0.00  0.00    +0.202 C 
ENDROOT
BRANCH   1   3
ATOM      2  N   UNL     1      34.745 -17.760 -24.245  0.00  0.00    -0.312 N 
ATOM      3  C   UNL     1      34.642 -18.888 -22.336  0.00  0.00    +0.021 C 
ATOM      4  C   UNL     1      34.617 -17.498 -22.033  0.00  0.00    +0.013 C 
ATOM      5  C   UNL     1      34.683 -16.812 -23.247  0.00  0.00    +0.048 C 
ATOM      6  C   UNL     1      34.721 -19.017 -23.704  0.00  0.00    +0.059 C 
ATOM      7  C   UNL     1      34.545 -16.755 -20.838  0.00  0.00    +0.001 C 
ATOM      8  C   UNL     1      34.681 -15.414 -23.327  0.00  0.00    +0.015 C 
ATOM      9  C   UNL     1      34.542 -15.356 -20.902  0.00  0.00    +0.000 C 
ATOM     10  C   UNL     1      34.609 -14.699 -22.129  0.00  0.00    +0.001 C 
ATOM     11  H   UNL     1      34.799 -17.561 -25.207  0.00  0.00    +0.152 HD
ENDBRANCH   1   3
BRANCH   1  13
ATOM     12  O   UNL     1      32.376 -19.289 -20.631  0.00  0.00    -0.248 OA
ATOM     13  C   UNL     1      33.258 -20.138 -20.631  0.00  0.00    +0.335 C 
BRANCH  13  14
ATOM     14  O   UNL     1      33.148 -21.299 -19.930  0.00  0.00    -0.479 OA
ATOM     15  H   UNL     1      32.686 -22.027 -20.298  0.00  0.00    +0.295 HD
ENDBRANCH  13  14
ENDBRANCH   1  13
BRANCH   1  16
ATOM     16  N   UNL     1      35.642 -19.848 -20.340  0.00  0.00    -0.176 NA
ATOM     17  H   UNL     1      36.444 -19.342 -20.714  0.00  0.00    +0.156 HD
BRANCH  16  18
ATOM     18  O   UNL     1      36.003 -21.215 -20.008  0.00  0.00    -0.284 OA
BRANCH  18  19
ATOM     19  C   UNL     1      36.762 -21.168 -18.808  0.00  0.00    +0.178 C 
BRANCH  19  20
ATOM     20  C   UNL     1      36.092 -22.010 -17.733  0.00  0.00    +0.088 C 
BRANCH  20  21
ATOM     21  S   UNL     1      37.160 -22.191 -16.271  0.00  0.00    -0.165 S 
ATOM     22  H   UNL     1      36.391 -22.234 -15.151  0.00  0.00    +0.102 HD
ENDBRANCH  20  21
ENDBRANCH  19  20
ENDBRANCH  18  19
ENDBRANCH  16  18
ENDBRANCH   1  16
TORSDOF 8
ENDMDL
MODEL 8
REMARK VINA RESULT:      -7.0      1.962      3.049
REMARK  Name = 447066
REMARK  8 active torsions:
REMARK  status: ('A' for Active; 'I' for Inactive)
REMARK    1  A    between atoms: C_1  and  C_3
REMARK    2  A    between atoms: C_1  and  C_13
REMARK    3  A    between atoms: C_1  and  N_16
REMARK    4  A    between atoms: C_13  and  O_14
REMARK    5  A    between atoms: N_16  and  O_18
REMARK    6  A    between atoms: O_18  and  C_19
REMARK    7  A    between atoms: C_19  and  C_20
REMARK    8  A    between atoms: C_20  and  S_21
REMARK                            x       y       z     vdW  Elec       q    Type
REMARK                         _______ _______ _______ _____ _____    ______ ____
ROOT
ATOM      1  C   UNL     1      34.814 -18.566 -21.636  0.00  0.00    +0.202 C 
ENDROOT
BRANCH   1   3
ATOM      2  N   UNL     1      32.651 -21.055 -20.067  0.00  0.00    -0.312 N 
ATOM      3  C   UNL     1      34.177 -19.657 -20.870  0.00  0.00    +0.021 C 
ATOM      4  C   UNL     1      34.819 -20.539 -19.957  0.00  0.00    +0.013 C 
ATOM      5  C   UNL     1      33.840 -21.406 -19.467  0.00  0.00    +0.048 C 
ATOM      6  C   UNL     1      32.845 -19.999 -20.918  0.00  0.00    +0.059 C 
ATOM      7  C   UNL     1      36.143 -20.683 -19.498  0.00  0.00    +0.001 C 
ATOM      8  C   UNL     1      34.120 -22.414 -18.537  0.00  0.00    +0.015 C 
ATOM      9  C   UNL     1      36.438 -21.687 -18.567  0.00  0.00    +0.000 C 
ATOM     10  C   UNL     1      35.440 -22.537 -18.096  0.00  0.00    +0.001 C 
ATOM     11  H   UNL     1      31.788 -21.500 -19.909  0.00  0.00    +0.152 HD
ENDBRANCH   1   3
BRANCH   1  13
ATOM     12  O   UNL     1      35.368 -16.493 -20.471  0.00  0.00    -0.248 OA
ATOM     13  C   UNL     1      34.546 -17.166 -21.081  0.00  0.00    +0.335 C 
BRANCH  13  14
ATOM     14  O   UNL     1      33.273 -16.737 -21.296  0.00  0.00    -0.479 OA
ATOM     15  H   UNL     1      33.117 -15.977 -21.821  0.00  0.00    +0.295 HD
ENDBRANCH  13  14
ENDBRANCH   1  13
BRANCH   1  16
ATOM     16  N   UNL     1      34.359 -18.574 -23.038  0.00  0.00    -0.176 NA
ATOM     17  H   UNL     1      34.817 -19.319 -23.564  0.00  0.00    +0.156 HD
BRANCH  16  18
ATOM     18  O   UNL     1      34.755 -17.270 -23.539  0.00  0.00    -0.284 OA
BRANCH  18  19
ATOM     19  C   UNL     1      34.540 -17.277 -24.943  0.00  0.00    +0.178 C 
BRANCH  19  20
ATOM     20  C   UNL     1      33.907 -15.966 -25.382  0.00  0.00    +0.088 C 
BRANCH  20  21
ATOM     21  S   UNL     1      33.818 -14.779 -24.006  0.00  0.00    -0.165 S 
ATOM     22  H   UNL     1      33.458 -13.558 -24.483  0.00  0.00    +0.102 HD
ENDBRANCH  20  21
ENDBRANCH  19  20
ENDBRANCH  18  19
ENDBRANCH  16  18
ENDBRANCH   1  16
TORSDOF 8
ENDMDL
MODEL 9
REMARK VINA RESULT:      -6.9      7.862      9.915
REMARK  Name = 447066
REMARK  8 active torsions:
REMARK  status: ('A' for Active; 'I' for Inactive)
REMARK    1  A    between atoms: C_1  and  C_3
REMARK    2  A    between atoms: C_1  and  C_13
REMARK    3  A    between atoms: C_1  and  N_16
REMARK    4  A    between atoms: C_13  and  O_14
REMARK    5  A    between atoms: N_16  and  O_18
REMARK    6  A    between atoms: O_18  and  C_19
REMARK    7  A    between atoms: C_19  and  C_20
REMARK    8  A    between atoms: C_20  and  S_21
REMARK                            x       y       z     vdW  Elec       q    Type
REMARK                         _______ _______ _______ _____ _____    ______ ____
ROOT
ATOM      1  C   UNL     1      35.326 -23.591 -15.423  0.00  0.00    +0.202 C 
ENDROOT
BRANCH   1   3
ATOM      2  N   UNL     1      32.603 -22.926 -17.764  0.00  0.00    -0.312 N 
ATOM      3  C   UNL     1      34.059 -23.341 -16.140  0.00  0.00    +0.021 C 
ATOM      4  C   UNL     1      32.757 -23.290 -15.568  0.00  0.00    +0.013 C 
ATOM      5  C   UNL     1      31.862 -23.029 -16.607  0.00  0.00    +0.048 C 
ATOM      6  C   UNL     1      33.932 -23.113 -17.491  0.00  0.00    +0.059 C 
ATOM      7  C   UNL     1      32.252 -23.443 -14.262  0.00  0.00    +0.001 C 
ATOM      8  C   UNL     1      30.482 -22.910 -16.405  0.00  0.00    +0.015 C 
ATOM      9  C   UNL     1      30.874 -23.328 -14.044  0.00  0.00    +0.000 C 
ATOM     10  C   UNL     1      30.005 -23.065 -15.101  0.00  0.00    +0.001 C 
ATOM     11  H   UNL     1      32.232 -22.744 -18.657  0.00  0.00    +0.152 HD
ENDBRANCH   1   3
BRANCH   1  13
ATOM     12  O   UNL     1      36.503 -21.607 -16.221  0.00  0.00    -0.248 OA
ATOM     13  C   UNL     1      36.522 -22.804 -15.961  0.00  0.00    +0.335 C 
BRANCH  13  14
ATOM     14  O   UNL     1      37.625 -23.574 -16.167  0.00  0.00    -0.479 OA
ATOM     15  H   UNL     1      37.651 -24.170 -16.889  0.00  0.00    +0.295 HD
ENDBRANCH  13  14
ENDBRANCH   1  13
BRANCH   1  16
ATOM     16  N   UNL     1      35.685 -25.020 -15.476  0.00  0.00    -0.176 NA
ATOM     17  H   UNL     1      34.881 -25.586 -15.748  0.00  0.00    +0.156 HD
BRANCH  16  18
ATOM     18  O   UNL     1      36.096 -25.326 -14.117  0.00  0.00    -0.284 OA
BRANCH  18  19
ATOM     19  C   UNL     1      37.130 -26.297 -14.200  0.00  0.00    +0.178 C 
BRANCH  19  20
ATOM     20  C   UNL     1      38.371 -25.801 -13.475  0.00  0.00    +0.088 C 
BRANCH  20  21
ATOM     21  S   UNL     1      37.992 -24.380 -12.405  0.00  0.00    -0.165 S 
ATOM     22  H   UNL     1      39.131 -23.679 -12.161  0.00  0.00    +0.102 HD
ENDBRANCH  20  21
ENDBRANCH  19  20
ENDBRANCH  18  19
ENDBRANCH  16  18
ENDBRANCH   1  16
TORSDOF 8
ENDMDL
