MODEL 1
REMARK VINA RESULT:      -8.3      0.000      0.000
REMARK  Name = 6435415
REMARK  14 active torsions:
REMARK  status: ('A' for Active; 'I' for Inactive)
REMARK    1  A    between atoms: C_1  and  C_2
REMARK    2  A    between atoms: C_1  and  C_13
REMARK    3  A    between atoms: C_2  and  C_16
REMARK    4  A    between atoms: C_5  and  C_8
REMARK    5  A    between atoms: C_13  and  O_14
REMARK    6  A    between atoms: C_16  and  C_17
REMARK    7  A    between atoms: C_17  and  C_18
REMARK    8  A    between atoms: C_18  and  C_19
REMARK    9  A    between atoms: C_19  and  S_20
REMARK   10  A    between atoms: S_20  and  C_21
REMARK   11  A    between atoms: C_21  and  C_22
REMARK   12  A    between atoms: C_22  and  N_23
REMARK   13  A    between atoms: C_22  and  C_28
REMARK   14  A    between atoms: C_28  and  O_29
REMARK                            x       y       z     vdW  Elec       q    Type
REMARK                         _______ _______ _______ _____ _____    ______ ____
ROOT
ATOM      1  C   UNK A   1      36.277 -21.788 -18.783  0.00  0.00    +0.048 C 
ENDROOT
BRANCH   1   2
ATOM      2  C   UNK A   1      35.287 -21.259 -19.523  0.00  0.00    +0.104 C 
ATOM      3  O   UNK A   0      33.258 -20.024 -21.142  0.00  0.00    -0.275 OA
ATOM      4  N   UNK A   1      35.414 -20.113 -20.253  0.00  0.00    -0.282 N 
ATOM      5  C   UNK A   0      34.390 -19.574 -21.012  0.00  0.00    +0.226 C 
ATOM      6  H   UNK A   1      36.279 -19.643 -20.239  0.00  0.00    +0.155 HD
BRANCH   5   8
ATOM      7  C   UNK A   0      34.988 -18.315 -23.206  0.00  0.00    +0.009 C 
ATOM      8  C   UNK A   0      34.764 -18.314 -21.723  0.00  0.00    +0.077 C 
ATOM      9  C   UNK A   0      36.154 -18.178 -22.272  0.00  0.00    +0.010 C 
ATOM     10  C   UNK A   0      34.566 -17.107 -23.969  0.00  0.00    +0.000 C 
ATOM     11  C   UNK A   0      34.856 -19.590 -23.965  0.00  0.00    +0.000 C 
ENDBRANCH   5   8
BRANCH   2  13
ATOM     12  O   UNK A   1      33.763 -23.032 -20.111  0.00  0.00    -0.244 OA
ATOM     13  C   UNK A   1      33.981 -21.969 -19.548  0.00  0.00    +0.348 C 
BRANCH  13  14
ATOM     14  O   UNK A   1      33.041 -21.278 -18.860  0.00  0.00    -0.476 OA
ATOM     15  H   UNK A   1      32.151 -21.571 -18.858  0.00  0.00    +0.295 HD
ENDBRANCH  13  14
ENDBRANCH   2  13
ENDBRANCH   1   2
BRANCH   1  16
ATOM     16  C   UNK A   1      36.826 -21.265 -17.483  0.00  0.00    +0.006 C 
BRANCH  16  17
ATOM     17  C   UNK A   1      37.143 -22.380 -16.480  0.00  0.00    +0.001 C 
BRANCH  17  18
ATOM     18  C   UNK A   1      35.946 -22.890 -15.667  0.00  0.00    +0.012 C 
BRANCH  18  19
ATOM     19  C   UNK A   1      36.295 -24.084 -14.782  0.00  0.00    +0.057 C 
BRANCH  19  20
ATOM     20  S   UNK A   1      37.070 -23.527 -13.236  0.00  0.00    -0.142 S 
BRANCH  20  21
ATOM     21  C   UNK A   1      38.353 -24.793 -13.116  0.00  0.00    +0.047 C 
BRANCH  21  22
ATOM     22  C   UNK A   1      38.631 -25.455 -14.468  0.00  0.00    +0.047 C 
BRANCH  22  23
ATOM     23  N   UNK A   1      38.303 -26.880 -14.405  0.00  0.00    +0.389 N 
ATOM     24  H   UNK A   1      38.571 -27.251 -13.493  0.00  0.00    -0.088 HD
ATOM     25  H   UNK A   1      38.809 -27.378 -15.137  0.00  0.00    -0.088 HD
ATOM     26  H   UNK A   1      37.299 -27.004 -14.541  0.00  0.00    -0.088 HD
ENDBRANCH  22  23
BRANCH  22  28
ATOM     27  O   UNK A   1      40.925 -24.728 -14.219  0.00  0.00    -0.253 OA
ATOM     28  C   UNK A   1      40.089 -25.339 -14.875  0.00  0.00    +0.294 C 
BRANCH  28  29
ATOM     29  O   UNK A   1      40.379 -25.946 -16.053  0.00  0.00    -0.482 OA
ATOM     30  H   UNK A   1      40.822 -26.772 -16.058  0.00  0.00    +0.295 HD
ENDBRANCH  28  29
ENDBRANCH  22  28
ENDBRANCH  21  22
ENDBRANCH  20  21
ENDBRANCH  19  20
ENDBRANCH  18  19
ENDBRANCH  17  18
ENDBRANCH  16  17
ENDBRANCH   1  16
TORSDOF 14
ENDMDL
MODEL 2
REMARK VINA RESULT:      -8.3      2.493      2.733
REMARK  Name = 6435415
REMARK  14 active torsions:
REMARK  status: ('A' for Active; 'I' for Inactive)
REMARK    1  A    between atoms: C_1  and  C_2
REMARK    2  A    between atoms: C_1  and  C_13
REMARK    3  A    between atoms: C_2  and  C_16
REMARK    4  A    between atoms: C_5  and  C_8
REMARK    5  A    between atoms: C_13  and  O_14
REMARK    6  A    between atoms: C_16  and  C_17
REMARK    7  A    between atoms: C_17  and  C_18
REMARK    8  A    between atoms: C_18  and  C_19
REMARK    9  A    between atoms: C_19  and  S_20
REMARK   10  A    between atoms: S_20  and  C_21
REMARK   11  A    between atoms: C_21  and  C_22
REMARK   12  A    between atoms: C_22  and  N_23
REMARK   13  A    between atoms: C_22  and  C_28
REMARK   14  A    between atoms: C_28  and  O_29
REMARK                            x       y       z     vdW  Elec       q    Type
REMARK                         _______ _______ _______ _____ _____    ______ ____
ROOT
ATOM      1  C   UNK A   1      36.358 -21.720 -18.416  0.00  0.00    +0.048 C 
ENDROOT
BRANCH   1   2
ATOM      2  C   UNK A   1      35.408 -21.301 -19.270  0.00  0.00    +0.104 C 
ATOM      3  O   UNK A   0      33.457 -20.293 -21.126  0.00  0.00    -0.275 OA
ATOM      4  N   UNK A   1      35.497 -20.151 -20.001  0.00  0.00    -0.282 N 
ATOM      5  C   UNK A   0      34.515 -19.726 -20.878  0.00  0.00    +0.226 C 
ATOM      6  H   UNK A   1      36.302 -19.594 -19.898  0.00  0.00    +0.155 HD
BRANCH   5   8
ATOM      7  C   UNK A   0      35.003 -18.389 -23.053  0.00  0.00    +0.009 C 
ATOM      8  C   UNK A   0      34.834 -18.438 -21.563  0.00  0.00    +0.077 C 
ATOM      9  C   UNK A   0      36.200 -18.253 -22.158  0.00  0.00    +0.010 C 
ATOM     10  C   UNK A   0      34.527 -17.170 -23.764  0.00  0.00    +0.000 C 
ATOM     11  C   UNK A   0      34.871 -19.645 -23.845  0.00  0.00    +0.000 C 
ENDBRANCH   5   8
BRANCH   2  13
ATOM     12  O   UNK A   1      34.147 -23.218 -20.012  0.00  0.00    -0.244 OA
ATOM     13  C   UNK A   1      34.193 -22.144 -19.430  0.00  0.00    +0.348 C 
BRANCH  13  14
ATOM     14  O   UNK A   1      33.121 -21.564 -18.840  0.00  0.00    -0.476 OA
ATOM     15  H   UNK A   1      32.883 -21.798 -17.965  0.00  0.00    +0.295 HD
ENDBRANCH  13  14
ENDBRANCH   2  13
ENDBRANCH   1   2
BRANCH   1  16
ATOM     16  C   UNK A   1      36.158 -22.320 -17.051  0.00  0.00    +0.006 C 
BRANCH  16  17
ATOM     17  C   UNK A   1      37.416 -22.241 -16.178  0.00  0.00    +0.001 C 
BRANCH  17  18
ATOM     18  C   UNK A   1      37.782 -23.534 -15.438  0.00  0.00    +0.012 C 
BRANCH  18  19
ATOM     19  C   UNK A   1      36.558 -24.325 -14.984  0.00  0.00    +0.057 C 
BRANCH  19  20
ATOM     20  S   UNK A   1      37.014 -26.044 -14.606  0.00  0.00    -0.142 S 
BRANCH  20  21
ATOM     21  C   UNK A   1      37.075 -25.908 -12.806  0.00  0.00    +0.047 C 
BRANCH  21  22
ATOM     22  C   UNK A   1      36.757 -24.490 -12.328  0.00  0.00    +0.047 C 
BRANCH  22  23
ATOM     23  N   UNK A   1      37.846 -23.987 -11.488  0.00  0.00    +0.389 N 
ATOM     24  H   UNK A   1      37.771 -24.394 -10.555  0.00  0.00    -0.088 HD
ATOM     25  H   UNK A   1      37.784 -22.972 -11.423  0.00  0.00    -0.088 HD
ATOM     26  H   UNK A   1      38.742 -24.248 -11.901  0.00  0.00    -0.088 HD
ENDBRANCH  22  23
BRANCH  22  28
ATOM     27  O   UNK A   1      35.292 -25.122 -10.510  0.00  0.00    -0.253 OA
ATOM     28  C   UNK A   1      35.483 -24.433 -11.506  0.00  0.00    +0.294 C 
BRANCH  28  29
ATOM     29  O   UNK A   1      34.553 -23.573 -11.993  0.00  0.00    -0.482 OA
ATOM     30  H   UNK A   1      34.679 -23.175 -12.832  0.00  0.00    +0.295 HD
ENDBRANCH  28  29
ENDBRANCH  22  28
ENDBRANCH  21  22
ENDBRANCH  20  21
ENDBRANCH  19  20
ENDBRANCH  18  19
ENDBRANCH  17  18
ENDBRANCH  16  17
ENDBRANCH   1  16
TORSDOF 14
ENDMDL
MODEL 3
REMARK VINA RESULT:      -8.0      1.420      1.965
REMARK  Name = 6435415
REMARK  14 active torsions:
REMARK  status: ('A' for Active; 'I' for Inactive)
REMARK    1  A    between atoms: C_1  and  C_2
REMARK    2  A    between atoms: C_1  and  C_13
REMARK    3  A    between atoms: C_2  and  C_16
REMARK    4  A    between atoms: C_5  and  C_8
REMARK    5  A    between atoms: C_13  and  O_14
REMARK    6  A    between atoms: C_16  and  C_17
REMARK    7  A    between atoms: C_17  and  C_18
REMARK    8  A    between atoms: C_18  and  C_19
REMARK    9  A    between atoms: C_19  and  S_20
REMARK   10  A    between atoms: S_20  and  C_21
REMARK   11  A    between atoms: C_21  and  C_22
REMARK   12  A    between atoms: C_22  and  N_23
REMARK   13  A    between atoms: C_22  and  C_28
REMARK   14  A    between atoms: C_28  and  O_29
REMARK                            x       y       z     vdW  Elec       q    Type
REMARK                         _______ _______ _______ _____ _____    ______ ____
ROOT
ATOM      1  C   UNK A   1      36.231 -22.035 -18.481  0.00  0.00    +0.048 C 
ENDROOT
BRANCH   1   2
ATOM      2  C   UNK A   1      35.086 -21.743 -19.120  0.00  0.00    +0.104 C 
ATOM      3  O   UNK A   0      32.703 -21.012 -20.553  0.00  0.00    -0.275 OA
ATOM      4  N   UNK A   1      34.955 -20.721 -20.017  0.00  0.00    -0.282 N 
ATOM      5  C   UNK A   0      33.773 -20.426 -20.672  0.00  0.00    +0.226 C 
ATOM      6  H   UNK A   1      35.745 -20.164 -20.208  0.00  0.00    +0.155 HD
BRANCH   5   8
ATOM      7  C   UNK A   0      35.183 -18.562 -21.809  0.00  0.00    +0.009 C 
ATOM      8  C   UNK A   0      33.873 -19.264 -21.605  0.00  0.00    +0.077 C 
ATOM      9  C   UNK A   0      34.087 -17.893 -21.033  0.00  0.00    +0.010 C 
ATOM     10  C   UNK A   0      35.485 -18.043 -23.172  0.00  0.00    +0.000 C 
ATOM     11  C   UNK A   0      36.384 -19.021 -21.053  0.00  0.00    +0.000 C 
ENDBRANCH   5   8
BRANCH   2  13
ATOM     12  O   UNK A   1      33.045 -22.351 -17.988  0.00  0.00    -0.244 OA
ATOM     13  C   UNK A   1      33.894 -22.586 -18.836  0.00  0.00    +0.348 C 
BRANCH  13  14
ATOM     14  O   UNK A   1      33.864 -23.671 -19.646  0.00  0.00    -0.476 OA
ATOM     15  H   UNK A   1      33.781 -23.561 -20.573  0.00  0.00    +0.295 HD
ENDBRANCH  13  14
ENDBRANCH   2  13
ENDBRANCH   1   2
BRANCH   1  16
ATOM     16  C   UNK A   1      36.882 -21.255 -17.371  0.00  0.00    +0.006 C 
BRANCH  16  17
ATOM     17  C   UNK A   1      37.105 -22.093 -16.107  0.00  0.00    +0.001 C 
BRANCH  17  18
ATOM     18  C   UNK A   1      36.022 -23.139 -15.815  0.00  0.00    +0.012 C 
BRANCH  18  19
ATOM     19  C   UNK A   1      35.605 -23.168 -14.347  0.00  0.00    +0.057 C 
BRANCH  19  20
ATOM     20  S   UNK A   1      37.014 -23.625 -13.293  0.00  0.00    -0.142 S 
BRANCH  20  21
ATOM     21  C   UNK A   1      36.482 -25.294 -12.854  0.00  0.00    +0.047 C 
BRANCH  21  22
ATOM     22  C   UNK A   1      37.396 -26.363 -13.455  0.00  0.00    +0.047 C 
BRANCH  22  23
ATOM     23  N   UNK A   1      38.792 -26.077 -13.117  0.00  0.00    +0.389 N 
ATOM     24  H   UNK A   1      39.203 -26.890 -12.658  0.00  0.00    -0.088 HD
ATOM     25  H   UNK A   1      38.833 -25.275 -12.491  0.00  0.00    -0.088 HD
ATOM     26  H   UNK A   1      39.312 -25.870 -13.971  0.00  0.00    -0.088 HD
ENDBRANCH  22  23
BRANCH  22  28
ATOM     27  O   UNK A   1      36.275 -26.748 -15.563  0.00  0.00    -0.253 OA
ATOM     28  C   UNK A   1      37.295 -26.421 -14.968  0.00  0.00    +0.294 C 
BRANCH  28  29
ATOM     29  O   UNK A   1      38.451 -26.111 -15.607  0.00  0.00    -0.482 OA
ATOM     30  H   UNK A   1      39.204 -26.660 -15.505  0.00  0.00    +0.295 HD
ENDBRANCH  28  29
ENDBRANCH  22  28
ENDBRANCH  21  22
ENDBRANCH  20  21
ENDBRANCH  19  20
ENDBRANCH  18  19
ENDBRANCH  17  18
ENDBRANCH  16  17
ENDBRANCH   1  16
TORSDOF 14
ENDMDL
MODEL 4
REMARK VINA RESULT:      -7.9      3.841      5.836
REMARK  Name = 6435415
REMARK  14 active torsions:
REMARK  status: ('A' for Active; 'I' for Inactive)
REMARK    1  A    between atoms: C_1  and  C_2
REMARK    2  A    between atoms: C_1  and  C_13
REMARK    3  A    between atoms: C_2  and  C_16
REMARK    4  A    between atoms: C_5  and  C_8
REMARK    5  A    between atoms: C_13  and  O_14
REMARK    6  A    between atoms: C_16  and  C_17
REMARK    7  A    between atoms: C_17  and  C_18
REMARK    8  A    between atoms: C_18  and  C_19
REMARK    9  A    between atoms: C_19  and  S_20
REMARK   10  A    between atoms: S_20  and  C_21
REMARK   11  A    between atoms: C_21  and  C_22
REMARK   12  A    between atoms: C_22  and  N_23
REMARK   13  A    between atoms: C_22  and  C_28
REMARK   14  A    between atoms: C_28  and  O_29
REMARK                            x       y       z     vdW  Elec       q    Type
REMARK                         _______ _______ _______ _____ _____    ______ ____
ROOT
ATOM      1  C   UNK A   1      36.269 -22.176 -17.871  0.00  0.00    +0.048 C 
ENDROOT
BRANCH   1   2
ATOM      2  C   UNK A   1      34.953 -22.448 -17.865  0.00  0.00    +0.104 C 
ATOM      3  O   UNK A   0      32.149 -23.066 -17.714  0.00  0.00    -0.275 OA
ATOM      4  N   UNK A   1      34.274 -22.891 -16.765  0.00  0.00    -0.282 N 
ATOM      5  C   UNK A   0      32.919 -23.170 -16.766  0.00  0.00    +0.226 C 
ATOM      6  H   UNK A   1      34.776 -23.021 -15.928  0.00  0.00    +0.155 HD
BRANCH   5   8
ATOM      7  C   UNK A   0      30.925 -23.663 -15.174  0.00  0.00    +0.009 C 
ATOM      8  C   UNK A   0      32.400 -23.642 -15.448  0.00  0.00    +0.077 C 
ATOM      9  C   UNK A   0      31.797 -22.641 -14.506  0.00  0.00    +0.010 C 
ATOM     10  C   UNK A   0      30.393 -24.774 -14.335  0.00  0.00    +0.000 C 
ATOM     11  C   UNK A   0      29.980 -23.187 -16.223  0.00  0.00    +0.000 C 
ENDBRANCH   5   8
BRANCH   2  13
ATOM     12  O   UNK A   1      33.764 -21.182 -19.536  0.00  0.00    -0.244 OA
ATOM     13  C   UNK A   1      34.194 -22.250 -19.128  0.00  0.00    +0.348 C 
BRANCH  13  14
ATOM     14  O   UNK A   1      34.032 -23.424 -19.784  0.00  0.00    -0.476 OA
ATOM     15  H   UNK A   1      33.194 -23.845 -19.792  0.00  0.00    +0.295 HD
ENDBRANCH  13  14
ENDBRANCH   2  13
ENDBRANCH   1   2
BRANCH   1  16
ATOM     16  C   UNK A   1      37.053 -21.429 -16.826  0.00  0.00    +0.006 C 
BRANCH  16  17
ATOM     17  C   UNK A   1      37.172 -22.202 -15.507  0.00  0.00    +0.001 C 
BRANCH  17  18
ATOM     18  C   UNK A   1      37.769 -23.610 -15.625  0.00  0.00    +0.012 C 
BRANCH  18  19
ATOM     19  C   UNK A   1      36.891 -24.683 -14.986  0.00  0.00    +0.057 C 
BRANCH  19  20
ATOM     20  S   UNK A   1      37.915 -26.007 -14.279  0.00  0.00    -0.142 S 
BRANCH  20  21
ATOM     21  C   UNK A   1      37.381 -25.860 -12.559  0.00  0.00    +0.047 C 
BRANCH  21  22
ATOM     22  C   UNK A   1      36.883 -24.451 -12.233  0.00  0.00    +0.047 C 
BRANCH  22  23
ATOM     23  N   UNK A   1      37.861 -23.753 -11.398  0.00  0.00    +0.389 N 
ATOM     24  H   UNK A   1      38.742 -23.669 -11.905  0.00  0.00    -0.088 HD
ATOM     25  H   UNK A   1      38.012 -24.280 -10.538  0.00  0.00    -0.088 HD
ATOM     26  H   UNK A   1      37.511 -22.822 -11.169  0.00  0.00    -0.088 HD
ENDBRANCH  22  23
BRANCH  22  28
ATOM     27  O   UNK A   1      35.340 -25.217 -10.535  0.00  0.00    -0.253 OA
ATOM     28  C   UNK A   1      35.566 -24.467 -11.478  0.00  0.00    +0.294 C 
BRANCH  28  29
ATOM     29  O   UNK A   1      34.644 -23.599 -11.965  0.00  0.00    -0.482 OA
ATOM     30  H   UNK A   1      34.902 -22.936 -12.576  0.00  0.00    +0.295 HD
ENDBRANCH  28  29
ENDBRANCH  22  28
ENDBRANCH  21  22
ENDBRANCH  20  21
ENDBRANCH  19  20
ENDBRANCH  18  19
ENDBRANCH  17  18
ENDBRANCH  16  17
ENDBRANCH   1  16
TORSDOF 14
ENDMDL
MODEL 5
REMARK VINA RESULT:      -7.9      2.645      3.719
REMARK  Name = 6435415
REMARK  14 active torsions:
REMARK  status: ('A' for Active; 'I' for Inactive)
REMARK    1  A    between atoms: C_1  and  C_2
REMARK    2  A    between atoms: C_1  and  C_13
REMARK    3  A    between atoms: C_2  and  C_16
REMARK    4  A    between atoms: C_5  and  C_8
REMARK    5  A    between atoms: C_13  and  O_14
REMARK    6  A    between atoms: C_16  and  C_17
REMARK    7  A    between atoms: C_17  and  C_18
REMARK    8  A    between atoms: C_18  and  C_19
REMARK    9  A    between atoms: C_19  and  S_20
REMARK   10  A    between atoms: S_20  and  C_21
REMARK   11  A    between atoms: C_21  and  C_22
REMARK   12  A    between atoms: C_22  and  N_23
REMARK   13  A    between atoms: C_22  and  C_28
REMARK   14  A    between atoms: C_28  and  O_29
REMARK                            x       y       z     vdW  Elec       q    Type
REMARK                         _______ _______ _______ _____ _____    ______ ____
ROOT
ATOM      1  C   UNK A   1      32.925 -20.285 -20.722  0.00  0.00    +0.048 C 
ENDROOT
BRANCH   1   2
ATOM      2  C   UNK A   1      33.735 -19.254 -21.016  0.00  0.00    +0.104 C 
ATOM      3  O   UNK A   0      35.366 -16.960 -21.603  0.00  0.00    -0.275 OA
ATOM      4  N   UNK A   1      33.385 -17.943 -20.858  0.00  0.00    -0.282 N 
ATOM      5  C   UNK A   0      34.224 -16.887 -21.163  0.00  0.00    +0.226 C 
ATOM      6  H   UNK A   1      32.487 -17.739 -20.511  0.00  0.00    +0.155 HD
BRANCH   5   8
ATOM      7  C   UNK A   0      33.467 -14.555 -22.027  0.00  0.00    +0.009 C 
ATOM      8  C   UNK A   0      33.621 -15.544 -20.910  0.00  0.00    +0.077 C 
ATOM      9  C   UNK A   0      34.503 -14.331 -20.965  0.00  0.00    +0.010 C 
ATOM     10  C   UNK A   0      32.262 -13.679 -22.015  0.00  0.00    +0.000 C 
ATOM     11  C   UNK A   0      33.943 -14.915 -23.393  0.00  0.00    +0.000 C 
ENDBRANCH   5   8
BRANCH   2  13
ATOM     12  O   UNK A   1      35.369 -19.786 -22.707  0.00  0.00    -0.244 OA
ATOM     13  C   UNK A   1      35.093 -19.561 -21.538  0.00  0.00    +0.348 C 
BRANCH  13  14
ATOM     14  O   UNK A   1      36.006 -19.566 -20.537  0.00  0.00    -0.476 OA
ATOM     15  H   UNK A   1      36.224 -20.368 -20.104  0.00  0.00    +0.295 HD
ENDBRANCH  13  14
ENDBRANCH   2  13
ENDBRANCH   1   2
BRANCH   1  16
ATOM     16  C   UNK A   1      32.892 -21.087 -19.449  0.00  0.00    +0.006 C 
BRANCH  16  17
ATOM     17  C   UNK A   1      33.891 -22.250 -19.454  0.00  0.00    +0.001 C 
BRANCH  17  18
ATOM     18  C   UNK A   1      34.858 -22.288 -18.263  0.00  0.00    +0.012 C 
BRANCH  18  19
ATOM     19  C   UNK A   1      34.288 -23.035 -17.060  0.00  0.00    +0.057 C 
BRANCH  19  20
ATOM     20  S   UNK A   1      35.423 -22.924 -15.645  0.00  0.00    -0.142 S 
BRANCH  20  21
ATOM     21  C   UNK A   1      35.412 -24.664 -15.163  0.00  0.00    +0.047 C 
BRANCH  21  22
ATOM     22  C   UNK A   1      36.803 -25.155 -14.756  0.00  0.00    +0.047 C 
BRANCH  22  23
ATOM     23  N   UNK A   1      37.831 -24.291 -15.341  0.00  0.00    +0.389 N 
ATOM     24  H   UNK A   1      37.457 -23.349 -15.456  0.00  0.00    -0.088 HD
ATOM     25  H   UNK A   1      38.109 -24.660 -16.249  0.00  0.00    -0.088 HD
ATOM     26  H   UNK A   1      38.642 -24.262 -14.722  0.00  0.00    -0.088 HD
ENDBRANCH  22  23
BRANCH  22  28
ATOM     27  O   UNK A   1      36.346 -27.171 -16.011  0.00  0.00    -0.253 OA
ATOM     28  C   UNK A   1      37.074 -26.571 -15.229  0.00  0.00    +0.294 C 
BRANCH  28  29
ATOM     29  O   UNK A   1      38.181 -27.131 -14.678  0.00  0.00    -0.482 OA
ATOM     30  H   UNK A   1      38.918 -26.594 -14.461  0.00  0.00    +0.295 HD
ENDBRANCH  28  29
ENDBRANCH  22  28
ENDBRANCH  21  22
ENDBRANCH  20  21
ENDBRANCH  19  20
ENDBRANCH  18  19
ENDBRANCH  17  18
ENDBRANCH  16  17
ENDBRANCH   1  16
TORSDOF 14
ENDMDL
MODEL 6
REMARK VINA RESULT:      -7.9      8.112     10.920
REMARK  Name = 6435415
REMARK  14 active torsions:
REMARK  status: ('A' for Active; 'I' for Inactive)
REMARK    1  A    between atoms: C_1  and  C_2
REMARK    2  A    between atoms: C_1  and  C_13
REMARK    3  A    between atoms: C_2  and  C_16
REMARK    4  A    between atoms: C_5  and  C_8
REMARK    5  A    between atoms: C_13  and  O_14
REMARK    6  A    between atoms: C_16  and  C_17
REMARK    7  A    between atoms: C_17  and  C_18
REMARK    8  A    between atoms: C_18  and  C_19
REMARK    9  A    between atoms: C_19  and  S_20
REMARK   10  A    between atoms: S_20  and  C_21
REMARK   11  A    between atoms: C_21  and  C_22
REMARK   12  A    between atoms: C_22  and  N_23
REMARK   13  A    between atoms: C_22  and  C_28
REMARK   14  A    between atoms: C_28  and  O_29
REMARK                            x       y       z     vdW  Elec       q    Type
REMARK                         _______ _______ _______ _____ _____    ______ ____
ROOT
ATOM      1  C   UNK A   1      32.213 -13.343 -21.559  0.00  0.00    +0.048 C 
ENDROOT
BRANCH   1   2
ATOM      2  C   UNK A   1      32.558 -12.529 -22.572  0.00  0.00    +0.104 C 
ATOM      3  O   UNK A   0      33.244 -10.681 -24.664  0.00  0.00    -0.275 OA
ATOM      4  N   UNK A   1      32.340 -11.181 -22.572  0.00  0.00    -0.282 N 
ATOM      5  C   UNK A   0      32.698 -10.350 -23.619  0.00  0.00    +0.226 C 
ATOM      6  H   UNK A   1      31.904 -10.779 -21.786  0.00  0.00    +0.155 HD
BRANCH   5   8
ATOM      7  C   UNK A   0      33.418  -7.857 -23.479  0.00  0.00    +0.009 C 
ATOM      8  C   UNK A   0      32.357  -8.914 -23.392  0.00  0.00    +0.077 C 
ATOM      9  C   UNK A   0      32.850  -8.241 -22.144  0.00  0.00    +0.010 C 
ATOM     10  C   UNK A   0      33.031  -6.533 -24.042  0.00  0.00    +0.000 C 
ATOM     11  C   UNK A   0      34.824  -8.254 -23.773  0.00  0.00    +0.000 C 
ENDBRANCH   5   8
BRANCH   2  13
ATOM     12  O   UNK A   1      32.647 -13.697 -24.680  0.00  0.00    -0.244 OA
ATOM     13  C   UNK A   1      33.220 -13.135 -23.758  0.00  0.00    +0.348 C 
BRANCH  13  14
ATOM     14  O   UNK A   1      34.565 -12.989 -23.689  0.00  0.00    -0.476 OA
ATOM     15  H   UNK A   1      34.967 -12.730 -22.883  0.00  0.00    +0.295 HD
ENDBRANCH  13  14
ENDBRANCH   2  13
ENDBRANCH   1   2
BRANCH   1  16
ATOM     16  C   UNK A   1      32.387 -14.836 -21.487  0.00  0.00    +0.006 C 
BRANCH  16  17
ATOM     17  C   UNK A   1      33.295 -15.272 -20.331  0.00  0.00    +0.001 C 
BRANCH  17  18
ATOM     18  C   UNK A   1      34.545 -16.062 -20.742  0.00  0.00    +0.012 C 
BRANCH  18  19
ATOM     19  C   UNK A   1      34.221 -17.469 -21.238  0.00  0.00    +0.057 C 
BRANCH  19  20
ATOM     20  S   UNK A   1      35.724 -18.489 -21.289  0.00  0.00    -0.142 S 
BRANCH  20  21
ATOM     21  C   UNK A   1      36.038 -18.405 -23.065  0.00  0.00    +0.047 C 
BRANCH  21  22
ATOM     22  C   UNK A   1      34.769 -18.082 -23.856  0.00  0.00    +0.047 C 
BRANCH  22  23
ATOM     23  N   UNK A   1      34.445 -19.189 -24.759  0.00  0.00    +0.389 N 
ATOM     24  H   UNK A   1      33.910 -19.894 -24.253  0.00  0.00    -0.088 HD
ATOM     25  H   UNK A   1      35.307 -19.603 -25.112  0.00  0.00    -0.088 HD
ATOM     26  H   UNK A   1      33.891 -18.838 -25.541  0.00  0.00    -0.088 HD
ENDBRANCH  22  23
BRANCH  22  28
ATOM     27  O   UNK A   1      34.599 -16.775 -25.884  0.00  0.00    -0.253 OA
ATOM     28  C   UNK A   1      34.921 -16.832 -24.703  0.00  0.00    +0.294 C 
BRANCH  28  29
ATOM     29  O   UNK A   1      35.481 -15.787 -24.043  0.00  0.00    -0.482 OA
ATOM     30  H   UNK A   1      36.405 -15.775 -23.885  0.00  0.00    +0.295 HD
ENDBRANCH  28  29
ENDBRANCH  22  28
ENDBRANCH  21  22
ENDBRANCH  20  21
ENDBRANCH  19  20
ENDBRANCH  18  19
ENDBRANCH  17  18
ENDBRANCH  16  17
ENDBRANCH   1  16
TORSDOF 14
ENDMDL
MODEL 7
REMARK VINA RESULT:      -7.9      3.421      9.326
REMARK  Name = 6435415
REMARK  14 active torsions:
REMARK  status: ('A' for Active; 'I' for Inactive)
REMARK    1  A    between atoms: C_1  and  C_2
REMARK    2  A    between atoms: C_1  and  C_13
REMARK    3  A    between atoms: C_2  and  C_16
REMARK    4  A    between atoms: C_5  and  C_8
REMARK    5  A    between atoms: C_13  and  O_14
REMARK    6  A    between atoms: C_16  and  C_17
REMARK    7  A    between atoms: C_17  and  C_18
REMARK    8  A    between atoms: C_18  and  C_19
REMARK    9  A    between atoms: C_19  and  S_20
REMARK   10  A    between atoms: S_20  and  C_21
REMARK   11  A    between atoms: C_21  and  C_22
REMARK   12  A    between atoms: C_22  and  N_23
REMARK   13  A    between atoms: C_22  and  C_28
REMARK   14  A    between atoms: C_28  and  O_29
REMARK                            x       y       z     vdW  Elec       q    Type
REMARK                         _______ _______ _______ _____ _____    ______ ____
ROOT
ATOM      1  C   UNK A   1      33.299 -23.383 -15.990  0.00  0.00    +0.048 C 
ENDROOT
BRANCH   1   2
ATOM      2  C   UNK A   1      33.814 -23.782 -14.814  0.00  0.00    +0.104 C 
ATOM      3  O   UNK A   0      35.043 -24.621 -12.355  0.00  0.00    -0.275 OA
ATOM      4  N   UNK A   1      35.152 -23.907 -14.574  0.00  0.00    -0.282 N 
ATOM      5  C   UNK A   0      35.674 -24.318 -13.361  0.00  0.00    +0.226 C 
ATOM      6  H   UNK A   1      35.779 -23.694 -15.303  0.00  0.00    +0.155 HD
BRANCH   5   8
ATOM      7  C   UNK A   0      37.886 -25.607 -13.812  0.00  0.00    +0.009 C 
ATOM      8  C   UNK A   0      37.167 -24.379 -13.337  0.00  0.00    +0.077 C 
ATOM      9  C   UNK A   0      37.838 -25.286 -12.347  0.00  0.00    +0.010 C 
ATOM     10  C   UNK A   0      39.183 -25.418 -14.521  0.00  0.00    +0.000 C 
ATOM     11  C   UNK A   0      37.097 -26.778 -14.290  0.00  0.00    +0.000 C 
ENDBRANCH   5   8
BRANCH   2  13
ATOM     12  O   UNK A   1      32.257 -25.151 -13.583  0.00  0.00    -0.244 OA
ATOM     13  C   UNK A   1      32.868 -24.100 -13.712  0.00  0.00    +0.348 C 
BRANCH  13  14
ATOM     14  O   UNK A   1      32.761 -23.060 -12.851  0.00  0.00    -0.476 OA
ATOM     15  H   UNK A   1      32.482 -23.208 -11.969  0.00  0.00    +0.295 HD
ENDBRANCH  13  14
ENDBRANCH   2  13
ENDBRANCH   1   2
BRANCH   1  16
ATOM     16  C   UNK A   1      34.050 -23.058 -17.253  0.00  0.00    +0.006 C 
BRANCH  16  17
ATOM     17  C   UNK A   1      33.158 -22.429 -18.330  0.00  0.00    +0.001 C 
BRANCH  17  18
ATOM     18  C   UNK A   1      33.902 -21.681 -19.443  0.00  0.00    +0.012 C 
BRANCH  18  19
ATOM     19  C   UNK A   1      35.378 -22.062 -19.530  0.00  0.00    +0.057 C 
BRANCH  19  20
ATOM     20  S   UNK A   1      36.387 -20.612 -19.958  0.00  0.00    -0.142 S 
BRANCH  20  21
ATOM     21  C   UNK A   1      35.198 -19.773 -21.029  0.00  0.00    +0.047 C 
BRANCH  21  22
ATOM     22  C   UNK A   1      35.746 -18.450 -21.566  0.00  0.00    +0.047 C 
BRANCH  22  23
ATOM     23  N   UNK A   1      35.183 -17.330 -20.810  0.00  0.00    +0.389 N 
ATOM     24  H   UNK A   1      34.931 -16.578 -21.452  0.00  0.00    -0.088 HD
ATOM     25  H   UNK A   1      35.874 -16.989 -20.142  0.00  0.00    -0.088 HD
ATOM     26  H   UNK A   1      34.350 -17.642 -20.309  0.00  0.00    -0.088 HD
ENDBRANCH  22  23
BRANCH  22  28
ATOM     27  O   UNK A   1      34.822 -19.072 -23.713  0.00  0.00    -0.253 OA
ATOM     28  C   UNK A   1      35.397 -18.234 -23.027  0.00  0.00    +0.294 C 
BRANCH  28  29
ATOM     29  O   UNK A   1      35.813 -17.040 -23.520  0.00  0.00    -0.482 OA
ATOM     30  H   UNK A   1      35.320 -16.616 -24.195  0.00  0.00    +0.295 HD
ENDBRANCH  28  29
ENDBRANCH  22  28
ENDBRANCH  21  22
ENDBRANCH  20  21
ENDBRANCH  19  20
ENDBRANCH  18  19
ENDBRANCH  17  18
ENDBRANCH  16  17
ENDBRANCH   1  16
TORSDOF 14
ENDMDL
MODEL 8
REMARK VINA RESULT:      -7.8      8.311     13.005
REMARK  Name = 6435415
REMARK  14 active torsions:
REMARK  status: ('A' for Active; 'I' for Inactive)
REMARK    1  A    between atoms: C_1  and  C_2
REMARK    2  A    between atoms: C_1  and  C_13
REMARK    3  A    between atoms: C_2  and  C_16
REMARK    4  A    between atoms: C_5  and  C_8
REMARK    5  A    between atoms: C_13  and  O_14
REMARK    6  A    between atoms: C_16  and  C_17
REMARK    7  A    between atoms: C_17  and  C_18
REMARK    8  A    between atoms: C_18  and  C_19
REMARK    9  A    between atoms: C_19  and  S_20
REMARK   10  A    between atoms: S_20  and  C_21
REMARK   11  A    between atoms: C_21  and  C_22
REMARK   12  A    between atoms: C_22  and  N_23
REMARK   13  A    between atoms: C_22  and  C_28
REMARK   14  A    between atoms: C_28  and  O_29
REMARK                            x       y       z     vdW  Elec       q    Type
REMARK                         _______ _______ _______ _____ _____    ______ ____
ROOT
ATOM      1  C   UNK A   1      32.046 -13.010 -21.743  0.00  0.00    +0.048 C 
ENDROOT
BRANCH   1   2
ATOM      2  C   UNK A   1      32.934 -13.849 -22.303  0.00  0.00    +0.104 C 
ATOM      3  O   UNK A   0      34.839 -15.714 -23.379  0.00  0.00    -0.275 OA
ATOM      4  N   UNK A   1      33.503 -14.903 -21.646  0.00  0.00    -0.282 N 
ATOM      5  C   UNK A   0      34.416 -15.762 -22.230  0.00  0.00    +0.226 C 
ATOM      6  H   UNK A   1      33.251 -15.059 -20.707  0.00  0.00    +0.155 HD
BRANCH   5   8
ATOM      7  C   UNK A   0      35.306 -18.176 -21.859  0.00  0.00    +0.009 C 
ATOM      8  C   UNK A   0      34.902 -16.838 -21.314  0.00  0.00    +0.077 C 
ATOM      9  C   UNK A   0      34.031 -18.038 -21.080  0.00  0.00    +0.010 C 
ATOM     10  C   UNK A   0      36.446 -18.875 -21.203  0.00  0.00    +0.000 C 
ATOM     11  C   UNK A   0      35.198 -18.433 -23.323  0.00  0.00    +0.000 C 
ENDBRANCH   5   8
BRANCH   2  13
ATOM     12  O   UNK A   1      32.699 -14.029 -24.696  0.00  0.00    -0.244 OA
ATOM     13  C   UNK A   1      33.312 -13.617 -23.722  0.00  0.00    +0.348 C 
BRANCH  13  14
ATOM     14  O   UNK A   1      34.446 -12.881 -23.806  0.00  0.00    -0.476 OA
ATOM     15  H   UNK A   1      35.031 -12.836 -23.075  0.00  0.00    +0.295 HD
ENDBRANCH  13  14
ENDBRANCH   2  13
ENDBRANCH   1   2
BRANCH   1  16
ATOM     16  C   UNK A   1      31.976 -12.584 -20.301  0.00  0.00    +0.006 C 
BRANCH  16  17
ATOM     17  C   UNK A   1      31.266 -11.238 -20.114  0.00  0.00    +0.001 C 
BRANCH  17  18
ATOM     18  C   UNK A   1      31.447 -10.237 -21.262  0.00  0.00    +0.012 C 
BRANCH  18  19
ATOM     19  C   UNK A   1      32.327  -9.049 -20.882  0.00  0.00    +0.057 C 
BRANCH  19  20
ATOM     20  S   UNK A   1      31.744  -7.534 -21.700  0.00  0.00    -0.142 S 
BRANCH  20  21
ATOM     21  C   UNK A   1      32.550  -7.774 -23.298  0.00  0.00    +0.047 C 
BRANCH  21  22
ATOM     22  C   UNK A   1      33.964  -8.340 -23.147  0.00  0.00    +0.047 C 
BRANCH  22  23
ATOM     23  N   UNK A   1      34.947  -7.370 -23.633  0.00  0.00    +0.389 N 
ATOM     24  H   UNK A   1      35.870  -7.803 -23.655  0.00  0.00    -0.088 HD
ATOM     25  H   UNK A   1      34.964  -6.562 -23.012  0.00  0.00    -0.088 HD
ATOM     26  H   UNK A   1      34.691  -7.069 -24.574  0.00  0.00    -0.088 HD
ENDBRANCH  22  23
BRANCH  22  28
ATOM     27  O   UNK A   1      33.229 -10.310 -24.342  0.00  0.00    -0.253 OA
ATOM     28  C   UNK A   1      34.158  -9.621 -23.936  0.00  0.00    +0.294 C 
BRANCH  28  29
ATOM     29  O   UNK A   1      35.459  -9.958 -24.125  0.00  0.00    -0.482 OA
ATOM     30  H   UNK A   1      36.130  -9.313 -24.012  0.00  0.00    +0.295 HD
ENDBRANCH  28  29
ENDBRANCH  22  28
ENDBRANCH  21  22
ENDBRANCH  20  21
ENDBRANCH  19  20
ENDBRANCH  18  19
ENDBRANCH  17  18
ENDBRANCH  16  17
ENDBRANCH   1  16
TORSDOF 14
ENDMDL
MODEL 9
REMARK VINA RESULT:      -7.8      5.117      6.716
REMARK  Name = 6435415
REMARK  14 active torsions:
REMARK  status: ('A' for Active; 'I' for Inactive)
REMARK    1  A    between atoms: C_1  and  C_2
REMARK    2  A    between atoms: C_1  and  C_13
REMARK    3  A    between atoms: C_2  and  C_16
REMARK    4  A    between atoms: C_5  and  C_8
REMARK    5  A    between atoms: C_13  and  O_14
REMARK    6  A    between atoms: C_16  and  C_17
REMARK    7  A    between atoms: C_17  and  C_18
REMARK    8  A    between atoms: C_18  and  C_19
REMARK    9  A    between atoms: C_19  and  S_20
REMARK   10  A    between atoms: S_20  and  C_21
REMARK   11  A    between atoms: C_21  and  C_22
REMARK   12  A    between atoms: C_22  and  N_23
REMARK   13  A    between atoms: C_22  and  C_28
REMARK   14  A    between atoms: C_28  and  O_29
REMARK                            x       y       z     vdW  Elec       q    Type
REMARK                         _______ _______ _______ _____ _____    ______ ____
ROOT
ATOM      1  C   UNK A   1      34.733 -20.041 -20.626  0.00  0.00    +0.048 C 
ENDROOT
BRANCH   1   2
ATOM      2  C   UNK A   1      34.675 -18.955 -21.415  0.00  0.00    +0.104 C 
ATOM      3  O   UNK A   0      34.478 -16.566 -23.003  0.00  0.00    -0.275 OA
ATOM      4  N   UNK A   1      34.053 -17.791 -21.063  0.00  0.00    -0.282 N 
ATOM      5  C   UNK A   0      33.998 -16.677 -21.881  0.00  0.00    +0.226 C 
ATOM      6  H   UNK A   1      33.621 -17.742 -20.179  0.00  0.00    +0.155 HD
BRANCH   5   8
ATOM      7  C   UNK A   0      33.344 -14.162 -21.903  0.00  0.00    +0.009 C 
ATOM      8  C   UNK A   0      33.263 -15.524 -21.280  0.00  0.00    +0.077 C 
ATOM      9  C   UNK A   0      34.048 -14.437 -20.607  0.00  0.00    +0.010 C 
ATOM     10  C   UNK A   0      32.125 -13.308 -21.862  0.00  0.00    +0.000 C 
ATOM     11  C   UNK A   0      34.185 -13.962 -23.118  0.00  0.00    +0.000 C 
ENDBRANCH   5   8
BRANCH   2  13
ATOM     12  O   UNK A   1      34.871 -19.581 -23.736  0.00  0.00    -0.244 OA
ATOM     13  C   UNK A   1      35.331 -19.027 -22.748  0.00  0.00    +0.348 C 
BRANCH  13  14
ATOM     14  O   UNK A   1      36.527 -18.392 -22.733  0.00  0.00    -0.476 OA
ATOM     15  H   UNK A   1      36.950 -18.169 -23.539  0.00  0.00    +0.295 HD
ENDBRANCH  13  14
ENDBRANCH   2  13
ENDBRANCH   1   2
BRANCH   1  16
ATOM     16  C   UNK A   1      33.578 -20.857 -20.108  0.00  0.00    +0.006 C 
BRANCH  16  17
ATOM     17  C   UNK A   1      34.024 -21.999 -19.188  0.00  0.00    +0.001 C 
BRANCH  17  18
ATOM     18  C   UNK A   1      32.974 -22.471 -18.174  0.00  0.00    +0.012 C 
BRANCH  18  19
ATOM     19  C   UNK A   1      33.592 -23.115 -16.935  0.00  0.00    +0.057 C 
BRANCH  19  20
ATOM     20  S   UNK A   1      32.311 -23.473 -15.696  0.00  0.00    -0.142 S 
BRANCH  20  21
ATOM     21  C   UNK A   1      30.862 -23.055 -16.690  0.00  0.00    +0.047 C 
BRANCH  21  22
ATOM     22  C   UNK A   1      29.572 -23.106 -15.870  0.00  0.00    +0.047 C 
BRANCH  22  23
ATOM     23  N   UNK A   1      29.383 -24.446 -15.313  0.00  0.00    +0.389 N 
ATOM     24  H   UNK A   1      28.784 -24.991 -15.933  0.00  0.00    -0.088 HD
ATOM     25  H   UNK A   1      28.948 -24.375 -14.394  0.00  0.00    -0.088 HD
ATOM     26  H   UNK A   1      30.289 -24.908 -15.225  0.00  0.00    -0.088 HD
ENDBRANCH  22  23
BRANCH  22  28
ATOM     27  O   UNK A   1      27.774 -21.700 -16.671  0.00  0.00    -0.253 OA
ATOM     28  C   UNK A   1      28.347 -22.783 -16.706  0.00  0.00    +0.294 C 
BRANCH  28  29
ATOM     29  O   UNK A   1      27.918 -23.816 -17.474  0.00  0.00    -0.482 OA
ATOM     30  H   UNK A   1      28.416 -24.079 -18.224  0.00  0.00    +0.295 HD
ENDBRANCH  28  29
ENDBRANCH  22  28
ENDBRANCH  21  22
ENDBRANCH  20  21
ENDBRANCH  19  20
ENDBRANCH  18  19
ENDBRANCH  17  18
ENDBRANCH  16  17
ENDBRANCH   1  16
TORSDOF 14
ENDMDL
