MODEL 1
REMARK VINA RESULT:      -7.6      0.000      0.000
REMARK  Name = 1387
REMARK  2 active torsions:
REMARK  status: ('A' for Active; 'I' for Inactive)
REMARK    1  A    between atoms: C_6  and  S_12
REMARK    2  A    between atoms: S_12  and  N_15
REMARK                            x       y       z     vdW  Elec       q    Type
REMARK                         _______ _______ _______ _____ _____    ______ ____
ROOT
ATOM      1  S   UNL     1      34.769 -23.555 -15.818  0.00  0.00    +0.033 S 
ATOM      2  O   UNL     1      33.528 -22.927 -18.088  0.00  0.00    -0.278 OA
ATOM      3  N   UNL     1      33.769 -23.789 -14.503  0.00  0.00    -0.294 N 
ATOM      4  C   UNL     1      32.425 -23.613 -14.804  0.00  0.00    +0.070 A 
ATOM      5  C   UNL     1      32.173 -23.280 -16.143  0.00  0.00    +0.064 A 
ATOM      6  C   UNL     1      29.827 -23.185 -15.767  0.00  0.00    +0.122 C 
ATOM      7  C   UNL     1      30.899 -23.063 -16.647  0.00  0.00    +0.025 C 
ATOM      8  C   UNL     1      31.344 -23.732 -13.939  0.00  0.00    +0.019 C 
ATOM      9  C   UNL     1      30.047 -23.518 -14.423  0.00  0.00    +0.021 C 
ATOM     10  C   UNL     1      33.422 -23.196 -16.907  0.00  0.00    +0.242 A 
ATOM     11  C   UNL     1      34.261 -24.130 -13.190  0.00  0.00    +0.139 C 
ENDROOT
BRANCH   6  12
ATOM     12  S   UNL     1      28.199 -22.923 -16.340  0.00  0.00    +0.057 S 
ATOM     13  O   UNL     1      27.301 -22.938 -15.194  0.00  0.00    -0.153 OA
ATOM     14  O   UNL     1      28.203 -21.778 -17.240  0.00  0.00    -0.153 OA
BRANCH  12  15
ATOM     15  N   UNL     1      27.944 -24.340 -17.259  0.00  0.00    -0.203 NA
ATOM     16  H   UNL     1      28.823 -24.633 -17.684  0.00  0.00    +0.144 HD
ATOM     17  H   UNL     1      27.260 -24.151 -17.992  0.00  0.00    +0.144 HD
ENDBRANCH  12  15
ENDBRANCH   6  12
TORSDOF 2
ENDMDL
MODEL 2
REMARK VINA RESULT:      -7.6      3.783      6.551
REMARK  Name = 1387
REMARK  2 active torsions:
REMARK  status: ('A' for Active; 'I' for Inactive)
REMARK    1  A    between atoms: C_6  and  S_12
REMARK    2  A    between atoms: S_12  and  N_15
REMARK                            x       y       z     vdW  Elec       q    Type
REMARK                         _______ _______ _______ _____ _____    ______ ____
ROOT
ATOM      1  S   UNL     1      31.489 -23.245 -15.725  0.00  0.00    +0.033 S 
ATOM      2  O   UNL     1      31.211 -23.745 -13.126  0.00  0.00    -0.278 OA
ATOM      3  N   UNL     1      33.047 -23.370 -16.310  0.00  0.00    -0.294 N 
ATOM      4  C   UNL     1      33.968 -23.718 -15.331  0.00  0.00    +0.070 A 
ATOM      5  C   UNL     1      33.414 -23.898 -14.055  0.00  0.00    +0.064 A 
ATOM      6  C   UNL     1      35.533 -24.426 -13.115  0.00  0.00    +0.122 C 
ATOM      7  C   UNL     1      34.163 -24.248 -12.942  0.00  0.00    +0.025 C 
ATOM      8  C   UNL     1      35.337 -23.899 -15.487  0.00  0.00    +0.019 C 
ATOM      9  C   UNL     1      36.117 -24.253 -14.378  0.00  0.00    +0.021 C 
ATOM     10  C   UNL     1      31.967 -23.665 -14.075  0.00  0.00    +0.242 A 
ATOM     11  C   UNL     1      33.392 -23.130 -17.691  0.00  0.00    +0.139 C 
ENDROOT
BRANCH   6  12
ATOM     12  S   UNL     1      36.532 -24.865 -11.752  0.00  0.00    +0.057 S 
ATOM     13  O   UNL     1      37.039 -26.212 -11.970  0.00  0.00    -0.153 OA
ATOM     14  O   UNL     1      37.462 -23.775 -11.489  0.00  0.00    -0.153 OA
BRANCH  12  15
ATOM     15  N   UNL     1      35.371 -24.909 -10.499  0.00  0.00    -0.203 NA
ATOM     16  H   UNL     1      35.058 -23.960 -10.292  0.00  0.00    +0.144 HD
ATOM     17  H   UNL     1      35.789 -25.317  -9.663  0.00  0.00    +0.144 HD
ENDBRANCH  12  15
ENDBRANCH   6  12
TORSDOF 2
ENDMDL
MODEL 3
REMARK VINA RESULT:      -7.5      4.057      7.093
REMARK  Name = 1387
REMARK  2 active torsions:
REMARK  status: ('A' for Active; 'I' for Inactive)
REMARK    1  A    between atoms: C_6  and  S_12
REMARK    2  A    between atoms: S_12  and  N_15
REMARK                            x       y       z     vdW  Elec       q    Type
REMARK                         _______ _______ _______ _____ _____    ______ ____
ROOT
ATOM      1  S   UNL     1      32.194 -23.548 -15.677  0.00  0.00    +0.033 S 
ATOM      2  O   UNL     1      32.304 -24.212 -13.102  0.00  0.00    -0.278 OA
ATOM      3  N   UNL     1      33.670 -23.256 -16.399  0.00  0.00    -0.294 N 
ATOM      4  C   UNL     1      34.740 -23.404 -15.528  0.00  0.00    +0.070 A 
ATOM      5  C   UNL     1      34.375 -23.771 -14.224  0.00  0.00    +0.064 A 
ATOM      6  C   UNL     1      36.641 -23.795 -13.504  0.00  0.00    +0.122 C 
ATOM      7  C   UNL     1      35.293 -23.971 -13.204  0.00  0.00    +0.025 C 
ATOM      8  C   UNL     1      36.089 -23.233 -15.811  0.00  0.00    +0.019 C 
ATOM      9  C   UNL     1      37.037 -23.429 -14.798  0.00  0.00    +0.021 C 
ATOM     10  C   UNL     1      32.920 -23.906 -14.105  0.00  0.00    +0.242 A 
ATOM     11  C   UNL     1      33.808 -22.879 -17.786  0.00  0.00    +0.139 C 
ENDROOT
BRANCH   6  12
ATOM     12  S   UNL     1      37.846 -24.029 -12.263  0.00  0.00    +0.057 S 
ATOM     13  O   UNL     1      37.262 -24.841 -11.204  0.00  0.00    -0.153 OA
ATOM     14  O   UNL     1      39.088 -24.450 -12.896  0.00  0.00    -0.153 OA
BRANCH  12  15
ATOM     15  N   UNL     1      38.039 -22.431 -11.689  0.00  0.00    -0.203 NA
ATOM     16  H   UNL     1      38.548 -22.445 -10.806  0.00  0.00    +0.144 HD
ATOM     17  H   UNL     1      37.121 -22.009 -11.545  0.00  0.00    +0.144 HD
ENDBRANCH  12  15
ENDBRANCH   6  12
TORSDOF 2
ENDMDL
MODEL 4
REMARK VINA RESULT:      -7.4      3.938      6.613
REMARK  Name = 1387
REMARK  2 active torsions:
REMARK  status: ('A' for Active; 'I' for Inactive)
REMARK    1  A    between atoms: C_6  and  S_12
REMARK    2  A    between atoms: S_12  and  N_15
REMARK                            x       y       z     vdW  Elec       q    Type
REMARK                         _______ _______ _______ _____ _____    ______ ____
ROOT
ATOM      1  S   UNL     1      33.474 -23.055 -17.232  0.00  0.00    +0.033 S 
ATOM      2  O   UNL     1      36.083 -22.547 -17.380  0.00  0.00    -0.278 OA
ATOM      3  N   UNL     1      32.937 -23.583 -15.743  0.00  0.00    -0.294 N 
ATOM      4  C   UNL     1      33.952 -23.679 -14.802  0.00  0.00    +0.070 A 
ATOM      5  C   UNL     1      35.219 -23.313 -15.281  0.00  0.00    +0.064 A 
ATOM      6  C   UNL     1      36.235 -23.748 -13.175  0.00  0.00    +0.122 C 
ATOM      7  C   UNL     1      36.364 -23.337 -14.499  0.00  0.00    +0.025 C 
ATOM      8  C   UNL     1      33.840 -24.086 -13.478  0.00  0.00    +0.019 C 
ATOM      9  C   UNL     1      34.982 -24.119 -12.667  0.00  0.00    +0.021 C 
ATOM     10  C   UNL     1      35.152 -22.914 -16.690  0.00  0.00    +0.242 A 
ATOM     11  C   UNL     1      31.557 -23.912 -15.475  0.00  0.00    +0.139 C 
ENDROOT
BRANCH   6  12
ATOM     12  S   UNL     1      37.640 -23.802 -12.141  0.00  0.00    +0.057 S 
ATOM     13  O   UNL     1      37.267 -24.453 -10.893  0.00  0.00    -0.153 OA
ATOM     14  O   UNL     1      38.765 -24.311 -12.914  0.00  0.00    -0.153 OA
BRANCH  12  15
ATOM     15  N   UNL     1      37.890 -22.139 -11.842  0.00  0.00    -0.203 NA
ATOM     16  H   UNL     1      36.994 -21.688 -11.657  0.00  0.00    +0.144 HD
ATOM     17  H   UNL     1      38.324 -21.708 -12.659  0.00  0.00    +0.144 HD
ENDBRANCH  12  15
ENDBRANCH   6  12
TORSDOF 2
ENDMDL
MODEL 5
REMARK VINA RESULT:      -7.3     10.548     12.058
REMARK  Name = 1387
REMARK  2 active torsions:
REMARK  status: ('A' for Active; 'I' for Inactive)
REMARK    1  A    between atoms: C_6  and  S_12
REMARK    2  A    between atoms: S_12  and  N_15
REMARK                            x       y       z     vdW  Elec       q    Type
REMARK                         _______ _______ _______ _____ _____    ______ ____
ROOT
ATOM      1  S   UNL     1      33.037 -13.366 -25.687  0.00  0.00    +0.033 S 
ATOM      2  O   UNL     1      33.435 -15.849 -26.558  0.00  0.00    -0.278 OA
ATOM      3  N   UNL     1      33.414 -13.106 -24.083  0.00  0.00    -0.294 N 
ATOM      4  C   UNL     1      33.881 -14.246 -23.443  0.00  0.00    +0.070 A 
ATOM      5  C   UNL     1      33.947 -15.381 -24.264  0.00  0.00    +0.064 A 
ATOM      6  C   UNL     1      34.779 -16.724 -22.486  0.00  0.00    +0.122 C 
ATOM      7  C   UNL     1      34.386 -16.619 -23.818  0.00  0.00    +0.025 C 
ATOM      8  C   UNL     1      34.276 -14.367 -22.117  0.00  0.00    +0.019 C 
ATOM      9  C   UNL     1      34.724 -15.606 -21.641  0.00  0.00    +0.021 C 
ATOM     10  C   UNL     1      33.493 -15.073 -25.623  0.00  0.00    +0.242 A 
ATOM     11  C   UNL     1      33.259 -11.826 -23.434  0.00  0.00    +0.139 C 
ENDROOT
BRANCH   6  12
ATOM     12  S   UNL     1      35.340 -18.255 -21.863  0.00  0.00    +0.057 S 
ATOM     13  O   UNL     1      35.665 -18.086 -20.454  0.00  0.00    -0.153 OA
ATOM     14  O   UNL     1      34.401 -19.292 -22.269  0.00  0.00    -0.153 OA
BRANCH  12  15
ATOM     15  N   UNL     1      36.790 -18.454 -22.745  0.00  0.00    -0.203 NA
ATOM     16  H   UNL     1      37.586 -18.364 -22.115  0.00  0.00    +0.144 HD
ATOM     17  H   UNL     1      36.847 -17.738 -23.470  0.00  0.00    +0.144 HD
ENDBRANCH  12  15
ENDBRANCH   6  12
TORSDOF 2
ENDMDL
MODEL 6
REMARK VINA RESULT:      -7.2      3.107      4.015
REMARK  Name = 1387
REMARK  2 active torsions:
REMARK  status: ('A' for Active; 'I' for Inactive)
REMARK    1  A    between atoms: C_6  and  S_12
REMARK    2  A    between atoms: S_12  and  N_15
REMARK                            x       y       z     vdW  Elec       q    Type
REMARK                         _______ _______ _______ _____ _____    ______ ____
ROOT
ATOM      1  S   UNL     1      36.965 -23.856 -13.174  0.00  0.00    +0.033 S 
ATOM      2  O   UNL     1      35.240 -24.962 -11.475  0.00  0.00    -0.278 OA
ATOM      3  N   UNL     1      36.304 -23.323 -14.610  0.00  0.00    -0.294 N 
ATOM      4  C   UNL     1      34.937 -23.546 -14.696  0.00  0.00    +0.070 A 
ATOM      5  C   UNL     1      34.383 -24.168 -13.567  0.00  0.00    +0.064 A 
ATOM      6  C   UNL     1      32.205 -24.149 -14.520  0.00  0.00    +0.122 C 
ATOM      7  C   UNL     1      33.036 -24.477 -13.453  0.00  0.00    +0.025 C 
ATOM      8  C   UNL     1      34.094 -23.225 -15.752  0.00  0.00    +0.019 C 
ATOM      9  C   UNL     1      32.729 -23.527 -15.662  0.00  0.00    +0.021 C 
ATOM     10  C   UNL     1      35.412 -24.434 -12.557  0.00  0.00    +0.242 A 
ATOM     11  C   UNL     1      37.085 -22.702 -15.654  0.00  0.00    +0.139 C 
ENDROOT
BRANCH   6  12
ATOM     12  S   UNL     1      30.499 -24.515 -14.438  0.00  0.00    +0.057 S 
ATOM     13  O   UNL     1      29.756 -23.331 -14.847  0.00  0.00    -0.153 OA
ATOM     14  O   UNL     1      30.265 -25.785 -15.111  0.00  0.00    -0.153 OA
BRANCH  12  15
ATOM     15  N   UNL     1      30.295 -24.741 -12.757  0.00  0.00    -0.203 NA
ATOM     16  H   UNL     1      31.166 -24.519 -12.275  0.00  0.00    +0.144 HD
ATOM     17  H   UNL     1      30.043 -25.712 -12.573  0.00  0.00    +0.144 HD
ENDBRANCH  12  15
ENDBRANCH   6  12
TORSDOF 2
ENDMDL
MODEL 7
REMARK VINA RESULT:      -7.2      2.667      5.835
REMARK  Name = 1387
REMARK  2 active torsions:
REMARK  status: ('A' for Active; 'I' for Inactive)
REMARK    1  A    between atoms: C_6  and  S_12
REMARK    2  A    between atoms: S_12  and  N_15
REMARK                            x       y       z     vdW  Elec       q    Type
REMARK                         _______ _______ _______ _____ _____    ______ ____
ROOT
ATOM      1  S   UNL     1      30.684 -23.426 -16.127  0.00  0.00    +0.033 S 
ATOM      2  O   UNL     1      32.470 -22.721 -17.971  0.00  0.00    -0.278 OA
ATOM      3  N   UNL     1      31.326 -23.894 -14.659  0.00  0.00    -0.294 N 
ATOM      4  C   UNL     1      32.712 -23.844 -14.631  0.00  0.00    +0.070 A 
ATOM      5  C   UNL     1      33.298 -23.411 -15.830  0.00  0.00    +0.064 A 
ATOM      6  C   UNL     1      35.491 -23.620 -14.935  0.00  0.00    +0.122 C 
ATOM      7  C   UNL     1      34.668 -23.291 -16.008  0.00  0.00    +0.025 C 
ATOM      8  C   UNL     1      33.548 -24.169 -13.569  0.00  0.00    +0.019 C 
ATOM      9  C   UNL     1      34.936 -24.056 -13.723  0.00  0.00    +0.021 C 
ATOM     10  C   UNL     1      32.274 -23.115 -16.837  0.00  0.00    +0.242 A 
ATOM     11  C   UNL     1      30.513 -24.314 -13.542  0.00  0.00    +0.139 C 
ENDROOT
BRANCH   6  12
ATOM     12  S   UNL     1      37.224 -23.492 -15.097  0.00  0.00    +0.057 S 
ATOM     13  O   UNL     1      37.517 -22.640 -16.241  0.00  0.00    -0.153 OA
ATOM     14  O   UNL     1      37.789 -23.171 -13.793  0.00  0.00    -0.153 OA
BRANCH  12  15
ATOM     15  N   UNL     1      37.635 -25.103 -15.490  0.00  0.00    -0.203 NA
ATOM     16  H   UNL     1      38.564 -25.125 -15.909  0.00  0.00    +0.144 HD
ATOM     17  H   UNL     1      36.955 -25.475 -16.153  0.00  0.00    +0.144 HD
ENDBRANCH  12  15
ENDBRANCH   6  12
TORSDOF 2
ENDMDL
MODEL 8
REMARK VINA RESULT:      -7.2      4.244      6.731
REMARK  Name = 1387
REMARK  2 active torsions:
REMARK  status: ('A' for Active; 'I' for Inactive)
REMARK    1  A    between atoms: C_6  and  S_12
REMARK    2  A    between atoms: S_12  and  N_15
REMARK                            x       y       z     vdW  Elec       q    Type
REMARK                         _______ _______ _______ _____ _____    ______ ____
ROOT
ATOM      1  S   UNL     1      33.792 -22.098 -19.174  0.00  0.00    +0.033 S 
ATOM      2  O   UNL     1      32.635 -23.514 -17.239  0.00  0.00    -0.278 OA
ATOM      3  N   UNL     1      35.385 -21.687 -18.897  0.00  0.00    -0.294 N 
ATOM      4  C   UNL     1      35.863 -22.153 -17.681  0.00  0.00    +0.070 A 
ATOM      5  C   UNL     1      34.923 -22.875 -16.930  0.00  0.00    +0.064 A 
ATOM      6  C   UNL     1      36.483 -23.244 -15.173  0.00  0.00    +0.122 C 
ATOM      7  C   UNL     1      35.202 -23.425 -15.688  0.00  0.00    +0.025 C 
ATOM      8  C   UNL     1      37.137 -21.981 -17.153  0.00  0.00    +0.019 C 
ATOM      9  C   UNL     1      37.444 -22.527 -15.900  0.00  0.00    +0.021 C 
ATOM     10  C   UNL     1      33.640 -22.955 -17.634  0.00  0.00    +0.242 A 
ATOM     11  C   UNL     1      36.173 -20.917 -19.831  0.00  0.00    +0.139 C 
ENDROOT
BRANCH   6  12
ATOM     12  S   UNL     1      36.895 -23.910 -13.613  0.00  0.00    +0.057 S 
ATOM     13  O   UNL     1      38.330 -24.154 -13.582  0.00  0.00    -0.153 OA
ATOM     14  O   UNL     1      36.278 -23.089 -12.581  0.00  0.00    -0.153 OA
BRANCH  12  15
ATOM     15  N   UNL     1      36.082 -25.412 -13.675  0.00  0.00    -0.203 NA
ATOM     16  H   UNL     1      36.295 -25.949 -12.835  0.00  0.00    +0.144 HD
ATOM     17  H   UNL     1      36.391 -25.931 -14.497  0.00  0.00    +0.144 HD
ENDBRANCH  12  15
ENDBRANCH   6  12
TORSDOF 2
ENDMDL
MODEL 9
REMARK VINA RESULT:      -7.1      3.899      4.985
REMARK  Name = 1387
REMARK  2 active torsions:
REMARK  status: ('A' for Active; 'I' for Inactive)
REMARK    1  A    between atoms: C_6  and  S_12
REMARK    2  A    between atoms: S_12  and  N_15
REMARK                            x       y       z     vdW  Elec       q    Type
REMARK                         _______ _______ _______ _____ _____    ______ ____
ROOT
ATOM      1  S   UNL     1      34.908 -24.277 -12.597  0.00  0.00    +0.033 S 
ATOM      2  O   UNL     1      32.620 -24.711 -13.886  0.00  0.00    -0.278 OA
ATOM      3  N   UNL     1      36.095 -23.518 -13.491  0.00  0.00    -0.294 N 
ATOM      4  C   UNL     1      35.697 -23.232 -14.790  0.00  0.00    +0.070 A 
ATOM      5  C   UNL     1      34.386 -23.629 -15.092  0.00  0.00    +0.064 A 
ATOM      6  C   UNL     1      34.560 -22.810 -17.317  0.00  0.00    +0.122 C 
ATOM      7  C   UNL     1      33.798 -23.433 -16.332  0.00  0.00    +0.025 C 
ATOM      8  C   UNL     1      36.444 -22.611 -15.784  0.00  0.00    +0.019 C 
ATOM      9  C   UNL     1      35.873 -22.401 -17.046  0.00  0.00    +0.021 C 
ATOM     10  C   UNL     1      33.751 -24.265 -13.934  0.00  0.00    +0.242 A 
ATOM     11  C   UNL     1      37.401 -23.206 -12.962  0.00  0.00    +0.139 C 
ENDROOT
BRANCH   6  12
ATOM     12  S   UNL     1      33.877 -22.537 -18.901  0.00  0.00    +0.057 S 
ATOM     13  O   UNL     1      34.064 -23.743 -19.696  0.00  0.00    -0.153 OA
ATOM     14  O   UNL     1      32.543 -21.975 -18.740  0.00  0.00    -0.153 OA
BRANCH  12  15
ATOM     15  N   UNL     1      34.915 -21.318 -19.497  0.00  0.00    -0.203 NA
ATOM     16  H   UNL     1      35.046 -21.442 -20.501  0.00  0.00    +0.144 HD
ATOM     17  H   UNL     1      35.819 -21.381 -19.028  0.00  0.00    +0.144 HD
ENDBRANCH  12  15
ENDBRANCH   6  12
TORSDOF 2
ENDMDL
