MODEL 1
REMARK VINA RESULT:     -12.0      0.000      0.000
REMARK  Name = 2929
REMARK  5 active torsions:
REMARK  status: ('A' for Active; 'I' for Inactive)
REMARK    1  A    between atoms: N_1  and  C_22
REMARK    2  A    between atoms: C_4  and  C_11
REMARK    3  A    between atoms: C_11  and  C_14
REMARK    4  A    between atoms: N_13  and  C_17
REMARK    5  A    between atoms: C_22  and  C_24
REMARK                            x       y       z     vdW  Elec       q    Type
REMARK                         _______ _______ _______ _____ _____    ______ ____
ROOT
ATOM      1  N   UNL     1      35.090 -16.965 -22.992  0.00  0.00    -0.281 N 
ATOM      2  C   UNL     1      34.383 -16.144 -22.143  0.00  0.00    +0.052 C 
ATOM      3  C   UNL     1      33.623 -15.285 -22.939  0.00  0.00    +0.018 C 
ATOM      4  C   UNL     1      33.900 -15.617 -24.294  0.00  0.00    +0.060 C 
ATOM      5  C   UNL     1      34.805 -16.653 -24.295  0.00  0.00    +0.069 C 
ATOM      6  C   UNL     1      34.357 -16.100 -20.745  0.00  0.00    +0.015 C 
ATOM      7  C   UNL     1      32.798 -14.332 -22.310  0.00  0.00    +0.001 C 
ATOM      8  C   UNL     1      33.531 -15.147 -20.143  0.00  0.00    +0.001 C 
ATOM      9  C   UNL     1      32.762 -14.276 -20.912  0.00  0.00    +0.000 C 
ENDROOT
BRANCH   4  11
ATOM     10  O   UNL     1      32.849 -15.643 -26.424  0.00  0.00    -0.282 OA
ATOM     11  C   UNL     1      33.362 -15.016 -25.482  0.00  0.00    +0.250 C 
BRANCH  11  14
ATOM     12  O   UNL     1      32.998 -13.128 -26.804  0.00  0.00    -0.266 OA
ATOM     13  N   UNL     1      33.839 -12.839 -24.608  0.00  0.00    -0.278 N 
ATOM     14  C   UNL     1      33.377 -13.520 -25.714  0.00  0.00    +0.289 C 
ATOM     15  H   UNL     1      34.093 -13.385 -23.829  0.00  0.00    +0.155 HD
BRANCH  13  17
ATOM     16  N   UNL     1      34.273  -8.691 -24.203  0.00  0.00    -0.242 NA
ATOM     17  C   UNL     1      33.985 -11.439 -24.472  0.00  0.00    +0.054 C 
ATOM     18  C   UNL     1      33.144 -10.749 -23.622  0.00  0.00    +0.035 C 
ATOM     19  C   UNL     1      34.967 -10.786 -25.190  0.00  0.00    +0.035 C 
ATOM     20  C   UNL     1      33.329  -9.379 -23.523  0.00  0.00    +0.100 C 
ATOM     21  C   UNL     1      35.069  -9.415 -25.022  0.00  0.00    +0.100 C 
ENDBRANCH  13  17
ENDBRANCH  11  14
ENDBRANCH   4  11
BRANCH   1  22
ATOM     22  C   UNL     1      36.007 -18.009 -22.586  0.00  0.00    +0.122 C 
BRANCH  22  24
ATOM     23 CL   UNL     1      33.328 -21.998 -18.992  0.00  0.00    -0.082 Cl
ATOM     24  C   UNL     1      35.335 -19.009 -21.684  0.00  0.00    -0.002 C 
ATOM     25  C   UNL     1      36.097 -19.726 -20.771  0.00  0.00    -0.002 C 
ATOM     26  C   UNL     1      33.964 -19.200 -21.778  0.00  0.00    -0.002 C 
ATOM     27  C   UNL     1      35.474 -20.653 -19.936  0.00  0.00    +0.011 C 
ATOM     28  C   UNL     1      33.341 -20.128 -20.943  0.00  0.00    +0.011 C 
ATOM     29  C   UNL     1      34.096 -20.854 -20.021  0.00  0.00    +0.058 C 
ENDBRANCH  22  24
ENDBRANCH   1  22
TORSDOF 5
ENDMDL
MODEL 2
REMARK VINA RESULT:     -12.0      4.438      9.395
REMARK  Name = 2929
REMARK  5 active torsions:
REMARK  status: ('A' for Active; 'I' for Inactive)
REMARK    1  A    between atoms: N_1  and  C_22
REMARK    2  A    between atoms: C_4  and  C_11
REMARK    3  A    between atoms: C_11  and  C_14
REMARK    4  A    between atoms: N_13  and  C_17
REMARK    5  A    between atoms: C_22  and  C_24
REMARK                            x       y       z     vdW  Elec       q    Type
REMARK                         _______ _______ _______ _____ _____    ______ ____
ROOT
ATOM      1  N   UNL     1      33.711  -8.948 -23.143  0.00  0.00    -0.281 N 
ATOM      2  C   UNL     1      32.800  -9.586 -22.332  0.00  0.00    +0.052 C 
ATOM      3  C   UNL     1      32.611 -10.867 -22.854  0.00  0.00    +0.018 C 
ATOM      4  C   UNL     1      33.440 -10.976 -24.005  0.00  0.00    +0.060 C 
ATOM      5  C   UNL     1      34.105  -9.780 -24.157  0.00  0.00    +0.069 C 
ATOM      6  C   UNL     1      32.136  -9.131 -21.188  0.00  0.00    +0.015 C 
ATOM      7  C   UNL     1      31.715 -11.738 -22.204  0.00  0.00    +0.001 C 
ATOM      8  C   UNL     1      31.251 -10.012 -20.560  0.00  0.00    +0.001 C 
ATOM      9  C   UNL     1      31.043 -11.297 -21.058  0.00  0.00    +0.000 C 
ENDROOT
BRANCH   4  11
ATOM     10  O   UNL     1      33.778 -12.024 -26.110  0.00  0.00    -0.282 OA
ATOM     11  C   UNL     1      33.596 -12.101 -24.883  0.00  0.00    +0.250 C 
BRANCH  11  14
ATOM     12  O   UNL     1      32.757 -14.278 -24.949  0.00  0.00    -0.266 OA
ATOM     13  N   UNL     1      34.418 -13.743 -23.347  0.00  0.00    -0.278 N 
ATOM     14  C   UNL     1      33.540 -13.530 -24.388  0.00  0.00    +0.289 C 
ATOM     15  H   UNL     1      34.956 -12.969 -23.060  0.00  0.00    +0.155 HD
BRANCH  13  17
ATOM     16  N   UNL     1      35.049 -17.329 -21.273  0.00  0.00    -0.242 NA
ATOM     17  C   UNL     1      34.630 -14.953 -22.647  0.00  0.00    +0.054 C 
ATOM     18  C   UNL     1      35.050 -16.072 -23.338  0.00  0.00    +0.035 C 
ATOM     19  C   UNL     1      34.415 -14.996 -21.284  0.00  0.00    +0.035 C 
ATOM     20  C   UNL     1      35.245 -17.233 -22.607  0.00  0.00    +0.100 C 
ATOM     21  C   UNL     1      34.638 -16.204 -20.645  0.00  0.00    +0.100 C 
ENDBRANCH  13  17
ENDBRANCH  11  14
ENDBRANCH   4  11
BRANCH   1  22
ATOM     22  C   UNL     1      34.195  -7.595 -22.965  0.00  0.00    +0.122 C 
BRANCH  22  24
ATOM     23 CL   UNL     1      32.513  -4.052 -27.507  0.00  0.00    -0.082 Cl
ATOM     24  C   UNL     1      33.773  -6.707 -24.105  0.00  0.00    -0.002 C 
ATOM     25  C   UNL     1      34.662  -6.457 -25.142  0.00  0.00    -0.002 C 
ATOM     26  C   UNL     1      32.502  -6.150 -24.102  0.00  0.00    -0.002 C 
ATOM     27  C   UNL     1      34.270  -5.634 -26.197  0.00  0.00    +0.011 C 
ATOM     28  C   UNL     1      32.111  -5.326 -25.158  0.00  0.00    +0.011 C 
ATOM     29  C   UNL     1      32.995  -5.068 -26.206  0.00  0.00    +0.058 C 
ENDBRANCH  22  24
ENDBRANCH   1  22
TORSDOF 5
ENDMDL
MODEL 3
REMARK VINA RESULT:     -12.0      4.429      9.371
REMARK  Name = 2929
REMARK  5 active torsions:
REMARK  status: ('A' for Active; 'I' for Inactive)
REMARK    1  A    between atoms: N_1  and  C_22
REMARK    2  A    between atoms: C_4  and  C_11
REMARK    3  A    between atoms: C_11  and  C_14
REMARK    4  A    between atoms: N_13  and  C_17
REMARK    5  A    between atoms: C_22  and  C_24
REMARK                            x       y       z     vdW  Elec       q    Type
REMARK                         _______ _______ _______ _____ _____    ______ ____
ROOT
ATOM      1  N   UNL     1      33.500  -8.934 -22.947  0.00  0.00    -0.281 N 
ATOM      2  C   UNL     1      32.637  -9.648 -22.147  0.00  0.00    +0.052 C 
ATOM      3  C   UNL     1      32.518 -10.923 -22.703  0.00  0.00    +0.018 C 
ATOM      4  C   UNL     1      33.339 -10.949 -23.865  0.00  0.00    +0.060 C 
ATOM      5  C   UNL     1      33.930  -9.713 -23.989  0.00  0.00    +0.069 C 
ATOM      6  C   UNL     1      31.960  -9.265 -20.983  0.00  0.00    +0.015 C 
ATOM      7  C   UNL     1      31.682 -11.863 -22.070  0.00  0.00    +0.001 C 
ATOM      8  C   UNL     1      31.137 -10.214 -20.372  0.00  0.00    +0.001 C 
ATOM      9  C   UNL     1      30.999 -11.495 -20.905  0.00  0.00    +0.000 C 
ENDROOT
BRANCH   4  11
ATOM     10  O   UNL     1      33.781 -11.913 -25.991  0.00  0.00    -0.282 OA
ATOM     11  C   UNL     1      33.550 -12.038 -24.776  0.00  0.00    +0.250 C 
BRANCH  11  14
ATOM     12  O   UNL     1      32.695 -14.206 -24.904  0.00  0.00    -0.266 OA
ATOM     13  N   UNL     1      34.406 -13.745 -23.331  0.00  0.00    -0.278 N 
ATOM     14  C   UNL     1      33.499 -13.486 -24.337  0.00  0.00    +0.289 C 
ATOM     15  H   UNL     1      34.957 -12.987 -23.030  0.00  0.00    +0.155 HD
BRANCH  13  17
ATOM     16  N   UNL     1      35.067 -17.416 -21.422  0.00  0.00    -0.242 NA
ATOM     17  C   UNL     1      34.630 -14.983 -22.687  0.00  0.00    +0.054 C 
ATOM     18  C   UNL     1      34.442 -15.082 -21.322  0.00  0.00    +0.035 C 
ATOM     19  C   UNL     1      35.031 -16.073 -23.433  0.00  0.00    +0.035 C 
ATOM     20  C   UNL     1      34.673 -16.318 -20.739  0.00  0.00    +0.100 C 
ATOM     21  C   UNL     1      35.236 -17.264 -22.755  0.00  0.00    +0.100 C 
ENDBRANCH  13  17
ENDBRANCH  11  14
ENDBRANCH   4  11
BRANCH   1  22
ATOM     22  C   UNL     1      33.905  -7.561 -22.736  0.00  0.00    +0.122 C 
BRANCH  22  24
ATOM     23 CL   UNL     1      32.750  -4.174 -27.554  0.00  0.00    -0.082 Cl
ATOM     24  C   UNL     1      33.616  -6.711 -23.943  0.00  0.00    -0.002 C 
ATOM     25  C   UNL     1      32.374  -6.102 -24.070  0.00  0.00    -0.002 C 
ATOM     26  C   UNL     1      34.594  -6.548 -24.915  0.00  0.00    -0.002 C 
ATOM     27  C   UNL     1      32.106  -5.315 -25.190  0.00  0.00    +0.011 C 
ATOM     28  C   UNL     1      34.325  -5.762 -26.035  0.00  0.00    +0.011 C 
ATOM     29  C   UNL     1      33.081  -5.144 -26.172  0.00  0.00    +0.058 C 
ENDBRANCH  22  24
ENDBRANCH   1  22
TORSDOF 5
ENDMDL
MODEL 4
REMARK VINA RESULT:     -12.0      6.190      9.989
REMARK  Name = 2929
REMARK  5 active torsions:
REMARK  status: ('A' for Active; 'I' for Inactive)
REMARK    1  A    between atoms: N_1  and  C_22
REMARK    2  A    between atoms: C_4  and  C_11
REMARK    3  A    between atoms: C_11  and  C_14
REMARK    4  A    between atoms: N_13  and  C_17
REMARK    5  A    between atoms: C_22  and  C_24
REMARK                            x       y       z     vdW  Elec       q    Type
REMARK                         _______ _______ _______ _____ _____    ______ ____
ROOT
ATOM      1  N   UNL     1      34.134 -23.449 -14.905  0.00  0.00    -0.281 N 
ATOM      2  C   UNL     1      32.762 -23.331 -14.916  0.00  0.00    +0.052 C 
ATOM      3  C   UNL     1      32.372 -23.184 -16.248  0.00  0.00    +0.018 C 
ATOM      4  C   UNL     1      33.556 -23.218 -17.036  0.00  0.00    +0.060 C 
ATOM      5  C   UNL     1      34.623 -23.382 -16.182  0.00  0.00    +0.069 C 
ATOM      6  C   UNL     1      31.847 -23.343 -13.857  0.00  0.00    +0.015 C 
ATOM      7  C   UNL     1      31.001 -23.041 -16.540  0.00  0.00    +0.001 C 
ATOM      8  C   UNL     1      30.493 -23.200 -14.171  0.00  0.00    +0.001 C 
ATOM      9  C   UNL     1      30.074 -23.052 -15.492  0.00  0.00    +0.000 C 
ENDROOT
BRANCH   4  11
ATOM     10  O   UNL     1      33.854 -24.064 -19.235  0.00  0.00    -0.282 OA
ATOM     11  C   UNL     1      33.674 -23.108 -18.462  0.00  0.00    +0.250 C 
BRANCH  11  14
ATOM     12  O   UNL     1      32.545 -21.176 -19.125  0.00  0.00    -0.266 OA
ATOM     13  N   UNL     1      34.794 -21.474 -19.807  0.00  0.00    -0.278 N 
ATOM     14  C   UNL     1      33.603 -21.778 -19.183  0.00  0.00    +0.289 C 
ATOM     15  H   UNL     1      35.521 -22.131 -19.712  0.00  0.00    +0.155 HD
BRANCH  13  17
ATOM     16  N   UNL     1      35.654 -18.047 -22.060  0.00  0.00    -0.242 NA
ATOM     17  C   UNL     1      35.084 -20.317 -20.566  0.00  0.00    +0.054 C 
ATOM     18  C   UNL     1      36.365 -19.803 -20.558  0.00  0.00    +0.035 C 
ATOM     19  C   UNL     1      34.081 -19.721 -21.306  0.00  0.00    +0.035 C 
ATOM     20  C   UNL     1      36.599 -18.669 -21.320  0.00  0.00    +0.100 C 
ATOM     21  C   UNL     1      34.416 -18.591 -22.033  0.00  0.00    +0.100 C 
ENDBRANCH  13  17
ENDBRANCH  11  14
ENDBRANCH   4  11
BRANCH   1  22
ATOM     22  C   UNL     1      34.956 -23.619 -13.726  0.00  0.00    +0.122 C 
BRANCH  22  24
ATOM     23 CL   UNL     1      40.322 -25.923 -15.110  0.00  0.00    -0.082 Cl
ATOM     24  C   UNL     1      36.301 -24.197 -14.074  0.00  0.00    -0.002 C 
ATOM     25  C   UNL     1      36.570 -25.527 -13.781  0.00  0.00    -0.002 C 
ATOM     26  C   UNL     1      37.255 -23.392 -14.682  0.00  0.00    -0.002 C 
ATOM     27  C   UNL     1      37.818 -26.062 -14.103  0.00  0.00    +0.011 C 
ATOM     28  C   UNL     1      38.502 -23.927 -15.002  0.00  0.00    +0.011 C 
ATOM     29  C   UNL     1      38.783 -25.263 -14.714  0.00  0.00    +0.058 C 
ENDBRANCH  22  24
ENDBRANCH   1  22
TORSDOF 5
ENDMDL
MODEL 5
REMARK VINA RESULT:     -11.3      5.858      9.680
REMARK  Name = 2929
REMARK  5 active torsions:
REMARK  status: ('A' for Active; 'I' for Inactive)
REMARK    1  A    between atoms: N_1  and  C_22
REMARK    2  A    between atoms: C_4  and  C_11
REMARK    3  A    between atoms: C_11  and  C_14
REMARK    4  A    between atoms: N_13  and  C_17
REMARK    5  A    between atoms: C_22  and  C_24
REMARK                            x       y       z     vdW  Elec       q    Type
REMARK                         _______ _______ _______ _____ _____    ______ ____
ROOT
ATOM      1  N   UNL     1      32.734 -23.788 -15.650  0.00  0.00    -0.281 N 
ATOM      2  C   UNL     1      34.040 -23.502 -15.320  0.00  0.00    +0.052 C 
ATOM      3  C   UNL     1      34.683 -23.105 -16.493  0.00  0.00    +0.018 C 
ATOM      4  C   UNL     1      33.719 -23.162 -17.538  0.00  0.00    +0.060 C 
ATOM      5  C   UNL     1      32.530 -23.585 -16.988  0.00  0.00    +0.069 C 
ATOM      6  C   UNL     1      34.692 -23.565 -14.083  0.00  0.00    +0.015 C 
ATOM      7  C   UNL     1      36.046 -22.754 -16.432  0.00  0.00    +0.001 C 
ATOM      8  C   UNL     1      36.044 -23.211 -14.047  0.00  0.00    +0.001 C 
ATOM      9  C   UNL     1      36.712 -22.811 -15.203  0.00  0.00    +0.000 C 
ENDROOT
BRANCH   4  11
ATOM     10  O   UNL     1      34.244 -23.661 -19.800  0.00  0.00    -0.282 OA
ATOM     11  C   UNL     1      33.898 -22.847 -18.927  0.00  0.00    +0.250 C 
BRANCH  11  14
ATOM     12  O   UNL     1      32.603 -20.937 -19.276  0.00  0.00    -0.266 OA
ATOM     13  N   UNL     1      34.809 -20.994 -20.138  0.00  0.00    -0.278 N 
ATOM     14  C   UNL     1      33.690 -21.452 -19.477  0.00  0.00    +0.289 C 
ATOM     15  H   UNL     1      35.582 -21.604 -20.171  0.00  0.00    +0.155 HD
BRANCH  13  17
ATOM     16  N   UNL     1      35.281 -17.279 -22.017  0.00  0.00    -0.242 NA
ATOM     17  C   UNL     1      34.969 -19.740 -20.771  0.00  0.00    +0.054 C 
ATOM     18  C   UNL     1      36.233 -19.316 -21.130  0.00  0.00    +0.035 C 
ATOM     19  C   UNL     1      33.857 -18.960 -21.022  0.00  0.00    +0.035 C 
ATOM     20  C   UNL     1      36.335 -18.080 -21.749  0.00  0.00    +0.100 C 
ATOM     21  C   UNL     1      34.065 -17.741 -21.645  0.00  0.00    +0.100 C 
ENDBRANCH  13  17
ENDBRANCH  11  14
ENDBRANCH   4  11
BRANCH   1  22
ATOM     22  C   UNL     1      31.711 -24.238 -14.729  0.00  0.00    +0.122 C 
BRANCH  22  24
ATOM     23 CL   UNL     1      26.313 -22.097 -16.244  0.00  0.00    -0.082 Cl
ATOM     24  C   UNL     1      30.357 -23.701 -15.109  0.00  0.00    -0.002 C 
ATOM     25  C   UNL     1      29.495 -24.490 -15.859  0.00  0.00    -0.002 C 
ATOM     26  C   UNL     1      29.989 -22.426 -14.704  0.00  0.00    -0.002 C 
ATOM     27  C   UNL     1      28.240 -23.992 -16.210  0.00  0.00    +0.011 C 
ATOM     28  C   UNL     1      28.735 -21.928 -15.057  0.00  0.00    +0.011 C 
ATOM     29  C   UNL     1      27.860 -22.711 -15.809  0.00  0.00    +0.058 C 
ENDBRANCH  22  24
ENDBRANCH   1  22
TORSDOF 5
ENDMDL
MODEL 6
REMARK VINA RESULT:     -11.3      8.461     12.769
REMARK  Name = 2929
REMARK  5 active torsions:
REMARK  status: ('A' for Active; 'I' for Inactive)
REMARK    1  A    between atoms: N_1  and  C_22
REMARK    2  A    between atoms: C_4  and  C_11
REMARK    3  A    between atoms: C_11  and  C_14
REMARK    4  A    between atoms: N_13  and  C_17
REMARK    5  A    between atoms: C_22  and  C_24
REMARK                            x       y       z     vdW  Elec       q    Type
REMARK                         _______ _______ _______ _____ _____    ______ ____
ROOT
ATOM      1  N   UNL     1      33.477 -23.559 -17.080  0.00  0.00    -0.281 N 
ATOM      2  C   UNL     1      32.312 -23.245 -16.416  0.00  0.00    +0.052 C 
ATOM      3  C   UNL     1      32.608 -23.227 -15.052  0.00  0.00    +0.018 C 
ATOM      4  C   UNL     1      33.989 -23.540 -14.920  0.00  0.00    +0.060 C 
ATOM      5  C   UNL     1      34.496 -23.739 -16.184  0.00  0.00    +0.069 C 
ATOM      6  C   UNL     1      31.032 -22.979 -16.916  0.00  0.00    +0.015 C 
ATOM      7  C   UNL     1      31.577 -22.930 -14.139  0.00  0.00    +0.001 C 
ATOM      8  C   UNL     1      30.025 -22.686 -15.991  0.00  0.00    +0.001 C 
ATOM      9  C   UNL     1      30.292 -22.661 -14.624  0.00  0.00    +0.000 C 
ENDROOT
BRANCH   4  11
ATOM     10  O   UNL     1      34.288 -23.779 -12.576  0.00  0.00    -0.282 OA
ATOM     11  C   UNL     1      34.764 -23.642 -13.716  0.00  0.00    +0.250 C 
BRANCH  11  14
ATOM     12  O   UNL     1      36.786 -22.559 -13.284  0.00  0.00    -0.266 OA
ATOM     13  N   UNL     1      36.833 -24.733 -14.225  0.00  0.00    -0.278 N 
ATOM     14  C   UNL     1      36.276 -23.579 -13.715  0.00  0.00    +0.289 C 
ATOM     15  H   UNL     1      36.205 -25.433 -14.517  0.00  0.00    +0.155 HD
BRANCH  13  17
ATOM     16  N   UNL     1      40.914 -25.578 -14.657  0.00  0.00    -0.242 NA
ATOM     17  C   UNL     1      38.210 -25.019 -14.371  0.00  0.00    +0.054 C 
ATOM     18  C   UNL     1      38.918 -24.438 -15.405  0.00  0.00    +0.035 C 
ATOM     19  C   UNL     1      38.825 -25.873 -13.477  0.00  0.00    +0.035 C 
ATOM     20  C   UNL     1      40.265 -24.749 -15.504  0.00  0.00    +0.100 C 
ATOM     21  C   UNL     1      40.175 -26.120 -13.663  0.00  0.00    +0.100 C 
ENDBRANCH  13  17
ENDBRANCH  11  14
ENDBRANCH   4  11
BRANCH   1  22
ATOM     22  C   UNL     1      33.621 -23.685 -18.515  0.00  0.00    +0.122 C 
BRANCH  22  24
ATOM     23 CL   UNL     1      35.332 -18.501 -21.008  0.00  0.00    -0.082 Cl
ATOM     24  C   UNL     1      34.050 -22.384 -19.139  0.00  0.00    -0.002 C 
ATOM     25  C   UNL     1      33.089 -21.515 -19.637  0.00  0.00    -0.002 C 
ATOM     26  C   UNL     1      35.401 -22.072 -19.209  0.00  0.00    -0.002 C 
ATOM     27  C   UNL     1      33.487 -20.310 -20.217  0.00  0.00    +0.011 C 
ATOM     28  C   UNL     1      35.798 -20.868 -19.790  0.00  0.00    +0.011 C 
ATOM     29  C   UNL     1      34.841 -19.986 -20.293  0.00  0.00    +0.058 C 
ENDBRANCH  22  24
ENDBRANCH   1  22
TORSDOF 5
ENDMDL
MODEL 7
REMARK VINA RESULT:     -11.2      3.764      8.757
REMARK  Name = 2929
REMARK  5 active torsions:
REMARK  status: ('A' for Active; 'I' for Inactive)
REMARK    1  A    between atoms: N_1  and  C_22
REMARK    2  A    between atoms: C_4  and  C_11
REMARK    3  A    between atoms: C_11  and  C_14
REMARK    4  A    between atoms: N_13  and  C_17
REMARK    5  A    between atoms: C_22  and  C_24
REMARK                            x       y       z     vdW  Elec       q    Type
REMARK                         _______ _______ _______ _____ _____    ______ ____
ROOT
ATOM      1  N   UNL     1      34.093 -11.605 -24.097  0.00  0.00    -0.281 N 
ATOM      2  C   UNL     1      33.752 -12.476 -25.108  0.00  0.00    +0.052 C 
ATOM      3  C   UNL     1      33.294 -13.648 -24.504  0.00  0.00    +0.018 C 
ATOM      4  C   UNL     1      33.373 -13.452 -23.097  0.00  0.00    +0.060 C 
ATOM      5  C   UNL     1      33.868 -12.187 -22.878  0.00  0.00    +0.069 C 
ATOM      6  C   UNL     1      33.812 -12.314 -26.497  0.00  0.00    +0.015 C 
ATOM      7  C   UNL     1      32.877 -14.714 -25.325  0.00  0.00    +0.001 C 
ATOM      8  C   UNL     1      33.392 -13.385 -27.291  0.00  0.00    +0.001 C 
ATOM      9  C   UNL     1      32.931 -14.567 -26.716  0.00  0.00    +0.000 C 
ENDROOT
BRANCH   4  11
ATOM     10  O   UNL     1      31.892 -14.442 -21.527  0.00  0.00    -0.282 OA
ATOM     11  C   UNL     1      33.015 -14.370 -22.053  0.00  0.00    +0.250 C 
BRANCH  11  14
ATOM     12  O   UNL     1      34.929 -14.896 -20.826  0.00  0.00    -0.266 OA
ATOM     13  N   UNL     1      33.661 -16.658 -21.775  0.00  0.00    -0.278 N 
ATOM     14  C   UNL     1      34.000 -15.357 -21.466  0.00  0.00    +0.289 C 
ATOM     15  H   UNL     1      32.850 -16.784 -22.319  0.00  0.00    +0.155 HD
BRANCH  13  17
ATOM     16  N   UNL     1      35.712 -20.133 -20.645  0.00  0.00    -0.242 NA
ATOM     17  C   UNL     1      34.353 -17.830 -21.393  0.00  0.00    +0.054 C 
ATOM     18  C   UNL     1      33.637 -18.945 -21.005  0.00  0.00    +0.035 C 
ATOM     19  C   UNL     1      35.734 -17.841 -21.416  0.00  0.00    +0.035 C 
ATOM     20  C   UNL     1      34.362 -20.069 -20.641  0.00  0.00    +0.100 C 
ATOM     21  C   UNL     1      36.365 -19.014 -21.033  0.00  0.00    +0.100 C 
ENDBRANCH  13  17
ENDBRANCH  11  14
ENDBRANCH   4  11
BRANCH   1  22
ATOM     22  C   UNL     1      34.616 -10.268 -24.278  0.00  0.00    +0.122 C 
BRANCH  22  24
ATOM     23 CL   UNL     1      30.822  -6.131 -22.153  0.00  0.00    -0.082 Cl
ATOM     24  C   UNL     1      33.665  -9.230 -23.746  0.00  0.00    -0.002 C 
ATOM     25  C   UNL     1      34.155  -7.995 -23.343  0.00  0.00    -0.002 C 
ATOM     26  C   UNL     1      32.310  -9.522 -23.665  0.00  0.00    -0.002 C 
ATOM     27  C   UNL     1      33.273  -7.034 -22.849  0.00  0.00    +0.011 C 
ATOM     28  C   UNL     1      31.429  -8.561 -23.170  0.00  0.00    +0.011 C 
ATOM     29  C   UNL     1      31.910  -7.317 -22.763  0.00  0.00    +0.058 C 
ENDBRANCH  22  24
ENDBRANCH   1  22
TORSDOF 5
ENDMDL
MODEL 8
REMARK VINA RESULT:     -11.2      3.619      6.176
REMARK  Name = 2929
REMARK  5 active torsions:
REMARK  status: ('A' for Active; 'I' for Inactive)
REMARK    1  A    between atoms: N_1  and  C_22
REMARK    2  A    between atoms: C_4  and  C_11
REMARK    3  A    between atoms: C_11  and  C_14
REMARK    4  A    between atoms: N_13  and  C_17
REMARK    5  A    between atoms: C_22  and  C_24
REMARK                            x       y       z     vdW  Elec       q    Type
REMARK                         _______ _______ _______ _____ _____    ______ ____
ROOT
ATOM      1  N   UNL     1      32.557 -12.284 -23.441  0.00  0.00    -0.281 N 
ATOM      2  C   UNL     1      33.455 -11.419 -24.022  0.00  0.00    +0.052 C 
ATOM      3  C   UNL     1      33.406 -10.227 -23.296  0.00  0.00    +0.018 C 
ATOM      4  C   UNL     1      32.448 -10.407 -22.261  0.00  0.00    +0.060 C 
ATOM      5  C   UNL     1      31.943 -11.682 -22.375  0.00  0.00    +0.069 C 
ATOM      6  C   UNL     1      34.299 -11.600 -25.123  0.00  0.00    +0.015 C 
ATOM      7  C   UNL     1      34.239  -9.160 -23.689  0.00  0.00    +0.001 C 
ATOM      8  C   UNL     1      35.117 -10.528 -25.494  0.00  0.00    +0.001 C 
ATOM      9  C   UNL     1      35.090  -9.326 -24.788  0.00  0.00    +0.000 C 
ENDROOT
BRANCH   4  11
ATOM     10  O   UNL     1      31.592  -9.774 -20.138  0.00  0.00    -0.282 OA
ATOM     11  C   UNL     1      32.044  -9.467 -21.254  0.00  0.00    +0.250 C 
BRANCH  11  14
ATOM     12  O   UNL     1      32.895  -7.353 -20.754  0.00  0.00    -0.266 OA
ATOM     13  N   UNL     1      31.258  -7.552 -22.455  0.00  0.00    -0.278 N 
ATOM     14  C   UNL     1      32.119  -7.970 -21.463  0.00  0.00    +0.289 C 
ATOM     15  H   UNL     1      30.719  -8.249 -22.894  0.00  0.00    +0.155 HD
BRANCH  13  17
ATOM     16  N   UNL     1      30.694  -3.628 -23.813  0.00  0.00    -0.242 NA
ATOM     17  C   UNL     1      31.069  -6.227 -22.913  0.00  0.00    +0.054 C 
ATOM     18  C   UNL     1      31.293  -5.930 -24.243  0.00  0.00    +0.035 C 
ATOM     19  C   UNL     1      30.661  -5.254 -22.024  0.00  0.00    +0.035 C 
ATOM     20  C   UNL     1      31.092  -4.618 -24.642  0.00  0.00    +0.100 C 
ATOM     21  C   UNL     1      30.489  -3.972 -22.522  0.00  0.00    +0.100 C 
ENDBRANCH  13  17
ENDBRANCH  11  14
ENDBRANCH   4  11
BRANCH   1  22
ATOM     22  C   UNL     1      32.286 -13.638 -23.878  0.00  0.00    +0.122 C 
BRANCH  22  24
ATOM     23 CL   UNL     1      35.538 -17.625 -20.789  0.00  0.00    -0.082 Cl
ATOM     24  C   UNL     1      33.101 -14.638 -23.104  0.00  0.00    -0.002 C 
ATOM     25  C   UNL     1      32.754 -14.934 -21.793  0.00  0.00    -0.002 C 
ATOM     26  C   UNL     1      34.189 -15.250 -23.711  0.00  0.00    -0.002 C 
ATOM     27  C   UNL     1      33.510 -15.861 -21.075  0.00  0.00    +0.011 C 
ATOM     28  C   UNL     1      34.945 -16.176 -22.993  0.00  0.00    +0.011 C 
ATOM     29  C   UNL     1      34.606 -16.482 -21.675  0.00  0.00    +0.058 C 
ENDBRANCH  22  24
ENDBRANCH   1  22
TORSDOF 5
ENDMDL
MODEL 9
REMARK VINA RESULT:     -11.2      3.586      8.457
REMARK  Name = 2929
REMARK  5 active torsions:
REMARK  status: ('A' for Active; 'I' for Inactive)
REMARK    1  A    between atoms: N_1  and  C_22
REMARK    2  A    between atoms: C_4  and  C_11
REMARK    3  A    between atoms: C_11  and  C_14
REMARK    4  A    between atoms: N_13  and  C_17
REMARK    5  A    between atoms: C_22  and  C_24
REMARK                            x       y       z     vdW  Elec       q    Type
REMARK                         _______ _______ _______ _____ _____    ______ ____
ROOT
ATOM      1  N   UNL     1      33.360 -14.091 -24.063  0.00  0.00    -0.281 N 
ATOM      2  C   UNL     1      32.988 -14.069 -22.738  0.00  0.00    +0.052 C 
ATOM      3  C   UNL     1      33.532 -15.207 -22.139  0.00  0.00    +0.018 C 
ATOM      4  C   UNL     1      34.241 -15.912 -23.150  0.00  0.00    +0.060 C 
ATOM      5  C   UNL     1      34.117 -15.202 -24.322  0.00  0.00    +0.069 C 
ATOM      6  C   UNL     1      32.221 -13.136 -22.032  0.00  0.00    +0.015 C 
ATOM      7  C   UNL     1      33.298 -15.427 -20.767  0.00  0.00    +0.001 C 
ATOM      8  C   UNL     1      32.002 -13.375 -20.672  0.00  0.00    +0.001 C 
ATOM      9  C   UNL     1      32.532 -14.503 -20.047  0.00  0.00    +0.000 C 
ENDROOT
BRANCH   4  11
ATOM     10  O   UNL     1      35.582 -17.701 -23.953  0.00  0.00    -0.282 OA
ATOM     11  C   UNL     1      34.971 -17.142 -23.026  0.00  0.00    +0.250 C 
BRANCH  11  14
ATOM     12  O   UNL     1      35.594 -17.339 -20.786  0.00  0.00    -0.266 OA
ATOM     13  N   UNL     1      34.502 -19.163 -21.831  0.00  0.00    -0.278 N 
ATOM     14  C   UNL     1      35.060 -17.907 -21.723  0.00  0.00    +0.289 C 
ATOM     15  H   UNL     1      34.125 -19.403 -22.709  0.00  0.00    +0.155 HD
BRANCH  13  17
ATOM     16  N   UNL     1      34.228 -22.067 -18.823  0.00  0.00    -0.242 NA
ATOM     17  C   UNL     1      34.409 -20.142 -20.815  0.00  0.00    +0.054 C 
ATOM     18  C   UNL     1      33.171 -20.472 -20.301  0.00  0.00    +0.035 C 
ATOM     19  C   UNL     1      35.559 -20.753 -20.355  0.00  0.00    +0.035 C 
ATOM     20  C   UNL     1      33.134 -21.439 -19.309  0.00  0.00    +0.100 C 
ATOM     21  C   UNL     1      35.415 -21.706 -19.360  0.00  0.00    +0.100 C 
ENDBRANCH  13  17
ENDBRANCH  11  14
ENDBRANCH   4  11
BRANCH   1  22
ATOM     22  C   UNL     1      33.009 -13.095 -25.054  0.00  0.00    +0.122 C 
BRANCH  22  24
ATOM     23 CL   UNL     1      35.070  -7.671 -23.522  0.00  0.00    -0.082 Cl
ATOM     24  C   UNL     1      33.526 -11.735 -24.670  0.00  0.00    -0.002 C 
ATOM     25  C   UNL     1      34.681 -11.249 -25.268  0.00  0.00    -0.002 C 
ATOM     26  C   UNL     1      32.840 -10.985 -23.725  0.00  0.00    -0.002 C 
ATOM     27  C   UNL     1      35.159  -9.988 -24.911  0.00  0.00    +0.011 C 
ATOM     28  C   UNL     1      33.320  -9.725 -23.368  0.00  0.00    +0.011 C 
ATOM     29  C   UNL     1      34.479  -9.226 -23.962  0.00  0.00    +0.058 C 
ENDBRANCH  22  24
ENDBRANCH   1  22
TORSDOF 5
ENDMDL
