MODEL 1
REMARK VINA RESULT:      -7.7      0.000      0.000
REMARK  Name = 1290
REMARK  5 active torsions:
REMARK  status: ('A' for Active; 'I' for Inactive)
REMARK    1  A    between atoms: N_2  and  C_13
REMARK    2  A    between atoms: C_3  and  C_5
REMARK    3  A    between atoms: C_5  and  C_7
REMARK    4  A    between atoms: C_13  and  P_14
REMARK    5  A    between atoms: P_14  and  O_17
REMARK                            x       y       z     vdW  Elec       q    Type
REMARK                         _______ _______ _______ _____ _____    ______ ____
ROOT
ATOM      1  O   UNL     1      35.249 -16.707 -20.405  0.00  0.00    -0.275 OA
ATOM      2  N   UNL     1      34.425 -15.976 -22.449  0.00  0.00    -0.296 N 
ATOM      3  C   UNL     1      34.928 -16.922 -21.572  0.00  0.00    +0.227 C 
ATOM      4  H   UNL     1      34.198 -16.254 -23.367  0.00  0.00    +0.150 HD
ENDROOT
BRANCH   3   5
ATOM      5  C   UNL     1      35.090 -18.288 -22.205  0.00  0.00    +0.111 C 
BRANCH   5   7
ATOM      6  I   UNL     1      33.624 -22.922 -18.104  0.00  0.00    -0.043 I 
ATOM      7  C   UNL     1      34.742 -19.385 -21.235  0.00  0.00    -0.013 C 
ATOM      8  C   UNL     1      33.411 -19.634 -20.931  0.00  0.00    -0.003 C 
ATOM      9  C   UNL     1      35.759 -20.133 -20.656  0.00  0.00    -0.003 C 
ATOM     10  C   UNL     1      33.090 -20.651 -20.031  0.00  0.00    +0.005 C 
ATOM     11  C   UNL     1      35.437 -21.150 -19.757  0.00  0.00    +0.005 C 
ATOM     12  C   UNL     1      34.103 -21.408 -19.445  0.00  0.00    +0.030 C 
ENDBRANCH   5   7
ENDBRANCH   3   5
BRANCH   2  13
ATOM     13  C   UNL     1      34.221 -14.597 -22.070  0.00  0.00    +0.174 C 
BRANCH  13  14
ATOM     14  P   UNL     1      33.454 -13.798 -23.487  0.00  0.00    +0.219 P 
ATOM     15  O   UNL     1      33.280 -14.792 -24.608  0.00  0.00    -0.292 OA
ATOM     16  H   UNL     1      33.601 -12.440 -23.677  0.00  0.00    +0.130 HD
BRANCH  14  17
ATOM     17  O   UNL     1      32.013 -13.412 -22.837  0.00  0.00    -0.344 OA
ATOM     18  H   UNL     1      31.392 -14.146 -22.968  0.00  0.00    +0.217 HD
ENDBRANCH  14  17
ENDBRANCH  13  14
ENDBRANCH   2  13
TORSDOF 5
ENDMDL
MODEL 2
REMARK VINA RESULT:      -7.6      9.411     10.746
REMARK  Name = 1290
REMARK  5 active torsions:
REMARK  status: ('A' for Active; 'I' for Inactive)
REMARK    1  A    between atoms: N_2  and  C_13
REMARK    2  A    between atoms: C_3  and  C_5
REMARK    3  A    between atoms: C_5  and  C_7
REMARK    4  A    between atoms: C_13  and  P_14
REMARK    5  A    between atoms: P_14  and  O_17
REMARK                            x       y       z     vdW  Elec       q    Type
REMARK                         _______ _______ _______ _____ _____    ______ ____
ROOT
ATOM      1  O   UNL     1      36.090 -25.787 -15.662  0.00  0.00    -0.275 OA
ATOM      2  N   UNL     1      37.823 -24.758 -14.506  0.00  0.00    -0.296 N 
ATOM      3  C   UNL     1      36.650 -24.776 -15.242  0.00  0.00    +0.227 C 
ATOM      4  H   UNL     1      38.188 -23.891 -14.218  0.00  0.00    +0.150 HD
ENDROOT
BRANCH   3   5
ATOM      5  C   UNL     1      36.111 -23.390 -15.529  0.00  0.00    +0.111 C 
BRANCH   5   7
ATOM      6  I   UNL     1      29.759 -23.391 -15.822  0.00  0.00    -0.043 I 
ATOM      7  C   UNL     1      34.607 -23.391 -15.599  0.00  0.00    -0.013 C 
ATOM      8  C   UNL     1      33.979 -23.216 -16.824  0.00  0.00    -0.003 C 
ATOM      9  C   UNL     1      33.870 -23.565 -14.436  0.00  0.00    -0.003 C 
ATOM     10  C   UNL     1      32.586 -23.217 -16.888  0.00  0.00    +0.005 C 
ATOM     11  C   UNL     1      32.476 -23.566 -14.500  0.00  0.00    +0.005 C 
ATOM     12  C   UNL     1      31.835 -23.391 -15.726  0.00  0.00    +0.030 C 
ENDBRANCH   5   7
ENDBRANCH   3   5
BRANCH   2  13
ATOM     13  C   UNL     1      38.531 -25.965 -14.147  0.00  0.00    +0.174 C 
BRANCH  13  14
ATOM     14  P   UNL     1      40.265 -25.652 -14.508  0.00  0.00    +0.219 P 
ATOM     15  O   UNL     1      41.124 -26.714 -13.869  0.00  0.00    -0.292 OA
ATOM     16  H   UNL     1      40.694 -24.368 -14.772  0.00  0.00    +0.130 HD
BRANCH  14  17
ATOM     17  O   UNL     1      40.244 -25.830 -16.126  0.00  0.00    -0.344 OA
ATOM     18  H   UNL     1      40.108 -24.966 -16.544  0.00  0.00    +0.217 HD
ENDBRANCH  14  17
ENDBRANCH  13  14
ENDBRANCH   2  13
TORSDOF 5
ENDMDL
MODEL 3
REMARK VINA RESULT:      -7.6      8.827     10.580
REMARK  Name = 1290
REMARK  5 active torsions:
REMARK  status: ('A' for Active; 'I' for Inactive)
REMARK    1  A    between atoms: N_2  and  C_13
REMARK    2  A    between atoms: C_3  and  C_5
REMARK    3  A    between atoms: C_5  and  C_7
REMARK    4  A    between atoms: C_13  and  P_14
REMARK    5  A    between atoms: P_14  and  O_17
REMARK                            x       y       z     vdW  Elec       q    Type
REMARK                         _______ _______ _______ _____ _____    ______ ____
ROOT
ATOM      1  O   UNL     1      35.896 -26.081 -15.570  0.00  0.00    -0.275 OA
ATOM      2  N   UNL     1      37.598 -25.159 -14.285  0.00  0.00    -0.296 N 
ATOM      3  C   UNL     1      36.373 -25.144 -14.932  0.00  0.00    +0.227 C 
ATOM      4  H   UNL     1      37.888 -24.352 -13.800  0.00  0.00    +0.150 HD
ENDROOT
BRANCH   3   5
ATOM      5  C   UNL     1      35.658 -23.814 -14.813  0.00  0.00    +0.111 C 
BRANCH   5   7
ATOM      6  I   UNL     1      35.615 -20.705 -20.360  0.00  0.00    -0.043 I 
ATOM      7  C   UNL     1      35.649 -23.079 -16.126  0.00  0.00    -0.013 C 
ATOM      8  C   UNL     1      36.779 -22.381 -16.528  0.00  0.00    -0.003 C 
ATOM      9  C   UNL     1      34.508 -23.108 -16.917  0.00  0.00    -0.003 C 
ATOM     10  C   UNL     1      36.769 -21.699 -17.745  0.00  0.00    +0.005 C 
ATOM     11  C   UNL     1      34.499 -22.426 -18.134  0.00  0.00    +0.005 C 
ATOM     12  C   UNL     1      35.630 -21.722 -18.547  0.00  0.00    +0.030 C 
ENDBRANCH   5   7
ENDBRANCH   3   5
BRANCH   2  13
ATOM     13  C   UNL     1      38.467 -26.313 -14.296  0.00  0.00    +0.174 C 
BRANCH  13  14
ATOM     14  P   UNL     1      40.130 -25.683 -14.563  0.00  0.00    +0.219 P 
ATOM     15  O   UNL     1      41.138 -26.598 -13.915  0.00  0.00    -0.292 OA
ATOM     16  H   UNL     1      40.332 -24.334 -14.768  0.00  0.00    +0.130 HD
BRANCH  14  17
ATOM     17  O   UNL     1      40.210 -25.801 -16.185  0.00  0.00    -0.344 OA
ATOM     18  H   UNL     1      39.681 -25.094 -16.586  0.00  0.00    +0.217 HD
ENDBRANCH  14  17
ENDBRANCH  13  14
ENDBRANCH   2  13
TORSDOF 5
ENDMDL
MODEL 4
REMARK VINA RESULT:      -7.5      1.948      2.569
REMARK  Name = 1290
REMARK  5 active torsions:
REMARK  status: ('A' for Active; 'I' for Inactive)
REMARK    1  A    between atoms: N_2  and  C_13
REMARK    2  A    between atoms: C_3  and  C_5
REMARK    3  A    between atoms: C_5  and  C_7
REMARK    4  A    between atoms: C_13  and  P_14
REMARK    5  A    between atoms: P_14  and  O_17
REMARK                            x       y       z     vdW  Elec       q    Type
REMARK                         _______ _______ _______ _____ _____    ______ ____
ROOT
ATOM      1  O   UNL     1      35.112 -19.313 -23.951  0.00  0.00    -0.275 OA
ATOM      2  N   UNL     1      35.177 -16.994 -24.053  0.00  0.00    -0.296 N 
ATOM      3  C   UNL     1      35.351 -18.222 -23.437  0.00  0.00    +0.227 C 
ATOM      4  H   UNL     1      35.399 -16.176 -23.551  0.00  0.00    +0.150 HD
ENDROOT
BRANCH   3   5
ATOM      5  C   UNL     1      35.843 -18.104 -22.010  0.00  0.00    +0.111 C 
BRANCH   5   7
ATOM      6  I   UNL     1      33.606 -22.833 -18.394  0.00  0.00    -0.043 I 
ATOM      7  C   UNL     1      35.314 -19.223 -21.154  0.00  0.00    -0.013 C 
ATOM      8  C   UNL     1      36.203 -20.096 -20.542  0.00  0.00    -0.003 C 
ATOM      9  C   UNL     1      33.943 -19.367 -20.988  0.00  0.00    -0.003 C 
ATOM     10  C   UNL     1      35.712 -21.133 -19.749  0.00  0.00    +0.005 C 
ATOM     11  C   UNL     1      33.452 -20.404 -20.195  0.00  0.00    +0.005 C 
ATOM     12  C   UNL     1      34.337 -21.287 -19.576  0.00  0.00    +0.030 C 
ENDBRANCH   5   7
ENDBRANCH   3   5
BRANCH   2  13
ATOM     13  C   UNL     1      34.683 -16.866 -25.405  0.00  0.00    +0.174 C 
BRANCH  13  14
ATOM     14  P   UNL     1      33.459 -15.550 -25.366  0.00  0.00    +0.219 P 
ATOM     15  O   UNL     1      33.853 -14.508 -24.349  0.00  0.00    -0.292 OA
ATOM     16  H   UNL     1      32.156 -15.807 -25.741  0.00  0.00    +0.130 HD
BRANCH  14  17
ATOM     17  O   UNL     1      33.633 -14.969 -26.876  0.00  0.00    -0.344 OA
ATOM     18  H   UNL     1      33.857 -14.026 -26.836  0.00  0.00    +0.217 HD
ENDBRANCH  14  17
ENDBRANCH  13  14
ENDBRANCH   2  13
TORSDOF 5
ENDMDL
MODEL 5
REMARK VINA RESULT:      -7.4      6.547      7.747
REMARK  Name = 1290
REMARK  5 active torsions:
REMARK  status: ('A' for Active; 'I' for Inactive)
REMARK    1  A    between atoms: N_2  and  C_13
REMARK    2  A    between atoms: C_3  and  C_5
REMARK    3  A    between atoms: C_5  and  C_7
REMARK    4  A    between atoms: C_13  and  P_14
REMARK    5  A    between atoms: P_14  and  O_17
REMARK                            x       y       z     vdW  Elec       q    Type
REMARK                         _______ _______ _______ _____ _____    ______ ____
ROOT
ATOM      1  O   UNL     1      34.276 -22.992 -16.266  0.00  0.00    -0.275 OA
ATOM      2  N   UNL     1      32.053 -23.168 -16.914  0.00  0.00    -0.296 N 
ATOM      3  C   UNL     1      33.421 -23.193 -17.126  0.00  0.00    +0.227 C 
ATOM      4  H   UNL     1      31.452 -23.344 -17.674  0.00  0.00    +0.150 HD
ENDROOT
BRANCH   3   5
ATOM      5  C   UNL     1      33.791 -23.464 -18.570  0.00  0.00    +0.111 C 
BRANCH   5   7
ATOM      6  I   UNL     1      35.269 -18.089 -21.629  0.00  0.00    -0.043 I 
ATOM      7  C   UNL     1      34.140 -22.192 -19.293  0.00  0.00    -0.013 C 
ATOM      8  C   UNL     1      33.125 -21.378 -19.777  0.00  0.00    -0.003 C 
ATOM      9  C   UNL     1      35.474 -21.849 -19.467  0.00  0.00    -0.003 C 
ATOM     10  C   UNL     1      33.450 -20.199 -20.448  0.00  0.00    +0.005 C 
ATOM     11  C   UNL     1      35.799 -20.669 -20.138  0.00  0.00    +0.005 C 
ATOM     12  C   UNL     1      34.786 -19.845 -20.628  0.00  0.00    +0.030 C 
ENDBRANCH   5   7
ENDBRANCH   3   5
BRANCH   2  13
ATOM     13  C   UNL     1      31.474 -22.894 -15.619  0.00  0.00    +0.174 C 
BRANCH  13  14
ATOM     14  P   UNL     1      29.697 -23.089 -15.816  0.00  0.00    +0.219 P 
ATOM     15  O   UNL     1      29.228 -22.341 -17.038  0.00  0.00    -0.292 OA
ATOM     16  H   UNL     1      28.904 -23.343 -14.716  0.00  0.00    +0.130 HD
BRANCH  14  17
ATOM     17  O   UNL     1      29.624 -24.696 -16.067  0.00  0.00    -0.344 OA
ATOM     18  H   UNL     1      28.712 -24.948 -16.280  0.00  0.00    +0.217 HD
ENDBRANCH  14  17
ENDBRANCH  13  14
ENDBRANCH   2  13
TORSDOF 5
ENDMDL
MODEL 6
REMARK VINA RESULT:      -7.3      6.405      8.149
REMARK  Name = 1290
REMARK  5 active torsions:
REMARK  status: ('A' for Active; 'I' for Inactive)
REMARK    1  A    between atoms: N_2  and  C_13
REMARK    2  A    between atoms: C_3  and  C_5
REMARK    3  A    between atoms: C_5  and  C_7
REMARK    4  A    between atoms: C_13  and  P_14
REMARK    5  A    between atoms: P_14  and  O_17
REMARK                            x       y       z     vdW  Elec       q    Type
REMARK                         _______ _______ _______ _____ _____    ______ ____
ROOT
ATOM      1  O   UNL     1      32.120 -22.550 -17.867  0.00  0.00    -0.275 OA
ATOM      2  N   UNL     1      34.129 -23.158 -16.872  0.00  0.00    -0.296 N 
ATOM      3  C   UNL     1      33.313 -22.837 -17.944  0.00  0.00    +0.227 C 
ATOM      4  H   UNL     1      35.074 -23.373 -17.044  0.00  0.00    +0.150 HD
ENDROOT
BRANCH   3   5
ATOM      5  C   UNL     1      34.032 -22.906 -19.275  0.00  0.00    +0.111 C 
BRANCH   5   7
ATOM      6  I   UNL     1      34.806 -17.116 -21.787  0.00  0.00    -0.043 I 
ATOM      7  C   UNL     1      34.215 -21.536 -19.870  0.00  0.00    -0.013 C 
ATOM      8  C   UNL     1      35.498 -21.040 -20.063  0.00  0.00    -0.003 C 
ATOM      9  C   UNL     1      33.100 -20.786 -20.217  0.00  0.00    -0.003 C 
ATOM     10  C   UNL     1      35.667 -19.770 -20.614  0.00  0.00    +0.005 C 
ATOM     11  C   UNL     1      33.270 -19.516 -20.769  0.00  0.00    +0.005 C 
ATOM     12  C   UNL     1      34.553 -19.008 -20.967  0.00  0.00    +0.030 C 
ENDBRANCH   5   7
ENDBRANCH   3   5
BRANCH   2  13
ATOM     13  C   UNL     1      33.645 -23.190 -15.511  0.00  0.00    +0.174 C 
BRANCH  13  14
ATOM     14  P   UNL     1      34.794 -24.228 -14.597  0.00  0.00    +0.219 P 
ATOM     15  O   UNL     1      35.793 -24.848 -15.542  0.00  0.00    -0.292 OA
ATOM     16  H   UNL     1      34.410 -24.796 -13.400  0.00  0.00    +0.130 HD
BRANCH  14  17
ATOM     17  O   UNL     1      35.509 -23.096 -13.672  0.00  0.00    -0.344 OA
ATOM     18  H   UNL     1      35.888 -23.515 -12.883  0.00  0.00    +0.217 HD
ENDBRANCH  14  17
ENDBRANCH  13  14
ENDBRANCH   2  13
TORSDOF 5
ENDMDL
MODEL 7
REMARK VINA RESULT:      -7.3      6.829      8.192
REMARK  Name = 1290
REMARK  5 active torsions:
REMARK  status: ('A' for Active; 'I' for Inactive)
REMARK    1  A    between atoms: N_2  and  C_13
REMARK    2  A    between atoms: C_3  and  C_5
REMARK    3  A    between atoms: C_5  and  C_7
REMARK    4  A    between atoms: C_13  and  P_14
REMARK    5  A    between atoms: P_14  and  O_17
REMARK                            x       y       z     vdW  Elec       q    Type
REMARK                         _______ _______ _______ _____ _____    ______ ____
ROOT
ATOM      1  O   UNL     1      33.037 -23.038 -16.133  0.00  0.00    -0.275 OA
ATOM      2  N   UNL     1      35.313 -22.917 -16.582  0.00  0.00    -0.296 N 
ATOM      3  C   UNL     1      33.979 -23.067 -16.923  0.00  0.00    +0.227 C 
ATOM      4  H   UNL     1      35.991 -22.957 -17.295  0.00  0.00    +0.150 HD
ENDROOT
BRANCH   3   5
ATOM      5  C   UNL     1      33.771 -23.316 -18.402  0.00  0.00    +0.111 C 
BRANCH   5   7
ATOM      6  I   UNL     1      35.205 -18.164 -21.842  0.00  0.00    -0.043 I 
ATOM      7  C   UNL     1      34.110 -22.096 -19.216  0.00  0.00    -0.013 C 
ATOM      8  C   UNL     1      33.096 -21.235 -19.613  0.00  0.00    -0.003 C 
ATOM      9  C   UNL     1      35.432 -21.850 -19.559  0.00  0.00    -0.003 C 
ATOM     10  C   UNL     1      33.412 -20.105 -20.367  0.00  0.00    +0.005 C 
ATOM     11  C   UNL     1      35.747 -20.719 -20.313  0.00  0.00    +0.005 C 
ATOM     12  C   UNL     1      34.736 -19.848 -20.717  0.00  0.00    +0.030 C 
ENDBRANCH   5   7
ENDBRANCH   3   5
BRANCH   2  13
ATOM     13  C   UNL     1      35.746 -22.705 -15.221  0.00  0.00    +0.174 C 
BRANCH  13  14
ATOM     14  P   UNL     1      37.051 -23.905 -14.920  0.00  0.00    +0.219 P 
ATOM     15  O   UNL     1      36.634 -25.260 -15.433  0.00  0.00    -0.292 OA
ATOM     16  H   UNL     1      37.940 -23.714 -13.882  0.00  0.00    +0.130 HD
BRANCH  14  17
ATOM     17  O   UNL     1      38.224 -23.275 -15.857  0.00  0.00    -0.344 OA
ATOM     18  H   UNL     1      37.856 -22.555 -16.393  0.00  0.00    +0.217 HD
ENDBRANCH  14  17
ENDBRANCH  13  14
ENDBRANCH   2  13
TORSDOF 5
ENDMDL
MODEL 8
REMARK VINA RESULT:      -7.3      6.900      8.444
REMARK  Name = 1290
REMARK  5 active torsions:
REMARK  status: ('A' for Active; 'I' for Inactive)
REMARK    1  A    between atoms: N_2  and  C_13
REMARK    2  A    between atoms: C_3  and  C_5
REMARK    3  A    between atoms: C_5  and  C_7
REMARK    4  A    between atoms: C_13  and  P_14
REMARK    5  A    between atoms: P_14  and  O_17
REMARK                            x       y       z     vdW  Elec       q    Type
REMARK                         _______ _______ _______ _____ _____    ______ ____
ROOT
ATOM      1  O   UNL     1      34.813 -22.883 -16.354  0.00  0.00    -0.275 OA
ATOM      2  N   UNL     1      32.534 -23.331 -16.299  0.00  0.00    -0.296 N 
ATOM      3  C   UNL     1      33.766 -23.194 -16.918  0.00  0.00    +0.227 C 
ATOM      4  H   UNL     1      31.755 -23.586 -16.845  0.00  0.00    +0.150 HD
ENDROOT
BRANCH   3   5
ATOM      5  C   UNL     1      33.706 -23.435 -18.412  0.00  0.00    +0.111 C 
BRANCH   5   7
ATOM      6  I   UNL     1      35.331 -18.218 -21.664  0.00  0.00    -0.043 I 
ATOM      7  C   UNL     1      34.091 -22.200 -19.181  0.00  0.00    -0.013 C 
ATOM      8  C   UNL     1      33.099 -21.344 -19.641  0.00  0.00    -0.003 C 
ATOM      9  C   UNL     1      35.432 -21.934 -19.422  0.00  0.00    -0.003 C 
ATOM     10  C   UNL     1      33.456 -20.200 -20.354  0.00  0.00    +0.005 C 
ATOM     11  C   UNL     1      35.788 -20.790 -20.135  0.00  0.00    +0.005 C 
ATOM     12  C   UNL     1      34.800 -19.923 -20.601  0.00  0.00    +0.030 C 
ENDBRANCH   5   7
ENDBRANCH   3   5
BRANCH   2  13
ATOM     13  C   UNL     1      32.350 -23.114 -14.883  0.00  0.00    +0.174 C 
BRANCH  13  14
ATOM     14  P   UNL     1      31.199 -24.380 -14.330  0.00  0.00    +0.219 P 
ATOM     15  O   UNL     1      30.384 -24.881 -15.495  0.00  0.00    -0.292 OA
ATOM     16  H   UNL     1      30.761 -24.390 -13.021  0.00  0.00    +0.130 HD
BRANCH  14  17
ATOM     17  O   UNL     1      32.256 -25.516 -13.840  0.00  0.00    -0.344 OA
ATOM     18  H   UNL     1      31.842 -26.391 -13.905  0.00  0.00    +0.217 HD
ENDBRANCH  14  17
ENDBRANCH  13  14
ENDBRANCH   2  13
TORSDOF 5
ENDMDL
MODEL 9
REMARK VINA RESULT:      -7.1      2.587      3.714
REMARK  Name = 1290
REMARK  5 active torsions:
REMARK  status: ('A' for Active; 'I' for Inactive)
REMARK    1  A    between atoms: N_2  and  C_13
REMARK    2  A    between atoms: C_3  and  C_5
REMARK    3  A    between atoms: C_5  and  C_7
REMARK    4  A    between atoms: C_13  and  P_14
REMARK    5  A    between atoms: P_14  and  O_17
REMARK                            x       y       z     vdW  Elec       q    Type
REMARK                         _______ _______ _______ _____ _____    ______ ____
ROOT
ATOM      1  O   UNL     1      33.703 -19.797 -20.585  0.00  0.00    -0.275 OA
ATOM      2  N   UNL     1      35.691 -18.632 -20.873  0.00  0.00    -0.296 N 
ATOM      3  C   UNL     1      34.929 -19.770 -20.668  0.00  0.00    +0.227 C 
ATOM      4  H   UNL     1      36.671 -18.720 -20.924  0.00  0.00    +0.150 HD
ENDROOT
BRANCH   3   5
ATOM      5  C   UNL     1      35.767 -21.022 -20.514  0.00  0.00    +0.111 C 
BRANCH   5   7
ATOM      6  I   UNL     1      34.911 -23.690 -14.805  0.00  0.00    -0.043 I 
ATOM      7  C   UNL     1      35.564 -21.653 -19.162  0.00  0.00    -0.013 C 
ATOM      8  C   UNL     1      36.583 -21.595 -18.221  0.00  0.00    -0.003 C 
ATOM      9  C   UNL     1      34.362 -22.284 -18.876  0.00  0.00    -0.003 C 
ATOM     10  C   UNL     1      36.394 -22.181 -16.969  0.00  0.00    +0.005 C 
ATOM     11  C   UNL     1      34.174 -22.869 -17.624  0.00  0.00    +0.005 C 
ATOM     12  C   UNL     1      35.190 -22.817 -16.671  0.00  0.00    +0.030 C 
ENDBRANCH   5   7
ENDBRANCH   3   5
BRANCH   2  13
ATOM     13  C   UNL     1      35.103 -17.319 -21.013  0.00  0.00    +0.174 C 
BRANCH  13  14
ATOM     14  P   UNL     1      34.930 -17.037 -22.780  0.00  0.00    +0.219 P 
ATOM     15  O   UNL     1      35.200 -15.588 -23.099  0.00  0.00    -0.292 OA
ATOM     16  H   UNL     1      34.110 -17.852 -23.532  0.00  0.00    +0.130 HD
BRANCH  14  17
ATOM     17  O   UNL     1      36.138 -17.978 -23.328  0.00  0.00    -0.344 OA
ATOM     18  H   UNL     1      35.766 -18.749 -23.784  0.00  0.00    +0.217 HD
ENDBRANCH  14  17
ENDBRANCH  13  14
ENDBRANCH   2  13
TORSDOF 5
ENDMDL
