MODEL 1
REMARK VINA RESULT:     -12.5      0.000      0.000
REMARK  Name = 5326608
REMARK  8 active torsions:
REMARK  status: ('A' for Active; 'I' for Inactive)
REMARK    1  A    between atoms: N_3  and  S_29
REMARK    2  A    between atoms: C_5  and  C_13
REMARK    3  A    between atoms: N_12  and  C_15
REMARK    4  A    between atoms: C_15  and  C_19
REMARK    5  A    between atoms: N_18  and  C_24
REMARK    6  A    between atoms: N_18  and  O_27
REMARK    7  A    between atoms: S_29  and  C_32
REMARK    8  A    between atoms: C_32  and  C_33
REMARK                            x       y       z     vdW  Elec       q    Type
REMARK                         _______ _______ _______ _____ _____    ______ ____
ROOT
ATOM      1  O   UNL     1      33.602 -15.258 -25.452  0.00  0.00    -0.273 OA
ATOM      2  N   UNL     1      33.403 -14.544 -23.270  0.00  0.00    -0.272 N 
ATOM      3  N   UNL     1      34.917 -16.690 -22.354  0.00  0.00    -0.148 NA
ATOM      4  C   UNL     1      33.636 -14.727 -21.847  0.00  0.00    +0.094 C 
ATOM      5  C   UNL     1      32.544 -13.393 -23.519  0.00  0.00    +0.152 C 
ATOM      6  C   UNL     1      32.411 -14.082 -21.210  0.00  0.00    +0.024 C 
ATOM      7  C   UNL     1      32.131 -12.897 -22.131  0.00  0.00    +0.031 C 
ATOM      8  C   UNL     1      33.825 -16.185 -21.485  0.00  0.00    +0.116 C 
ATOM      9  C   UNL     1      33.826 -15.420 -24.250  0.00  0.00    +0.244 C 
ATOM     10  C   UNL     1      34.559 -16.656 -23.790  0.00  0.00    +0.180 C 
ENDROOT
BRANCH   5  13
ATOM     11  O   UNL     1      33.851 -12.574 -25.338  0.00  0.00    -0.273 OA
ATOM     12  N   UNL     1      33.529 -11.211 -23.479  0.00  0.00    -0.303 N 
ATOM     13  C   UNL     1      33.372 -12.365 -24.228  0.00  0.00    +0.241 C 
ATOM     14  H   UNL     1      33.093 -11.161 -22.598  0.00  0.00    +0.149 HD
BRANCH  12  15
ATOM     15  C   UNL     1      34.302 -10.077 -23.929  0.00  0.00    +0.089 C 
BRANCH  15  18
ATOM     16  N   UNL     1      31.862  -6.701 -22.927  0.00  0.00    -0.279 N 
ATOM     17  N   UNL     1      32.004  -5.921 -20.805  0.00  0.00    -0.370 N 
ATOM     18  C   UNL     1      33.434  -8.829 -24.071  0.00  0.00    +0.023 C 
ATOM     19  C   UNL     1      32.027  -9.073 -23.506  0.00  0.00    +0.023 C 
ATOM     20  C   UNL     1      34.084  -7.628 -23.368  0.00  0.00    +0.023 C 
ATOM     21  C   UNL     1      31.172  -7.810 -23.582  0.00  0.00    +0.094 C 
ATOM     22  C   UNL     1      33.191  -6.389 -23.447  0.00  0.00    +0.094 C 
ATOM     23  C   UNL     1      31.273  -5.953 -21.967  0.00  0.00    +0.215 C 
ATOM     24  H   UNL     1      32.855  -6.411 -20.746  0.00  0.00    +0.159 HD
ATOM     25  H   UNL     1      31.676  -5.407 -20.032  0.00  0.00    +0.159 HD
BRANCH  23  26
ATOM     26  N   UNL     1      30.139  -5.311 -22.071  0.00  0.00    -0.101 NA
BRANCH  26  27
ATOM     27  O   UNL     1      30.365  -3.932 -22.112  0.00  0.00    -0.263 OA
ATOM     28  H   UNL     1      29.829  -3.384 -22.650  0.00  0.00    +0.247 HD
ENDBRANCH  26  27
ENDBRANCH  23  26
ENDBRANCH  15  18
ENDBRANCH  12  15
ENDBRANCH   5  13
BRANCH   3  29
ATOM     29  S   UNL     1      35.703 -18.112 -21.819  0.00  0.00    +0.049 S 
ATOM     30  O   UNL     1      35.921 -18.016 -20.392  0.00  0.00    -0.157 OA
ATOM     31  O   UNL     1      36.782 -18.421 -22.733  0.00  0.00    -0.157 OA
BRANCH  29  32
ATOM     32  C   UNL     1      34.398 -19.280 -22.095  0.00  0.00    +0.195 C 
BRANCH  32  33
ATOM     33  C   UNL     1      34.406 -20.253 -20.955  0.00  0.00    +0.003 C 
ATOM     34  C   UNL     1      35.600 -20.864 -20.570  0.00  0.00    -0.003 C 
ATOM     35  C   UNL     1      33.222 -20.546 -20.280  0.00  0.00    -0.003 C 
ATOM     36  C   UNL     1      35.608 -21.769 -19.508  0.00  0.00    -0.000 C 
ATOM     37  C   UNL     1      33.231 -21.452 -19.219  0.00  0.00    -0.000 C 
ATOM     38  C   UNL     1      34.424 -22.063 -18.833  0.00  0.00    -0.000 C 
ENDBRANCH  32  33
ENDBRANCH  29  32
ENDBRANCH   3  29
TORSDOF 8
ENDMDL
MODEL 2
REMARK VINA RESULT:     -11.6      0.992      1.648
REMARK  Name = 5326608
REMARK  8 active torsions:
REMARK  status: ('A' for Active; 'I' for Inactive)
REMARK    1  A    between atoms: N_3  and  S_29
REMARK    2  A    between atoms: C_5  and  C_13
REMARK    3  A    between atoms: N_12  and  C_15
REMARK    4  A    between atoms: C_15  and  C_19
REMARK    5  A    between atoms: N_18  and  C_24
REMARK    6  A    between atoms: N_18  and  O_27
REMARK    7  A    between atoms: S_29  and  C_32
REMARK    8  A    between atoms: C_32  and  C_33
REMARK                            x       y       z     vdW  Elec       q    Type
REMARK                         _______ _______ _______ _____ _____    ______ ____
ROOT
ATOM      1  O   UNL     1      33.499 -14.891 -25.048  0.00  0.00    -0.273 OA
ATOM      2  N   UNL     1      33.301 -14.472 -22.790  0.00  0.00    -0.272 N 
ATOM      3  N   UNL     1      34.901 -16.661 -22.170  0.00  0.00    -0.148 NA
ATOM      4  C   UNL     1      33.558 -14.827 -21.405  0.00  0.00    +0.094 C 
ATOM      5  C   UNL     1      32.400 -13.330 -22.883  0.00  0.00    +0.152 C 
ATOM      6  C   UNL     1      32.319 -14.314 -20.680  0.00  0.00    +0.024 C 
ATOM      7  C   UNL     1      31.987 -13.032 -21.439  0.00  0.00    +0.031 C 
ATOM      8  C   UNL     1      33.802 -16.312 -21.235  0.00  0.00    +0.116 C 
ATOM      9  C   UNL     1      33.743 -15.199 -23.879  0.00  0.00    +0.244 C 
ATOM     10  C   UNL     1      34.524 -16.457 -23.587  0.00  0.00    +0.180 C 
ENDROOT
BRANCH   5  13
ATOM     11  O   UNL     1      34.158 -12.375 -24.183  0.00  0.00    -0.273 OA
ATOM     12  N   UNL     1      32.687 -10.960 -23.062  0.00  0.00    -0.303 N 
ATOM     13  C   UNL     1      33.183 -12.190 -23.460  0.00  0.00    +0.241 C 
ATOM     14  H   UNL     1      31.895 -10.940 -22.479  0.00  0.00    +0.149 HD
BRANCH  12  15
ATOM     15  C   UNL     1      33.278  -9.704 -23.464  0.00  0.00    +0.089 C 
BRANCH  15  18
ATOM     16  N   UNL     1      31.544  -5.796 -23.199  0.00  0.00    -0.279 N 
ATOM     17  N   UNL     1      31.468  -4.571 -25.103  0.00  0.00    -0.370 N 
ATOM     18  C   UNL     1      32.465  -8.516 -22.956  0.00  0.00    +0.023 C 
ATOM     19  C   UNL     1      33.378  -7.319 -22.648  0.00  0.00    +0.023 C 
ATOM     20  C   UNL     1      31.391  -8.111 -23.976  0.00  0.00    +0.023 C 
ATOM     21  C   UNL     1      32.568  -6.103 -22.203  0.00  0.00    +0.094 C 
ATOM     22  C   UNL     1      30.616  -6.880 -23.507  0.00  0.00    +0.094 C 
ATOM     23  C   UNL     1      31.407  -4.560 -23.731  0.00  0.00    +0.215 C 
ATOM     24  H   UNL     1      31.598  -5.420 -25.583  0.00  0.00    +0.159 HD
ATOM     25  H   UNL     1      31.380  -3.728 -25.606  0.00  0.00    +0.159 HD
BRANCH  23  26
ATOM     26  N   UNL     1      31.235  -3.445 -23.070  0.00  0.00    -0.101 NA
BRANCH  26  27
ATOM     27  O   UNL     1      30.260  -3.614 -22.084  0.00  0.00    -0.263 OA
ATOM     28  H   UNL     1      30.179  -2.987 -21.392  0.00  0.00    +0.247 HD
ENDBRANCH  26  27
ENDBRANCH  23  26
ENDBRANCH  15  18
ENDBRANCH  12  15
ENDBRANCH   5  13
BRANCH   3  29
ATOM     29  S   UNL     1      35.742 -18.111 -21.829  0.00  0.00    +0.049 S 
ATOM     30  O   UNL     1      36.006 -18.174 -20.407  0.00  0.00    -0.157 OA
ATOM     31  O   UNL     1      36.797 -18.279 -22.806  0.00  0.00    -0.157 OA
BRANCH  29  32
ATOM     32  C   UNL     1      34.459 -19.279 -22.199  0.00  0.00    +0.195 C 
BRANCH  32  33
ATOM     33  C   UNL     1      34.359 -20.229 -21.044  0.00  0.00    +0.003 C 
ATOM     34  C   UNL     1      33.134 -20.422 -20.405  0.00  0.00    -0.003 C 
ATOM     35  C   UNL     1      35.490 -20.919 -20.609  0.00  0.00    -0.003 C 
ATOM     36  C   UNL     1      33.041 -21.306 -19.330  0.00  0.00    -0.000 C 
ATOM     37  C   UNL     1      35.396 -21.802 -19.534  0.00  0.00    -0.000 C 
ATOM     38  C   UNL     1      34.172 -21.996 -18.894  0.00  0.00    -0.000 C 
ENDBRANCH  32  33
ENDBRANCH  29  32
ENDBRANCH   3  29
TORSDOF 8
ENDMDL
MODEL 3
REMARK VINA RESULT:     -11.4      5.511     13.185
REMARK  Name = 5326608
REMARK  8 active torsions:
REMARK  status: ('A' for Active; 'I' for Inactive)
REMARK    1  A    between atoms: N_3  and  S_29
REMARK    2  A    between atoms: C_5  and  C_13
REMARK    3  A    between atoms: N_12  and  C_15
REMARK    4  A    between atoms: C_15  and  C_19
REMARK    5  A    between atoms: N_18  and  C_24
REMARK    6  A    between atoms: N_18  and  O_27
REMARK    7  A    between atoms: S_29  and  C_32
REMARK    8  A    between atoms: C_32  and  C_33
REMARK                            x       y       z     vdW  Elec       q    Type
REMARK                         _______ _______ _______ _____ _____    ______ ____
ROOT
ATOM      1  O   UNL     1      32.333 -20.845 -21.012  0.00  0.00    -0.273 OA
ATOM      2  N   UNL     1      34.466 -20.504 -20.206  0.00  0.00    -0.272 N 
ATOM      3  N   UNL     1      34.316 -17.781 -20.756  0.00  0.00    -0.148 NA
ATOM      4  C   UNL     1      35.604 -19.638 -19.953  0.00  0.00    +0.094 C 
ATOM      5  C   UNL     1      34.781 -21.893 -19.896  0.00  0.00    +0.152 C 
ATOM      6  C   UNL     1      36.795 -20.578 -20.103  0.00  0.00    +0.024 C 
ATOM      7  C   UNL     1      36.267 -21.890 -19.528  0.00  0.00    +0.031 C 
ATOM      8  C   UNL     1      35.634 -18.450 -20.891  0.00  0.00    +0.116 C 
ATOM      9  C   UNL     1      33.283 -20.090 -20.788  0.00  0.00    +0.244 C 
ATOM     10  C   UNL     1      33.198 -18.642 -21.203  0.00  0.00    +0.180 C 
ENDROOT
BRANCH   5  13
ATOM     11  O   UNL     1      32.724 -22.130 -18.712  0.00  0.00    -0.273 OA
ATOM     12  N   UNL     1      34.700 -22.815 -17.689  0.00  0.00    -0.303 N 
ATOM     13  C   UNL     1      33.942 -22.289 -18.721  0.00  0.00    +0.241 C 
ATOM     14  H   UNL     1      35.672 -22.895 -17.815  0.00  0.00    +0.149 HD
BRANCH  12  15
ATOM     15  C   UNL     1      34.130 -23.254 -16.435  0.00  0.00    +0.089 C 
BRANCH  15  18
ATOM     16  N   UNL     1      37.722 -24.497 -14.459  0.00  0.00    -0.279 N 
ATOM     17  N   UNL     1      39.433 -25.192 -15.771  0.00  0.00    -0.370 N 
ATOM     18  C   UNL     1      35.204 -23.426 -15.363  0.00  0.00    +0.023 C 
ATOM     19  C   UNL     1      35.367 -24.905 -14.984  0.00  0.00    +0.023 C 
ATOM     20  C   UNL     1      36.547 -22.852 -15.837  0.00  0.00    +0.023 C 
ATOM     21  C   UNL     1      36.485 -25.096 -13.961  0.00  0.00    +0.094 C 
ATOM     22  C   UNL     1      37.645 -23.079 -14.798  0.00  0.00    +0.094 C 
ATOM     23  C   UNL     1      38.884 -25.187 -14.512  0.00  0.00    +0.215 C 
ATOM     24  H   UNL     1      38.978 -24.725 -16.508  0.00  0.00    +0.159 HD
ATOM     25  H   UNL     1      40.282 -25.663 -15.935  0.00  0.00    +0.159 HD
BRANCH  23  26
ATOM     26  N   UNL     1      39.469 -25.800 -13.517  0.00  0.00    -0.101 NA
BRANCH  26  27
ATOM     27  O   UNL     1      40.709 -26.302 -13.919  0.00  0.00    -0.263 OA
ATOM     28  H   UNL     1      41.223 -25.835 -14.548  0.00  0.00    +0.247 HD
ENDBRANCH  26  27
ENDBRANCH  23  26
ENDBRANCH  15  18
ENDBRANCH  12  15
ENDBRANCH   5  13
BRANCH   3  29
ATOM     29  S   UNL     1      34.246 -16.151 -21.268  0.00  0.00    +0.049 S 
ATOM     30  O   UNL     1      35.038 -15.344 -20.365  0.00  0.00    -0.157 OA
ATOM     31  O   UNL     1      32.873 -15.817 -21.579  0.00  0.00    -0.157 OA
BRANCH  29  32
ATOM     32  C   UNL     1      35.136 -16.294 -22.796  0.00  0.00    +0.195 C 
BRANCH  32  33
ATOM     33  C   UNL     1      34.395 -15.503 -23.832  0.00  0.00    +0.003 C 
ATOM     34  C   UNL     1      33.963 -16.123 -25.005  0.00  0.00    -0.003 C 
ATOM     35  C   UNL     1      34.139 -14.149 -23.623  0.00  0.00    -0.003 C 
ATOM     36  C   UNL     1      33.274 -15.387 -25.968  0.00  0.00    -0.000 C 
ATOM     37  C   UNL     1      33.449 -13.413 -24.587  0.00  0.00    -0.000 C 
ATOM     38  C   UNL     1      33.017 -14.032 -25.760  0.00  0.00    -0.000 C 
ENDBRANCH  32  33
ENDBRANCH  29  32
ENDBRANCH   3  29
TORSDOF 8
ENDMDL
MODEL 4
REMARK VINA RESULT:     -11.3      1.473      2.184
REMARK  Name = 5326608
REMARK  8 active torsions:
REMARK  status: ('A' for Active; 'I' for Inactive)
REMARK    1  A    between atoms: N_3  and  S_29
REMARK    2  A    between atoms: C_5  and  C_13
REMARK    3  A    between atoms: N_12  and  C_15
REMARK    4  A    between atoms: C_15  and  C_19
REMARK    5  A    between atoms: N_18  and  C_24
REMARK    6  A    between atoms: N_18  and  O_27
REMARK    7  A    between atoms: S_29  and  C_32
REMARK    8  A    between atoms: C_32  and  C_33
REMARK                            x       y       z     vdW  Elec       q    Type
REMARK                         _______ _______ _______ _____ _____    ______ ____
ROOT
ATOM      1  O   UNL     1      35.087 -13.845 -21.512  0.00  0.00    -0.273 OA
ATOM      2  N   UNL     1      34.072 -14.619 -23.432  0.00  0.00    -0.272 N 
ATOM      3  N   UNL     1      34.474 -17.263 -22.665  0.00  0.00    -0.148 NA
ATOM      4  C   UNL     1      33.667 -15.709 -24.304  0.00  0.00    +0.094 C 
ATOM      5  C   UNL     1      33.817 -13.325 -24.052  0.00  0.00    +0.152 C 
ATOM      6  C   UNL     1      33.763 -15.093 -25.695  0.00  0.00    +0.024 C 
ATOM      7  C   UNL     1      33.316 -13.652 -25.461  0.00  0.00    +0.031 C 
ATOM      8  C   UNL     1      34.528 -16.939 -24.113  0.00  0.00    +0.116 C 
ATOM      9  C   UNL     1      34.734 -14.784 -22.231  0.00  0.00    +0.244 C 
ATOM     10  C   UNL     1      35.070 -16.199 -21.826  0.00  0.00    +0.180 C 
ENDROOT
BRANCH   5  13
ATOM     11  O   UNL     1      31.878 -13.288 -22.663  0.00  0.00    -0.273 OA
ATOM     12  N   UNL     1      32.862 -11.270 -23.281  0.00  0.00    -0.303 N 
ATOM     13  C   UNL     1      32.748 -12.649 -23.250  0.00  0.00    +0.241 C 
ATOM     14  H   UNL     1      33.606 -10.873 -23.788  0.00  0.00    +0.149 HD
BRANCH  12  15
ATOM     15  C   UNL     1      31.940 -10.386 -22.605  0.00  0.00    +0.089 C 
BRANCH  15  18
ATOM     16  N   UNL     1      31.530  -6.126 -22.801  0.00  0.00    -0.279 N 
ATOM     17  N   UNL     1      30.462  -5.113 -21.080  0.00  0.00    -0.370 N 
ATOM     18  C   UNL     1      32.171  -8.929 -23.000  0.00  0.00    +0.023 C 
ATOM     19  C   UNL     1      30.917  -8.335 -23.657  0.00  0.00    +0.023 C 
ATOM     20  C   UNL     1      32.575  -8.089 -21.780  0.00  0.00    +0.023 C 
ATOM     21  C   UNL     1      31.114  -6.858 -23.995  0.00  0.00    +0.094 C 
ATOM     22  C   UNL     1      32.743  -6.616 -22.151  0.00  0.00    +0.094 C 
ATOM     23  C   UNL     1      30.889  -5.012 -22.381  0.00  0.00    +0.215 C 
ATOM     24  H   UNL     1      30.637  -5.935 -20.567  0.00  0.00    +0.159 HD
ATOM     25  H   UNL     1      29.981  -4.363 -20.660  0.00  0.00    +0.159 HD
BRANCH  23  26
ATOM     26  N   UNL     1      30.669  -3.932 -23.083  0.00  0.00    -0.101 NA
BRANCH  26  27
ATOM     27  O   UNL     1      30.160  -2.919 -22.266  0.00  0.00    -0.263 OA
ATOM     28  H   UNL     1      30.023  -3.077 -21.353  0.00  0.00    +0.247 HD
ENDBRANCH  26  27
ENDBRANCH  23  26
ENDBRANCH  15  18
ENDBRANCH  12  15
ENDBRANCH   5  13
BRANCH   3  29
ATOM     29  S   UNL     1      34.894 -18.865 -22.239  0.00  0.00    +0.049 S 
ATOM     30  O   UNL     1      36.128 -18.839 -21.484  0.00  0.00    -0.157 OA
ATOM     31  O   UNL     1      34.731 -19.714 -23.399  0.00  0.00    -0.157 OA
BRANCH  29  32
ATOM     32  C   UNL     1      33.570 -19.217 -21.112  0.00  0.00    +0.195 C 
BRANCH  32  33
ATOM     33  C   UNL     1      33.995 -20.369 -20.253  0.00  0.00    +0.003 C 
ATOM     34  C   UNL     1      33.035 -21.151 -19.611  0.00  0.00    -0.003 C 
ATOM     35  C   UNL     1      35.350 -20.658 -20.096  0.00  0.00    -0.003 C 
ATOM     36  C   UNL     1      33.431 -22.223 -18.812  0.00  0.00    -0.000 C 
ATOM     37  C   UNL     1      35.745 -21.731 -19.296  0.00  0.00    -0.000 C 
ATOM     38  C   UNL     1      34.786 -22.514 -18.654  0.00  0.00    -0.000 C 
ENDBRANCH  32  33
ENDBRANCH  29  32
ENDBRANCH   3  29
TORSDOF 8
ENDMDL
MODEL 5
REMARK VINA RESULT:     -11.3      5.187     13.193
REMARK  Name = 5326608
REMARK  8 active torsions:
REMARK  status: ('A' for Active; 'I' for Inactive)
REMARK    1  A    between atoms: N_3  and  S_29
REMARK    2  A    between atoms: C_5  and  C_13
REMARK    3  A    between atoms: N_12  and  C_15
REMARK    4  A    between atoms: C_15  and  C_19
REMARK    5  A    between atoms: N_18  and  C_24
REMARK    6  A    between atoms: N_18  and  O_27
REMARK    7  A    between atoms: S_29  and  C_32
REMARK    8  A    between atoms: C_32  and  C_33
REMARK                            x       y       z     vdW  Elec       q    Type
REMARK                         _______ _______ _______ _____ _____    ______ ____
ROOT
ATOM      1  O   UNL     1      32.336 -20.681 -21.000  0.00  0.00    -0.273 OA
ATOM      2  N   UNL     1      34.504 -20.509 -20.238  0.00  0.00    -0.272 N 
ATOM      3  N   UNL     1      34.562 -17.785 -20.795  0.00  0.00    -0.148 NA
ATOM      4  C   UNL     1      35.714 -19.737 -20.011  0.00  0.00    +0.094 C 
ATOM      5  C   UNL     1      34.714 -21.919 -19.929  0.00  0.00    +0.152 C 
ATOM      6  C   UNL     1      36.822 -20.770 -20.182  0.00  0.00    +0.024 C 
ATOM      7  C   UNL     1      36.202 -22.035 -19.591  0.00  0.00    +0.031 C 
ATOM      8  C   UNL     1      35.819 -18.557 -20.954  0.00  0.00    +0.116 C 
ATOM      9  C   UNL     1      33.347 -20.004 -20.797  0.00  0.00    +0.244 C 
ATOM     10  C   UNL     1      33.370 -18.554 -21.216  0.00  0.00    +0.180 C 
ENDROOT
BRANCH   5  13
ATOM     11  O   UNL     1      32.665 -22.006 -18.711  0.00  0.00    -0.273 OA
ATOM     12  N   UNL     1      34.608 -22.805 -17.709  0.00  0.00    -0.303 N 
ATOM     13  C   UNL     1      33.869 -22.244 -18.736  0.00  0.00    +0.241 C 
ATOM     14  H   UNL     1      35.571 -22.950 -17.848  0.00  0.00    +0.149 HD
BRANCH  12  15
ATOM     15  C   UNL     1      34.031 -23.189 -16.440  0.00  0.00    +0.089 C 
BRANCH  15  18
ATOM     16  N   UNL     1      37.614 -24.425 -14.444  0.00  0.00    -0.279 N 
ATOM     17  N   UNL     1      39.322 -25.150 -15.745  0.00  0.00    -0.370 N 
ATOM     18  C   UNL     1      35.103 -23.352 -15.365  0.00  0.00    +0.023 C 
ATOM     19  C   UNL     1      35.258 -24.827 -14.965  0.00  0.00    +0.023 C 
ATOM     20  C   UNL     1      36.450 -22.793 -15.846  0.00  0.00    +0.023 C 
ATOM     21  C   UNL     1      36.374 -25.009 -13.939  0.00  0.00    +0.094 C 
ATOM     22  C   UNL     1      37.546 -23.011 -14.803  0.00  0.00    +0.094 C 
ATOM     23  C   UNL     1      38.772 -25.123 -14.486  0.00  0.00    +0.215 C 
ATOM     24  H   UNL     1      38.870 -24.690 -16.489  0.00  0.00    +0.159 HD
ATOM     25  H   UNL     1      40.168 -25.628 -15.902  0.00  0.00    +0.159 HD
BRANCH  23  26
ATOM     26  N   UNL     1      39.353 -25.725 -13.482  0.00  0.00    -0.101 NA
BRANCH  26  27
ATOM     27  O   UNL     1      40.614 -26.192 -13.861  0.00  0.00    -0.263 OA
ATOM     28  H   UNL     1      41.191 -26.560 -13.221  0.00  0.00    +0.247 HD
ENDBRANCH  26  27
ENDBRANCH  23  26
ENDBRANCH  15  18
ENDBRANCH  12  15
ENDBRANCH   5  13
BRANCH   3  29
ATOM     29  S   UNL     1      34.613 -16.155 -21.312  0.00  0.00    +0.049 S 
ATOM     30  O   UNL     1      35.337 -16.085 -22.563  0.00  0.00    -0.157 OA
ATOM     31  O   UNL     1      34.962 -15.319 -20.184  0.00  0.00    -0.157 OA
BRANCH  29  32
ATOM     32  C   UNL     1      32.891 -15.913 -21.662  0.00  0.00    +0.195 C 
BRANCH  32  33
ATOM     33  C   UNL     1      32.679 -14.452 -21.920  0.00  0.00    +0.003 C 
ATOM     34  C   UNL     1      33.029 -13.905 -23.155  0.00  0.00    -0.003 C 
ATOM     35  C   UNL     1      32.131 -13.641 -20.927  0.00  0.00    -0.003 C 
ATOM     36  C   UNL     1      32.832 -12.545 -23.395  0.00  0.00    -0.000 C 
ATOM     37  C   UNL     1      31.934 -12.281 -21.168  0.00  0.00    -0.000 C 
ATOM     38  C   UNL     1      32.284 -11.733 -22.402  0.00  0.00    -0.000 C 
ENDBRANCH  32  33
ENDBRANCH  29  32
ENDBRANCH   3  29
TORSDOF 8
ENDMDL
MODEL 6
REMARK VINA RESULT:     -11.2      5.254     12.941
REMARK  Name = 5326608
REMARK  8 active torsions:
REMARK  status: ('A' for Active; 'I' for Inactive)
REMARK    1  A    between atoms: N_3  and  S_29
REMARK    2  A    between atoms: C_5  and  C_13
REMARK    3  A    between atoms: N_12  and  C_15
REMARK    4  A    between atoms: C_15  and  C_19
REMARK    5  A    between atoms: N_18  and  C_24
REMARK    6  A    between atoms: N_18  and  O_27
REMARK    7  A    between atoms: S_29  and  C_32
REMARK    8  A    between atoms: C_32  and  C_33
REMARK                            x       y       z     vdW  Elec       q    Type
REMARK                         _______ _______ _______ _____ _____    ______ ____
ROOT
ATOM      1  O   UNL     1      32.335 -20.519 -21.094  0.00  0.00    -0.273 OA
ATOM      2  N   UNL     1      34.527 -20.350 -20.400  0.00  0.00    -0.272 N 
ATOM      3  N   UNL     1      34.533 -17.605 -20.847  0.00  0.00    -0.148 NA
ATOM      4  C   UNL     1      35.734 -19.571 -20.182  0.00  0.00    +0.094 C 
ATOM      5  C   UNL     1      34.764 -21.768 -20.156  0.00  0.00    +0.152 C 
ATOM      6  C   UNL     1      36.848 -20.581 -20.432  0.00  0.00    +0.024 C 
ATOM      7  C   UNL     1      36.264 -21.877 -19.873  0.00  0.00    +0.031 C 
ATOM      8  C   UNL     1      35.793 -18.353 -21.080  0.00  0.00    +0.116 C 
ATOM      9  C   UNL     1      33.345 -19.838 -20.899  0.00  0.00    +0.244 C 
ATOM     10  C   UNL     1      33.336 -18.373 -21.259  0.00  0.00    +0.180 C 
ENDROOT
BRANCH   5  13
ATOM     11  O   UNL     1      32.737 -22.135 -18.954  0.00  0.00    -0.273 OA
ATOM     12  N   UNL     1      34.768 -22.492 -17.875  0.00  0.00    -0.303 N 
ATOM     13  C   UNL     1      33.964 -22.152 -18.949  0.00  0.00    +0.241 C 
ATOM     14  H   UNL     1      35.745 -22.470 -17.994  0.00  0.00    +0.149 HD
BRANCH  12  15
ATOM     15  C   UNL     1      34.241 -22.880 -16.586  0.00  0.00    +0.089 C 
BRANCH  15  18
ATOM     16  N   UNL     1      36.976 -24.015 -13.490  0.00  0.00    -0.279 N 
ATOM     17  N   UNL     1      36.750 -22.982 -11.486  0.00  0.00    -0.370 N 
ATOM     18  C   UNL     1      35.262 -23.683 -15.783  0.00  0.00    +0.023 C 
ATOM     19  C   UNL     1      36.576 -22.903 -15.632  0.00  0.00    +0.023 C 
ATOM     20  C   UNL     1      34.704 -24.048 -14.399  0.00  0.00    +0.023 C 
ATOM     21  C   UNL     1      37.581 -23.668 -14.773  0.00  0.00    +0.094 C 
ATOM     22  C   UNL     1      35.743 -24.794 -13.562  0.00  0.00    +0.094 C 
ATOM     23  C   UNL     1      37.567 -23.714 -12.311  0.00  0.00    +0.215 C 
ATOM     24  H   UNL     1      35.843 -22.737 -11.782  0.00  0.00    +0.159 HD
ATOM     25  H   UNL     1      37.070 -22.702 -10.598  0.00  0.00    +0.159 HD
BRANCH  23  26
ATOM     26  N   UNL     1      38.775 -24.051 -11.941  0.00  0.00    -0.101 NA
BRANCH  26  27
ATOM     27  O   UNL     1      39.472 -22.929 -11.483  0.00  0.00    -0.263 OA
ATOM     28  H   UNL     1      39.844 -22.927 -10.624  0.00  0.00    +0.247 HD
ENDBRANCH  26  27
ENDBRANCH  23  26
ENDBRANCH  15  18
ENDBRANCH  12  15
ENDBRANCH   5  13
BRANCH   3  29
ATOM     29  S   UNL     1      34.546 -15.955 -21.298  0.00  0.00    +0.049 S 
ATOM     30  O   UNL     1      35.213 -15.826 -22.576  0.00  0.00    -0.157 OA
ATOM     31  O   UNL     1      34.938 -15.161 -20.154  0.00  0.00    -0.157 OA
BRANCH  29  32
ATOM     32  C   UNL     1      32.808 -15.717 -21.562  0.00  0.00    +0.195 C 
BRANCH  32  33
ATOM     33  C   UNL     1      32.576 -14.253 -21.780  0.00  0.00    +0.003 C 
ATOM     34  C   UNL     1      32.058 -13.468 -20.748  0.00  0.00    -0.003 C 
ATOM     35  C   UNL     1      32.876 -13.675 -23.012  0.00  0.00    -0.003 C 
ATOM     36  C   UNL     1      31.842 -12.105 -20.951  0.00  0.00    -0.000 C 
ATOM     37  C   UNL     1      32.659 -12.311 -23.214  0.00  0.00    -0.000 C 
ATOM     38  C   UNL     1      32.142 -11.527 -22.183  0.00  0.00    -0.000 C 
ENDBRANCH  32  33
ENDBRANCH  29  32
ENDBRANCH   3  29
TORSDOF 8
ENDMDL
MODEL 7
REMARK VINA RESULT:     -10.9      3.304     11.355
REMARK  Name = 5326608
REMARK  8 active torsions:
REMARK  status: ('A' for Active; 'I' for Inactive)
REMARK    1  A    between atoms: N_3  and  S_29
REMARK    2  A    between atoms: C_5  and  C_13
REMARK    3  A    between atoms: N_12  and  C_15
REMARK    4  A    between atoms: C_15  and  C_19
REMARK    5  A    between atoms: N_18  and  C_24
REMARK    6  A    between atoms: N_18  and  O_27
REMARK    7  A    between atoms: S_29  and  C_32
REMARK    8  A    between atoms: C_32  and  C_33
REMARK                            x       y       z     vdW  Elec       q    Type
REMARK                         _______ _______ _______ _____ _____    ______ ____
ROOT
ATOM      1  O   UNL     1      32.347 -15.659 -21.415  0.00  0.00    -0.273 OA
ATOM      2  N   UNL     1      33.118 -14.694 -23.361  0.00  0.00    -0.272 N 
ATOM      3  N   UNL     1      32.466 -12.151 -22.443  0.00  0.00    -0.148 NA
ATOM      4  C   UNL     1      33.327 -13.531 -24.206  0.00  0.00    +0.094 C 
ATOM      5  C   UNL     1      33.478 -15.923 -24.059  0.00  0.00    +0.152 C 
ATOM      6  C   UNL     1      33.201 -14.098 -25.615  0.00  0.00    +0.024 C 
ATOM      7  C   UNL     1      33.831 -15.483 -25.482  0.00  0.00    +0.031 C 
ATOM      8  C   UNL     1      32.344 -12.421 -23.897  0.00  0.00    +0.116 C 
ATOM      9  C   UNL     1      32.533 -14.657 -22.111  0.00  0.00    +0.244 C 
ATOM     10  C   UNL     1      32.064 -13.311 -21.617  0.00  0.00    +0.180 C 
ENDROOT
BRANCH   5  13
ATOM     11  O   UNL     1      35.640 -15.800 -23.058  0.00  0.00    -0.273 OA
ATOM     12  N   UNL     1      34.554 -17.857 -23.150  0.00  0.00    -0.303 N 
ATOM     13  C   UNL     1      34.675 -16.495 -23.365  0.00  0.00    +0.241 C 
ATOM     14  H   UNL     1      33.729 -18.307 -23.441  0.00  0.00    +0.149 HD
BRANCH  12  15
ATOM     15  C   UNL     1      35.583 -18.651 -22.518  0.00  0.00    +0.089 C 
BRANCH  15  18
ATOM     16  N   UNL     1      34.092 -21.336 -19.531  0.00  0.00    -0.279 N 
ATOM     17  N   UNL     1      34.221 -23.553 -19.981  0.00  0.00    -0.370 N 
ATOM     18  C   UNL     1      35.118 -19.200 -21.171  0.00  0.00    +0.023 C 
ATOM     19  C   UNL     1      33.648 -19.638 -21.236  0.00  0.00    +0.023 C 
ATOM     20  C   UNL     1      36.000 -20.376 -20.725  0.00  0.00    +0.023 C 
ATOM     21  C   UNL     1      33.192 -20.250 -19.912  0.00  0.00    +0.094 C 
ATOM     22  C   UNL     1      35.502 -20.975 -19.410  0.00  0.00    +0.094 C 
ATOM     23  C   UNL     1      33.637 -22.571 -19.219  0.00  0.00    +0.215 C 
ATOM     24  H   UNL     1      34.891 -23.314 -20.662  0.00  0.00    +0.159 HD
ATOM     25  H   UNL     1      33.970 -24.495 -19.845  0.00  0.00    +0.159 HD
BRANCH  23  26
ATOM     26  N   UNL     1      32.745 -22.861 -18.309  0.00  0.00    -0.101 NA
BRANCH  26  27
ATOM     27  O   UNL     1      33.374 -23.229 -17.116  0.00  0.00    -0.263 OA
ATOM     28  H   UNL     1      33.433 -24.133 -16.875  0.00  0.00    +0.247 HD
ENDBRANCH  26  27
ENDBRANCH  23  26
ENDBRANCH  15  18
ENDBRANCH  12  15
ENDBRANCH   5  13
BRANCH   3  29
ATOM     29  S   UNL     1      31.894 -10.628 -21.913  0.00  0.00    +0.049 S 
ATOM     30  O   UNL     1      32.224 -10.467 -20.513  0.00  0.00    -0.157 OA
ATOM     31  O   UNL     1      30.545 -10.441 -22.402  0.00  0.00    -0.157 OA
BRANCH  29  32
ATOM     32  C   UNL     1      32.969  -9.576 -22.853  0.00  0.00    +0.195 C 
BRANCH  32  33
ATOM     33  C   UNL     1      32.404  -8.189 -22.809  0.00  0.00    +0.003 C 
ATOM     34  C   UNL     1      31.717  -7.681 -23.912  0.00  0.00    -0.003 C 
ATOM     35  C   UNL     1      32.565  -7.407 -21.665  0.00  0.00    -0.003 C 
ATOM     36  C   UNL     1      31.191  -6.390 -23.870  0.00  0.00    -0.000 C 
ATOM     37  C   UNL     1      32.038  -6.116 -21.625  0.00  0.00    -0.000 C 
ATOM     38  C   UNL     1      31.352  -5.607 -22.727  0.00  0.00    -0.000 C 
ENDBRANCH  32  33
ENDBRANCH  29  32
ENDBRANCH   3  29
TORSDOF 8
ENDMDL
MODEL 8
REMARK VINA RESULT:     -10.8      3.109     11.310
REMARK  Name = 5326608
REMARK  8 active torsions:
REMARK  status: ('A' for Active; 'I' for Inactive)
REMARK    1  A    between atoms: N_3  and  S_29
REMARK    2  A    between atoms: C_5  and  C_13
REMARK    3  A    between atoms: N_12  and  C_15
REMARK    4  A    between atoms: C_15  and  C_19
REMARK    5  A    between atoms: N_18  and  C_24
REMARK    6  A    between atoms: N_18  and  O_27
REMARK    7  A    between atoms: S_29  and  C_32
REMARK    8  A    between atoms: C_32  and  C_33
REMARK                            x       y       z     vdW  Elec       q    Type
REMARK                         _______ _______ _______ _____ _____    ______ ____
ROOT
ATOM      1  O   UNL     1      32.079 -14.161 -22.285  0.00  0.00    -0.273 OA
ATOM      2  N   UNL     1      33.094 -13.274 -24.155  0.00  0.00    -0.272 N 
ATOM      3  N   UNL     1      33.003 -10.712 -23.078  0.00  0.00    -0.148 NA
ATOM      4  C   UNL     1      33.579 -12.137 -24.919  0.00  0.00    +0.094 C 
ATOM      5  C   UNL     1      33.188 -14.507 -24.928  0.00  0.00    +0.152 C 
ATOM      6  C   UNL     1      33.364 -12.574 -26.363  0.00  0.00    +0.024 C 
ATOM      7  C   UNL     1      33.666 -14.070 -26.315  0.00  0.00    +0.031 C 
ATOM      8  C   UNL     1      32.860 -10.857 -24.548  0.00  0.00    +0.116 C 
ATOM      9  C   UNL     1      32.501 -13.185 -22.911  0.00  0.00    +0.244 C 
ATOM     10  C   UNL     1      32.332 -11.801 -22.334  0.00  0.00    +0.180 C 
ENDROOT
BRANCH   5  13
ATOM     11  O   UNL     1      34.941 -14.948 -23.371  0.00  0.00    -0.273 OA
ATOM     12  N   UNL     1      34.227 -16.658 -24.781  0.00  0.00    -0.303 N 
ATOM     13  C   UNL     1      34.210 -15.375 -24.261  0.00  0.00    +0.241 C 
ATOM     14  H   UNL     1      33.589 -16.883 -25.495  0.00  0.00    +0.149 HD
BRANCH  12  15
ATOM     15  C   UNL     1      35.138 -17.683 -24.324  0.00  0.00    +0.089 C 
BRANCH  15  18
ATOM     16  N   UNL     1      35.114 -19.884 -20.649  0.00  0.00    -0.279 N 
ATOM     17  N   UNL     1      36.694 -21.488 -20.398  0.00  0.00    -0.370 N 
ATOM     18  C   UNL     1      34.866 -18.065 -22.871  0.00  0.00    +0.023 C 
ATOM     19  C   UNL     1      34.049 -19.363 -22.790  0.00  0.00    +0.023 C 
ATOM     20  C   UNL     1      36.181 -18.220 -22.092  0.00  0.00    +0.023 C 
ATOM     21  C   UNL     1      33.830 -19.791 -21.340  0.00  0.00    +0.094 C 
ATOM     22  C   UNL     1      35.923 -18.668 -20.653  0.00  0.00    +0.094 C 
ATOM     23  C   UNL     1      35.486 -20.993 -19.971  0.00  0.00    +0.215 C 
ATOM     24  H   UNL     1      37.182 -21.036 -21.124  0.00  0.00    +0.159 HD
ATOM     25  H   UNL     1      37.071 -22.295 -19.979  0.00  0.00    +0.159 HD
BRANCH  23  26
ATOM     26  N   UNL     1      34.818 -21.576 -19.010  0.00  0.00    -0.101 NA
BRANCH  26  27
ATOM     27  O   UNL     1      34.606 -22.923 -19.316  0.00  0.00    -0.263 OA
ATOM     28  H   UNL     1      33.881 -23.381 -18.940  0.00  0.00    +0.247 HD
ENDBRANCH  26  27
ENDBRANCH  23  26
ENDBRANCH  15  18
ENDBRANCH  12  15
ENDBRANCH   5  13
BRANCH   3  29
ATOM     29  S   UNL     1      32.771  -9.136 -22.455  0.00  0.00    +0.049 S 
ATOM     30  O   UNL     1      33.893  -8.309 -22.847  0.00  0.00    -0.157 OA
ATOM     31  O   UNL     1      32.348  -9.237 -21.075  0.00  0.00    -0.157 OA
BRANCH  29  32
ATOM     32  C   UNL     1      31.368  -8.649 -23.425  0.00  0.00    +0.195 C 
BRANCH  32  33
ATOM     33  C   UNL     1      31.339  -7.152 -23.467  0.00  0.00    +0.003 C 
ATOM     34  C   UNL     1      31.674  -6.481 -24.644  0.00  0.00    -0.003 C 
ATOM     35  C   UNL     1      30.978  -6.429 -22.330  0.00  0.00    -0.003 C 
ATOM     36  C   UNL     1      31.646  -5.087 -24.683  0.00  0.00    -0.000 C 
ATOM     37  C   UNL     1      30.951  -5.035 -22.370  0.00  0.00    -0.000 C 
ATOM     38  C   UNL     1      31.286  -4.364 -23.547  0.00  0.00    -0.000 C 
ENDBRANCH  32  33
ENDBRANCH  29  32
ENDBRANCH   3  29
TORSDOF 8
ENDMDL
MODEL 9
REMARK VINA RESULT:     -10.5      3.434     11.568
REMARK  Name = 5326608
REMARK  8 active torsions:
REMARK  status: ('A' for Active; 'I' for Inactive)
REMARK    1  A    between atoms: N_3  and  S_29
REMARK    2  A    between atoms: C_5  and  C_13
REMARK    3  A    between atoms: N_12  and  C_15
REMARK    4  A    between atoms: C_15  and  C_19
REMARK    5  A    between atoms: N_18  and  C_24
REMARK    6  A    between atoms: N_18  and  O_27
REMARK    7  A    between atoms: S_29  and  C_32
REMARK    8  A    between atoms: C_32  and  C_33
REMARK                            x       y       z     vdW  Elec       q    Type
REMARK                         _______ _______ _______ _____ _____    ______ ____
ROOT
ATOM      1  O   UNL     1      32.209 -15.430 -20.995  0.00  0.00    -0.273 OA
ATOM      2  N   UNL     1      33.083 -14.562 -22.944  0.00  0.00    -0.272 N 
ATOM      3  N   UNL     1      32.441 -11.971 -22.163  0.00  0.00    -0.148 NA
ATOM      4  C   UNL     1      33.351 -13.439 -23.827  0.00  0.00    +0.094 C 
ATOM      5  C   UNL     1      33.449 -15.825 -23.573  0.00  0.00    +0.152 C 
ATOM      6  C   UNL     1      33.275 -14.065 -25.215  0.00  0.00    +0.024 C 
ATOM      7  C   UNL     1      33.872 -15.453 -24.996  0.00  0.00    +0.031 C 
ATOM      8  C   UNL     1      32.377 -12.301 -23.609  0.00  0.00    +0.116 C 
ATOM      9  C   UNL     1      32.445 -14.462 -21.723  0.00  0.00    +0.244 C 
ATOM     10  C   UNL     1      31.980 -13.087 -21.308  0.00  0.00    +0.180 C 
ENDROOT
BRANCH   5  13
ATOM     11  O   UNL     1      35.762 -16.056 -23.039  0.00  0.00    -0.273 OA
ATOM     12  N   UNL     1      34.200 -17.308 -21.851  0.00  0.00    -0.303 N 
ATOM     13  C   UNL     1      34.604 -16.388 -22.804  0.00  0.00    +0.241 C 
ATOM     14  H   UNL     1      33.239 -17.492 -21.754  0.00  0.00    +0.149 HD
BRANCH  12  15
ATOM     15  C   UNL     1      35.125 -18.012 -20.991  0.00  0.00    +0.089 C 
BRANCH  15  18
ATOM     16  N   UNL     1      33.956 -21.916 -19.671  0.00  0.00    -0.279 N 
ATOM     17  N   UNL     1      32.576 -22.028 -17.879  0.00  0.00    -0.370 N 
ATOM     18  C   UNL     1      34.853 -19.514 -20.988  0.00  0.00    +0.023 C 
ATOM     19  C   UNL     1      35.704 -20.222 -19.924  0.00  0.00    +0.023 C 
ATOM     20  C   UNL     1      33.363 -19.800 -20.747  0.00  0.00    +0.023 C 
ATOM     21  C   UNL     1      35.391 -21.716 -19.866  0.00  0.00    +0.094 C 
ATOM     22  C   UNL     1      33.091 -21.302 -20.675  0.00  0.00    +0.094 C 
ATOM     23  C   UNL     1      33.467 -22.696 -18.681  0.00  0.00    +0.215 C 
ATOM     24  H   UNL     1      32.361 -21.085 -18.061  0.00  0.00    +0.159 HD
ATOM     25  H   UNL     1      32.151 -22.492 -17.121  0.00  0.00    +0.159 HD
BRANCH  23  26
ATOM     26  N   UNL     1      33.769 -23.949 -18.459  0.00  0.00    -0.101 NA
BRANCH  26  27
ATOM     27  O   UNL     1      33.797 -24.660 -19.662  0.00  0.00    -0.263 OA
ATOM     28  H   UNL     1      34.612 -24.963 -20.010  0.00  0.00    +0.247 HD
ENDBRANCH  26  27
ENDBRANCH  23  26
ENDBRANCH  15  18
ENDBRANCH  12  15
ENDBRANCH   5  13
BRANCH   3  29
ATOM     29  S   UNL     1      31.875 -10.418 -21.723  0.00  0.00    +0.049 S 
ATOM     30  O   UNL     1      32.218 -10.170 -20.340  0.00  0.00    -0.157 OA
ATOM     31  O   UNL     1      30.521 -10.259 -22.210  0.00  0.00    -0.157 OA
BRANCH  29  32
ATOM     32  C   UNL     1      32.942  -9.428 -22.737  0.00  0.00    +0.195 C 
BRANCH  32  33
ATOM     33  C   UNL     1      32.355  -8.051 -22.811  0.00  0.00    +0.003 C 
ATOM     34  C   UNL     1      31.695  -7.636 -23.968  0.00  0.00    -0.003 C 
ATOM     35  C   UNL     1      32.467  -7.186 -21.723  0.00  0.00    -0.003 C 
ATOM     36  C   UNL     1      31.148  -6.355 -24.037  0.00  0.00    -0.000 C 
ATOM     37  C   UNL     1      31.920  -5.904 -21.793  0.00  0.00    -0.000 C 
ATOM     38  C   UNL     1      31.260  -5.489 -22.950  0.00  0.00    -0.000 C 
ENDBRANCH  32  33
ENDBRANCH  29  32
ENDBRANCH   3  29
TORSDOF 8
ENDMDL
