MODEL 1
REMARK VINA RESULT:      -6.9      0.000      0.000
REMARK  Name = 114683
REMARK  2 active torsions:
REMARK  status: ('A' for Active; 'I' for Inactive)
REMARK    1  A    between atoms: C_7  and  O_11
REMARK    2  A    between atoms: C_8  and  O_13
REMARK                            x       y       z     vdW  Elec       q    Type
REMARK                         _______ _______ _______ _____ _____    ______ ____
ROOT
ATOM      1  N   UNL     1      36.474 -19.021 -21.304  0.00  0.00    -0.311 N 
ATOM      2  C   UNL     1      35.666 -19.904 -20.623  0.00  0.00    +0.052 C 
ATOM      3  C   UNL     1      34.345 -19.587 -20.948  0.00  0.00    +0.018 C 
ATOM      4  C   UNL     1      36.000 -20.947 -19.752  0.00  0.00    +0.054 C 
ATOM      5  C   UNL     1      33.305 -20.347 -20.379  0.00  0.00    +0.041 C 
ATOM      6  C   UNL     1      34.390 -18.484 -21.848  0.00  0.00    +0.017 C 
ATOM      7  C   UNL     1      34.951 -21.688 -19.201  0.00  0.00    +0.169 C 
ATOM      8  C   UNL     1      33.623 -21.395 -19.508  0.00  0.00    +0.168 C 
ATOM      9  C   UNL     1      35.713 -18.160 -22.047  0.00  0.00    +0.062 C 
ATOM     10  H   UNL     1      37.459 -19.011 -21.262  0.00  0.00    +0.152 HD
ENDROOT
BRANCH   7  11
ATOM     11  O   UNL     1      35.246 -22.712 -18.347  0.00  0.00    -0.503 OA
ATOM     12  H   UNL     1      35.685 -23.476 -18.666  0.00  0.00    +0.292 HD
ENDBRANCH   7  11
BRANCH   8  13
ATOM     13  O   UNL     1      32.612 -22.126 -18.958  0.00  0.00    -0.503 OA
ATOM     14  H   UNL     1      32.437 -22.068 -18.039  0.00  0.00    +0.292 HD
ENDBRANCH   8  13
TORSDOF 2
ENDMDL
MODEL 2
REMARK VINA RESULT:      -6.8      0.816      2.115
REMARK  Name = 114683
REMARK  2 active torsions:
REMARK  status: ('A' for Active; 'I' for Inactive)
REMARK    1  A    between atoms: C_7  and  O_11
REMARK    2  A    between atoms: C_8  and  O_13
REMARK                            x       y       z     vdW  Elec       q    Type
REMARK                         _______ _______ _______ _____ _____    ______ ____
ROOT
ATOM      1  N   UNL     1      34.300 -18.398 -21.826  0.00  0.00    -0.311 N 
ATOM      2  C   UNL     1      34.337 -19.481 -20.977  0.00  0.00    +0.052 C 
ATOM      3  C   UNL     1      35.683 -19.757 -20.720  0.00  0.00    +0.018 C 
ATOM      4  C   UNL     1      33.294 -20.230 -20.421  0.00  0.00    +0.054 C 
ATOM      5  C   UNL     1      36.005 -20.831 -19.869  0.00  0.00    +0.041 C 
ATOM      6  C   UNL     1      36.450 -18.801 -21.446  0.00  0.00    +0.017 C 
ATOM      7  C   UNL     1      33.638 -21.291 -19.579  0.00  0.00    +0.169 C 
ATOM      8  C   UNL     1      34.972 -21.589 -19.305  0.00  0.00    +0.168 C 
ATOM      9  C   UNL     1      35.571 -17.980 -22.115  0.00  0.00    +0.062 C 
ATOM     10  H   UNL     1      33.477 -17.984 -22.175  0.00  0.00    +0.152 HD
ENDROOT
BRANCH   7  11
ATOM     11  O   UNL     1      32.641 -22.040 -19.023  0.00  0.00    -0.503 OA
ATOM     12  H   UNL     1      31.754 -21.918 -19.299  0.00  0.00    +0.292 HD
ENDBRANCH   7  11
BRANCH   8  13
ATOM     13  O   UNL     1      35.290 -22.630 -18.483  0.00  0.00    -0.503 OA
ATOM     14  H   UNL     1      35.291 -22.510 -17.554  0.00  0.00    +0.292 HD
ENDBRANCH   8  13
TORSDOF 2
ENDMDL
MODEL 3
REMARK VINA RESULT:      -6.5      2.827      4.365
REMARK  Name = 114683
REMARK  2 active torsions:
REMARK  status: ('A' for Active; 'I' for Inactive)
REMARK    1  A    between atoms: C_7  and  O_11
REMARK    2  A    between atoms: C_8  and  O_13
REMARK                            x       y       z     vdW  Elec       q    Type
REMARK                         _______ _______ _______ _____ _____    ______ ____
ROOT
ATOM      1  N   UNL     1      32.780 -21.755 -19.247  0.00  0.00    -0.311 N 
ATOM      2  C   UNL     1      33.630 -20.891 -19.901  0.00  0.00    +0.052 C 
ATOM      3  C   UNL     1      34.933 -21.264 -19.565  0.00  0.00    +0.018 C 
ATOM      4  C   UNL     1      33.348 -19.819 -20.755  0.00  0.00    +0.054 C 
ATOM      5  C   UNL     1      36.009 -20.534 -20.106  0.00  0.00    +0.041 C 
ATOM      6  C   UNL     1      34.834 -22.381 -18.687  0.00  0.00    +0.017 C 
ATOM      7  C   UNL     1      34.431 -19.110 -21.281  0.00  0.00    +0.169 C 
ATOM      8  C   UNL     1      35.743 -19.459 -20.963  0.00  0.00    +0.168 C 
ATOM      9  C   UNL     1      33.497 -22.659 -18.512  0.00  0.00    +0.062 C 
ATOM     10  H   UNL     1      31.796 -21.726 -19.302  0.00  0.00    +0.152 HD
ENDROOT
BRANCH   7  11
ATOM     11  O   UNL     1      34.186 -18.059 -22.116  0.00  0.00    -0.503 OA
ATOM     12  H   UNL     1      33.751 -18.201 -22.934  0.00  0.00    +0.292 HD
ENDBRANCH   7  11
BRANCH   8  13
ATOM     13  O   UNL     1      36.788 -18.755 -21.482  0.00  0.00    -0.503 OA
ATOM     14  H   UNL     1      37.182 -19.025 -22.288  0.00  0.00    +0.292 HD
ENDBRANCH   8  13
TORSDOF 2
ENDMDL
MODEL 4
REMARK VINA RESULT:      -6.4      4.071      5.286
REMARK  Name = 114683
REMARK  2 active torsions:
REMARK  status: ('A' for Active; 'I' for Inactive)
REMARK    1  A    between atoms: C_7  and  O_11
REMARK    2  A    between atoms: C_8  and  O_13
REMARK                            x       y       z     vdW  Elec       q    Type
REMARK                         _______ _______ _______ _____ _____    ______ ____
ROOT
ATOM      1  N   UNL     1      33.630 -15.011 -24.504  0.00  0.00    -0.311 N 
ATOM      2  C   UNL     1      34.148 -15.677 -23.415  0.00  0.00    +0.052 C 
ATOM      3  C   UNL     1      34.625 -16.907 -23.874  0.00  0.00    +0.018 C 
ATOM      4  C   UNL     1      34.230 -15.289 -22.073  0.00  0.00    +0.054 C 
ATOM      5  C   UNL     1      35.212 -17.795 -22.952  0.00  0.00    +0.041 C 
ATOM      6  C   UNL     1      34.375 -16.955 -25.275  0.00  0.00    +0.017 C 
ATOM      7  C   UNL     1      34.817 -16.185 -21.176  0.00  0.00    +0.169 C 
ATOM      8  C   UNL     1      35.302 -17.420 -21.606  0.00  0.00    +0.168 C 
ATOM      9  C   UNL     1      33.762 -15.775 -25.632  0.00  0.00    +0.062 C 
ATOM     10  H   UNL     1      33.223 -14.114 -24.475  0.00  0.00    +0.152 HD
ENDROOT
BRANCH   7  11
ATOM     11  O   UNL     1      34.910 -15.834 -19.861  0.00  0.00    -0.503 OA
ATOM     12  H   UNL     1      35.069 -14.941 -19.624  0.00  0.00    +0.292 HD
ENDBRANCH   7  11
BRANCH   8  13
ATOM     13  O   UNL     1      35.869 -18.284 -20.717  0.00  0.00    -0.503 OA
ATOM     14  H   UNL     1      36.796 -18.421 -20.723  0.00  0.00    +0.292 HD
ENDBRANCH   8  13
TORSDOF 2
ENDMDL
MODEL 5
REMARK VINA RESULT:      -6.4      5.291      6.605
REMARK  Name = 114683
REMARK  2 active torsions:
REMARK  status: ('A' for Active; 'I' for Inactive)
REMARK    1  A    between atoms: C_7  and  O_11
REMARK    2  A    between atoms: C_8  and  O_13
REMARK                            x       y       z     vdW  Elec       q    Type
REMARK                         _______ _______ _______ _____ _____    ______ ____
ROOT
ATOM      1  N   UNL     1      35.782 -18.330 -23.429  0.00  0.00    -0.311 N 
ATOM      2  C   UNL     1      35.036 -17.270 -23.894  0.00  0.00    +0.052 C 
ATOM      3  C   UNL     1      34.685 -16.497 -22.784  0.00  0.00    +0.018 C 
ATOM      4  C   UNL     1      34.647 -16.941 -25.197  0.00  0.00    +0.054 C 
ATOM      5  C   UNL     1      33.910 -15.338 -22.983  0.00  0.00    +0.041 C 
ATOM      6  C   UNL     1      35.248 -17.130 -21.640  0.00  0.00    +0.017 C 
ATOM      7  C   UNL     1      33.879 -15.786 -25.370  0.00  0.00    +0.169 C 
ATOM      8  C   UNL     1      33.515 -14.995 -24.281  0.00  0.00    +0.168 C 
ATOM      9  C   UNL     1      35.916 -18.254 -22.069  0.00  0.00    +0.062 C 
ATOM     10  H   UNL     1      36.165 -19.040 -23.994  0.00  0.00    +0.152 HD
ENDROOT
BRANCH   7  11
ATOM     11  O   UNL     1      33.485 -15.440 -26.630  0.00  0.00    -0.503 OA
ATOM     12  H   UNL     1      33.253 -16.106 -27.248  0.00  0.00    +0.292 HD
ENDBRANCH   7  11
BRANCH   8  13
ATOM     13  O   UNL     1      32.762 -13.873 -24.467  0.00  0.00    -0.503 OA
ATOM     14  H   UNL     1      32.178 -13.816 -25.197  0.00  0.00    +0.292 HD
ENDBRANCH   8  13
TORSDOF 2
ENDMDL
MODEL 6
REMARK VINA RESULT:      -6.3      5.247      6.541
REMARK  Name = 114683
REMARK  2 active torsions:
REMARK  status: ('A' for Active; 'I' for Inactive)
REMARK    1  A    between atoms: C_7  and  O_11
REMARK    2  A    between atoms: C_8  and  O_13
REMARK                            x       y       z     vdW  Elec       q    Type
REMARK                         _______ _______ _______ _____ _____    ______ ____
ROOT
ATOM      1  N   UNL     1      34.003 -14.468 -21.640  0.00  0.00    -0.311 N 
ATOM      2  C   UNL     1      34.087 -15.206 -22.799  0.00  0.00    +0.052 C 
ATOM      3  C   UNL     1      34.613 -16.454 -22.453  0.00  0.00    +0.018 C 
ATOM      4  C   UNL     1      33.743 -14.870 -24.112  0.00  0.00    +0.054 C 
ATOM      5  C   UNL     1      34.805 -17.414 -23.466  0.00  0.00    +0.041 C 
ATOM      6  C   UNL     1      34.840 -16.436 -21.048  0.00  0.00    +0.017 C 
ATOM      7  C   UNL     1      33.941 -15.838 -25.100  0.00  0.00    +0.169 C 
ATOM      8  C   UNL     1      34.463 -17.092 -24.785  0.00  0.00    +0.168 C 
ATOM      9  C   UNL     1      34.455 -15.201 -20.577  0.00  0.00    +0.062 C 
ATOM     10  H   UNL     1      33.665 -13.543 -21.584  0.00  0.00    +0.152 HD
ENDROOT
BRANCH   7  11
ATOM     11  O   UNL     1      33.614 -15.538 -26.391  0.00  0.00    -0.503 OA
ATOM     12  H   UNL     1      33.255 -16.199 -26.950  0.00  0.00    +0.292 HD
ENDBRANCH   7  11
BRANCH   8  13
ATOM     13  O   UNL     1      34.653 -18.024 -25.762  0.00  0.00    -0.503 OA
ATOM     14  H   UNL     1      35.344 -18.651 -25.684  0.00  0.00    +0.292 HD
ENDBRANCH   8  13
TORSDOF 2
ENDMDL
MODEL 7
REMARK VINA RESULT:      -6.3      5.251      6.293
REMARK  Name = 114683
REMARK  2 active torsions:
REMARK  status: ('A' for Active; 'I' for Inactive)
REMARK    1  A    between atoms: C_7  and  O_11
REMARK    2  A    between atoms: C_8  and  O_13
REMARK                            x       y       z     vdW  Elec       q    Type
REMARK                         _______ _______ _______ _____ _____    ______ ____
ROOT
ATOM      1  N   UNL     1      34.926 -16.504 -21.124  0.00  0.00    -0.311 N 
ATOM      2  C   UNL     1      34.663 -16.466 -22.475  0.00  0.00    +0.052 C 
ATOM      3  C   UNL     1      34.111 -15.212 -22.750  0.00  0.00    +0.018 C 
ATOM      4  C   UNL     1      34.868 -17.434 -23.463  0.00  0.00    +0.054 C 
ATOM      5  C   UNL     1      33.745 -14.909 -24.076  0.00  0.00    +0.041 C 
ATOM      6  C   UNL     1      34.053 -14.502 -21.518  0.00  0.00    +0.017 C 
ATOM      7  C   UNL     1      34.499 -17.110 -24.771  0.00  0.00    +0.169 C 
ATOM      8  C   UNL     1      33.946 -15.868 -25.076  0.00  0.00    +0.168 C 
ATOM      9  C   UNL     1      34.562 -15.322 -20.537  0.00  0.00    +0.062 C 
ATOM     10  H   UNL     1      35.321 -17.271 -20.648  0.00  0.00    +0.152 HD
ENDROOT
BRANCH   7  11
ATOM     11  O   UNL     1      34.686 -18.036 -25.757  0.00  0.00    -0.503 OA
ATOM     12  H   UNL     1      34.973 -17.765 -26.606  0.00  0.00    +0.292 HD
ENDBRANCH   7  11
BRANCH   8  13
ATOM     13  O   UNL     1      33.588 -15.569 -26.358  0.00  0.00    -0.503 OA
ATOM     14  H   UNL     1      32.781 -15.124 -26.528  0.00  0.00    +0.292 HD
ENDBRANCH   8  13
TORSDOF 2
ENDMDL
MODEL 8
REMARK VINA RESULT:      -6.3      4.874      6.244
REMARK  Name = 114683
REMARK  2 active torsions:
REMARK  status: ('A' for Active; 'I' for Inactive)
REMARK    1  A    between atoms: C_7  and  O_11
REMARK    2  A    between atoms: C_8  and  O_13
REMARK                            x       y       z     vdW  Elec       q    Type
REMARK                         _______ _______ _______ _____ _____    ______ ____
ROOT
ATOM      1  N   UNL     1      35.303 -17.424 -21.214  0.00  0.00    -0.311 N 
ATOM      2  C   UNL     1      34.899 -16.835 -22.391  0.00  0.00    +0.052 C 
ATOM      3  C   UNL     1      34.918 -17.828 -23.375  0.00  0.00    +0.018 C 
ATOM      4  C   UNL     1      34.523 -15.514 -22.659  0.00  0.00    +0.054 C 
ATOM      5  C   UNL     1      34.543 -17.488 -24.689  0.00  0.00    +0.041 C 
ATOM      6  C   UNL     1      35.346 -19.031 -22.745  0.00  0.00    +0.017 C 
ATOM      7  C   UNL     1      34.154 -15.201 -23.970  0.00  0.00    +0.169 C 
ATOM      8  C   UNL     1      34.163 -16.171 -24.972  0.00  0.00    +0.168 C 
ATOM      9  C   UNL     1      35.575 -18.750 -21.417  0.00  0.00    +0.062 C 
ATOM     10  H   UNL     1      35.384 -16.957 -20.350  0.00  0.00    +0.152 HD
ENDROOT
BRANCH   7  11
ATOM     11  O   UNL     1      33.783 -13.920 -24.261  0.00  0.00    -0.503 OA
ATOM     12  H   UNL     1      33.631 -13.307 -23.568  0.00  0.00    +0.292 HD
ENDBRANCH   7  11
BRANCH   8  13
ATOM     13  O   UNL     1      33.803 -15.847 -26.246  0.00  0.00    -0.503 OA
ATOM     14  H   UNL     1      33.865 -14.959 -26.540  0.00  0.00    +0.292 HD
ENDBRANCH   8  13
TORSDOF 2
ENDMDL
MODEL 9
REMARK VINA RESULT:      -6.3      3.873      5.002
REMARK  Name = 114683
REMARK  2 active torsions:
REMARK  status: ('A' for Active; 'I' for Inactive)
REMARK    1  A    between atoms: C_7  and  O_11
REMARK    2  A    between atoms: C_8  and  O_13
REMARK                            x       y       z     vdW  Elec       q    Type
REMARK                         _______ _______ _______ _____ _____    ______ ____
ROOT
ATOM      1  N   UNL     1      34.415 -17.126 -25.143  0.00  0.00    -0.311 N 
ATOM      2  C   UNL     1      34.636 -17.004 -23.790  0.00  0.00    +0.052 C 
ATOM      3  C   UNL     1      34.160 -15.748 -23.407  0.00  0.00    +0.018 C 
ATOM      4  C   UNL     1      35.213 -17.901 -22.884  0.00  0.00    +0.054 C 
ATOM      5  C   UNL     1      34.265 -15.365 -22.056  0.00  0.00    +0.041 C 
ATOM      6  C   UNL     1      33.647 -15.121 -24.578  0.00  0.00    +0.017 C 
ATOM      7  C   UNL     1      35.306 -17.500 -21.548  0.00  0.00    +0.169 C 
ATOM      8  C   UNL     1      34.840 -16.252 -21.138  0.00  0.00    +0.168 C 
ATOM      9  C   UNL     1      33.819 -15.994 -25.629  0.00  0.00    +0.062 C 
ATOM     10  H   UNL     1      34.653 -17.914 -25.685  0.00  0.00    +0.152 HD
ENDROOT
BRANCH   7  11
ATOM     11  O   UNL     1      35.866 -18.354 -20.643  0.00  0.00    -0.503 OA
ATOM     12  H   UNL     1      35.929 -18.106 -19.741  0.00  0.00    +0.292 HD
ENDBRANCH   7  11
BRANCH   8  13
ATOM     13  O   UNL     1      34.941 -15.875 -19.831  0.00  0.00    -0.503 OA
ATOM     14  H   UNL     1      34.188 -15.550 -19.377  0.00  0.00    +0.292 HD
ENDBRANCH   8  13
TORSDOF 2
ENDMDL
