MODEL 1
REMARK VINA RESULT:      -8.9      0.000      0.000
REMARK  Name = 33741
REMARK  5 active torsions:
REMARK  status: ('A' for Active; 'I' for Inactive)
REMARK    1  A    between atoms: C_1  and  C_17
REMARK    2  A    between atoms: C_2  and  C_7
REMARK    3  A    between atoms: C_2  and  O_15
REMARK    4  A    between atoms: C_10  and  O_13
REMARK    5  A    between atoms: C_17  and  N_18
REMARK                            x       y       z     vdW  Elec       q    Type
REMARK                         _______ _______ _______ _____ _____    ______ ____
ROOT
ATOM      1  C   UNL     1      34.376 -17.000 -22.380  0.00  0.00    +0.008 C 
ATOM      2  C   UNL     1      35.055 -18.376 -22.662  0.00  0.00    +0.105 C 
ATOM      3  C   UNL     1      34.591 -16.019 -23.550  0.00  0.00    +0.001 C 
ATOM      4  C   UNL     1      34.595 -18.931 -24.032  0.00  0.00    +0.031 C 
ATOM      5  C   UNL     1      34.133 -16.605 -24.882  0.00  0.00    +0.000 C 
ATOM      6  C   UNL     1      34.813 -17.936 -25.173  0.00  0.00    +0.003 C 
ENDROOT
BRANCH   2   7
ATOM      7  C   UNL     1      34.759 -19.399 -21.557  0.00  0.00    +0.005 C 
ATOM      8  C   UNL     1      35.809 -20.061 -20.929  0.00  0.00    +0.035 C 
ATOM      9  C   UNL     1      33.442 -19.656 -21.189  0.00  0.00    -0.002 C 
ATOM     10  C   UNL     1      35.540 -20.990 -19.924  0.00  0.00    +0.138 C 
ATOM     11  C   UNL     1      33.172 -20.584 -20.184  0.00  0.00    +0.003 C 
ATOM     12  C   UNL     1      34.221 -21.251 -19.551  0.00  0.00    +0.037 C 
BRANCH  10  13
ATOM     13  O   UNL     1      36.563 -21.641 -19.305  0.00  0.00    -0.471 OA
ATOM     14  C   UNL     1      36.564 -21.644 -17.879  0.00  0.00    +0.252 C 
ENDBRANCH  10  13
ENDBRANCH   2   7
BRANCH   2  15
ATOM     15  O   UNL     1      36.468 -18.135 -22.757  0.00  0.00    -0.383 OA
ATOM     16  H   UNL     1      36.678 -17.277 -22.356  0.00  0.00    +0.211 HD
ENDBRANCH   2  15
BRANCH   1  17
ATOM     17  C   UNL     1      34.875 -16.339 -21.087  0.00  0.00    -0.075 C 
BRANCH  17  18
ATOM     18  N   UNL     1      33.815 -15.569 -20.463  0.00  0.00    +0.384 N 
ATOM     19  C   UNL     1      32.502 -16.142 -20.772  0.00  0.00    -0.101 C 
ATOM     20  C   UNL     1      33.867 -14.168 -20.891  0.00  0.00    -0.101 C 
ATOM     21  H   UNL     1      33.958 -15.606 -19.453  0.00  0.00    -0.080 HD
ENDBRANCH  17  18
ENDBRANCH   1  17
TORSDOF 5
ENDMDL
MODEL 2
REMARK VINA RESULT:      -8.1      1.399      1.941
REMARK  Name = 33741
REMARK  5 active torsions:
REMARK  status: ('A' for Active; 'I' for Inactive)
REMARK    1  A    between atoms: C_1  and  C_17
REMARK    2  A    between atoms: C_2  and  C_7
REMARK    3  A    between atoms: C_2  and  O_15
REMARK    4  A    between atoms: C_10  and  O_13
REMARK    5  A    between atoms: C_17  and  N_18
REMARK                            x       y       z     vdW  Elec       q    Type
REMARK                         _______ _______ _______ _____ _____    ______ ____
ROOT
ATOM      1  C   UNL     1      34.062 -16.246 -22.551  0.00  0.00    +0.008 C 
ATOM      2  C   UNL     1      35.073 -17.360 -22.966  0.00  0.00    +0.105 C 
ATOM      3  C   UNL     1      33.920 -15.178 -23.653  0.00  0.00    +0.001 C 
ATOM      4  C   UNL     1      34.692 -17.940 -24.351  0.00  0.00    +0.031 C 
ATOM      5  C   UNL     1      33.553 -15.789 -25.001  0.00  0.00    +0.000 C 
ATOM      6  C   UNL     1      34.551 -16.859 -25.423  0.00  0.00    +0.003 C 
ENDROOT
BRANCH   2   7
ATOM      7  C   UNL     1      35.143 -18.487 -21.928  0.00  0.00    +0.005 C 
ATOM      8  C   UNL     1      33.981 -19.157 -21.557  0.00  0.00    +0.035 C 
ATOM      9  C   UNL     1      36.368 -18.834 -21.367  0.00  0.00    -0.002 C 
ATOM     10  C   UNL     1      34.045 -20.183 -20.613  0.00  0.00    +0.138 C 
ATOM     11  C   UNL     1      36.432 -19.860 -20.424  0.00  0.00    +0.003 C 
ATOM     12  C   UNL     1      35.271 -20.534 -20.048  0.00  0.00    +0.037 C 
BRANCH  10  13
ATOM     13  O   UNL     1      32.912 -20.842 -20.246  0.00  0.00    -0.471 OA
ATOM     14  C   UNL     1      33.011 -21.739 -19.142  0.00  0.00    +0.252 C 
ENDBRANCH  10  13
ENDBRANCH   2   7
BRANCH   2  15
ATOM     15  O   UNL     1      36.356 -16.730 -23.112  0.00  0.00    -0.383 OA
ATOM     16  H   UNL     1      36.336 -16.128 -23.873  0.00  0.00    +0.211 HD
ENDBRANCH   2  15
BRANCH   1  17
ATOM     17  C   UNL     1      34.446 -15.550 -21.237  0.00  0.00    -0.075 C 
BRANCH  17  18
ATOM     18  N   UNL     1      33.262 -15.227 -20.463  0.00  0.00    +0.384 N 
ATOM     19  C   UNL     1      32.188 -16.189 -20.726  0.00  0.00    -0.101 C 
ATOM     20  C   UNL     1      32.802 -13.866 -20.756  0.00  0.00    -0.101 C 
ATOM     21  H   UNL     1      33.512 -15.280 -19.475  0.00  0.00    -0.080 HD
ENDBRANCH  17  18
ENDBRANCH   1  17
TORSDOF 5
ENDMDL
MODEL 3
REMARK VINA RESULT:      -7.8      4.300      7.929
REMARK  Name = 33741
REMARK  5 active torsions:
REMARK  status: ('A' for Active; 'I' for Inactive)
REMARK    1  A    between atoms: C_1  and  C_17
REMARK    2  A    between atoms: C_2  and  C_7
REMARK    3  A    between atoms: C_2  and  O_15
REMARK    4  A    between atoms: C_10  and  O_13
REMARK    5  A    between atoms: C_17  and  N_18
REMARK                            x       y       z     vdW  Elec       q    Type
REMARK                         _______ _______ _______ _____ _____    ______ ____
ROOT
ATOM      1  C   UNL     1      34.275 -14.260 -23.709  0.00  0.00    +0.008 C 
ATOM      2  C   UNL     1      33.208 -13.338 -24.378  0.00  0.00    +0.105 C 
ATOM      3  C   UNL     1      34.015 -15.745 -24.034  0.00  0.00    +0.001 C 
ATOM      4  C   UNL     1      33.115 -13.638 -25.895  0.00  0.00    +0.031 C 
ATOM      5  C   UNL     1      33.923 -15.997 -25.535  0.00  0.00    +0.000 C 
ATOM      6  C   UNL     1      32.865 -15.118 -26.188  0.00  0.00    +0.003 C 
ENDROOT
BRANCH   2   7
ATOM      7  C   UNL     1      33.514 -11.851 -24.157  0.00  0.00    +0.005 C 
ATOM      8  C   UNL     1      32.732 -11.108 -23.278  0.00  0.00    +0.035 C 
ATOM      9  C   UNL     1      34.574 -11.256 -24.834  0.00  0.00    -0.002 C 
ATOM     10  C   UNL     1      33.011  -9.757 -23.075  0.00  0.00    +0.138 C 
ATOM     11  C   UNL     1      34.854  -9.905 -24.631  0.00  0.00    +0.003 C 
ATOM     12  C   UNL     1      34.073  -9.156 -23.752  0.00  0.00    +0.037 C 
BRANCH  10  13
ATOM     13  O   UNL     1      32.249  -9.025 -22.216  0.00  0.00    -0.471 OA
ATOM     14  C   UNL     1      31.891  -9.641 -20.981  0.00  0.00    +0.252 C 
ENDBRANCH  10  13
ENDBRANCH   2   7
BRANCH   2  15
ATOM     15  O   UNL     1      31.937 -13.680 -23.803  0.00  0.00    -0.383 OA
ATOM     16  H   UNL     1      31.879 -14.643 -23.696  0.00  0.00    +0.211 HD
ENDBRANCH   2  15
BRANCH   1  17
ATOM     17  C   UNL     1      34.337 -14.093 -22.184  0.00  0.00    -0.075 C 
BRANCH  17  18
ATOM     18  N   UNL     1      33.734 -15.234 -21.520  0.00  0.00    +0.384 N 
ATOM     19  C   UNL     1      32.644 -14.807 -20.637  0.00  0.00    -0.101 C 
ATOM     20  C   UNL     1      34.736 -15.983 -20.756  0.00  0.00    -0.101 C 
ATOM     21  H   UNL     1      33.349 -15.845 -22.240  0.00  0.00    -0.080 HD
ENDBRANCH  17  18
ENDBRANCH   1  17
TORSDOF 5
ENDMDL
MODEL 4
REMARK VINA RESULT:      -7.6      4.778      7.753
REMARK  Name = 33741
REMARK  5 active torsions:
REMARK  status: ('A' for Active; 'I' for Inactive)
REMARK    1  A    between atoms: C_1  and  C_17
REMARK    2  A    between atoms: C_2  and  C_7
REMARK    3  A    between atoms: C_2  and  O_15
REMARK    4  A    between atoms: C_10  and  O_13
REMARK    5  A    between atoms: C_17  and  N_18
REMARK                            x       y       z     vdW  Elec       q    Type
REMARK                         _______ _______ _______ _____ _____    ______ ____
ROOT
ATOM      1  C   UNL     1      32.599 -10.508 -21.902  0.00  0.00    +0.008 C 
ATOM      2  C   UNL     1      31.769 -11.746 -21.440  0.00  0.00    +0.105 C 
ATOM      3  C   UNL     1      31.996  -9.196 -21.364  0.00  0.00    +0.001 C 
ATOM      4  C   UNL     1      31.590 -11.728 -19.901  0.00  0.00    +0.031 C 
ATOM      5  C   UNL     1      31.828  -9.220 -19.849  0.00  0.00    +0.000 C 
ATOM      6  C   UNL     1      30.997 -10.412 -19.395  0.00  0.00    +0.003 C 
ENDROOT
BRANCH   2   7
ATOM      7  C   UNL     1      32.417 -13.067 -21.875  0.00  0.00    +0.005 C 
ATOM      8  C   UNL     1      32.511 -13.377 -23.228  0.00  0.00    +0.035 C 
ATOM      9  C   UNL     1      32.909 -13.945 -20.914  0.00  0.00    -0.002 C 
ATOM     10  C   UNL     1      33.102 -14.578 -23.624  0.00  0.00    +0.138 C 
ATOM     11  C   UNL     1      33.500 -15.145 -21.309  0.00  0.00    +0.003 C 
ATOM     12  C   UNL     1      33.596 -15.461 -22.664  0.00  0.00    +0.037 C 
BRANCH  10  13
ATOM     13  O   UNL     1      33.196 -14.886 -24.946  0.00  0.00    -0.471 OA
ATOM     14  C   UNL     1      33.905 -16.077 -25.286  0.00  0.00    +0.252 C 
ENDBRANCH  10  13
ENDBRANCH   2   7
BRANCH   2  15
ATOM     15  O   UNL     1      30.460 -11.615 -22.018  0.00  0.00    -0.383 OA
ATOM     16  H   UNL     1      30.534 -11.203 -22.894  0.00  0.00    +0.211 HD
ENDBRANCH   2  15
BRANCH   1  17
ATOM     17  C   UNL     1      32.718 -10.405 -23.430  0.00  0.00    -0.075 C 
BRANCH  17  18
ATOM     18  N   UNL     1      34.109 -10.303 -23.830  0.00  0.00    +0.384 N 
ATOM     19  C   UNL     1      34.512  -8.901 -23.966  0.00  0.00    -0.101 C 
ATOM     20  C   UNL     1      34.345 -11.019 -25.087  0.00  0.00    -0.101 C 
ATOM     21  H   UNL     1      34.675 -10.735 -23.099  0.00  0.00    -0.080 HD
ENDBRANCH  17  18
ENDBRANCH   1  17
TORSDOF 5
ENDMDL
MODEL 5
REMARK VINA RESULT:      -7.6      4.355      7.355
REMARK  Name = 33741
REMARK  5 active torsions:
REMARK  status: ('A' for Active; 'I' for Inactive)
REMARK    1  A    between atoms: C_1  and  C_17
REMARK    2  A    between atoms: C_2  and  C_7
REMARK    3  A    between atoms: C_2  and  O_15
REMARK    4  A    between atoms: C_10  and  O_13
REMARK    5  A    between atoms: C_17  and  N_18
REMARK                            x       y       z     vdW  Elec       q    Type
REMARK                         _______ _______ _______ _____ _____    ______ ____
ROOT
ATOM      1  C   UNL     1      32.603 -10.483 -21.904  0.00  0.00    +0.008 C 
ATOM      2  C   UNL     1      31.810 -11.760 -21.482  0.00  0.00    +0.105 C 
ATOM      3  C   UNL     1      31.959  -9.207 -21.325  0.00  0.00    +0.001 C 
ATOM      4  C   UNL     1      31.630 -11.796 -19.944  0.00  0.00    +0.031 C 
ATOM      5  C   UNL     1      31.792  -9.285 -19.811  0.00  0.00    +0.000 C 
ATOM      6  C   UNL     1      30.997 -10.516 -19.396  0.00  0.00    +0.003 C 
ENDROOT
BRANCH   2   7
ATOM      7  C   UNL     1      32.499 -13.045 -21.958  0.00  0.00    +0.005 C 
ATOM      8  C   UNL     1      33.201 -13.831 -21.049  0.00  0.00    +0.035 C 
ATOM      9  C   UNL     1      32.415 -13.419 -23.296  0.00  0.00    -0.002 C 
ATOM     10  C   UNL     1      33.826 -15.000 -21.482  0.00  0.00    +0.138 C 
ATOM     11  C   UNL     1      33.040 -14.589 -23.729  0.00  0.00    +0.003 C 
ATOM     12  C   UNL     1      33.745 -15.379 -22.821  0.00  0.00    +0.037 C 
BRANCH  10  13
ATOM     13  O   UNL     1      34.515 -15.772 -20.596  0.00  0.00    -0.471 OA
ATOM     14  C   UNL     1      34.994 -17.030 -21.067  0.00  0.00    +0.252 C 
ENDBRANCH  10  13
ENDBRANCH   2   7
BRANCH   2  15
ATOM     15  O   UNL     1      30.499 -11.650 -22.058  0.00  0.00    -0.383 OA
ATOM     16  H   UNL     1      30.502 -10.962 -22.742  0.00  0.00    +0.211 HD
ENDBRANCH   2  15
BRANCH   1  17
ATOM     17  C   UNL     1      32.718 -10.328 -23.427  0.00  0.00    -0.075 C 
BRANCH  17  18
ATOM     18  N   UNL     1      34.111 -10.273 -23.832  0.00  0.00    +0.384 N 
ATOM     19  C   UNL     1      34.554  -8.885 -23.992  0.00  0.00    -0.101 C 
ATOM     20  C   UNL     1      34.322 -11.015 -25.078  0.00  0.00    -0.101 C 
ATOM     21  H   UNL     1      34.666 -10.709 -23.096  0.00  0.00    -0.080 HD
ENDBRANCH  17  18
ENDBRANCH   1  17
TORSDOF 5
ENDMDL
MODEL 6
REMARK VINA RESULT:      -7.5      3.600      7.519
REMARK  Name = 33741
REMARK  5 active torsions:
REMARK  status: ('A' for Active; 'I' for Inactive)
REMARK    1  A    between atoms: C_1  and  C_17
REMARK    2  A    between atoms: C_2  and  C_7
REMARK    3  A    between atoms: C_2  and  O_15
REMARK    4  A    between atoms: C_10  and  O_13
REMARK    5  A    between atoms: C_17  and  N_18
REMARK                            x       y       z     vdW  Elec       q    Type
REMARK                         _______ _______ _______ _____ _____    ______ ____
ROOT
ATOM      1  C   UNL     1      33.672 -15.713 -22.695  0.00  0.00    +0.008 C 
ATOM      2  C   UNL     1      33.622 -14.156 -22.806  0.00  0.00    +0.105 C 
ATOM      3  C   UNL     1      33.636 -16.171 -21.223  0.00  0.00    +0.001 C 
ATOM      4  C   UNL     1      32.415 -13.601 -22.009  0.00  0.00    +0.031 C 
ATOM      5  C   UNL     1      32.439 -15.597 -20.472  0.00  0.00    +0.000 C 
ATOM      6  C   UNL     1      32.401 -14.077 -20.556  0.00  0.00    +0.003 C 
ENDROOT
BRANCH   2   7
ATOM      7  C   UNL     1      33.546 -13.687 -24.264  0.00  0.00    +0.005 C 
ATOM      8  C   UNL     1      34.130 -12.479 -24.632  0.00  0.00    +0.035 C 
ATOM      9  C   UNL     1      32.896 -14.474 -25.210  0.00  0.00    -0.002 C 
ATOM     10  C   UNL     1      34.062 -12.053 -25.959  0.00  0.00    +0.138 C 
ATOM     11  C   UNL     1      32.829 -14.048 -26.537  0.00  0.00    +0.003 C 
ATOM     12  C   UNL     1      33.412 -12.838 -26.911  0.00  0.00    +0.037 C 
BRANCH  10  13
ATOM     13  O   UNL     1      34.631 -10.871 -26.324  0.00  0.00    -0.471 OA
ATOM     14  C   UNL     1      35.329 -10.146 -25.313  0.00  0.00    +0.252 C 
ENDBRANCH  10  13
ENDBRANCH   2   7
BRANCH   2  15
ATOM     15  O   UNL     1      34.811 -13.652 -22.176  0.00  0.00    -0.383 OA
ATOM     16  H   UNL     1      34.756 -13.797 -21.218  0.00  0.00    +0.211 HD
ENDBRANCH   2  15
BRANCH   1  17
ATOM     17  C   UNL     1      34.910 -16.320 -23.370  0.00  0.00    -0.075 C 
BRANCH  17  18
ATOM     18  N   UNL     1      34.675 -17.710 -23.715  0.00  0.00    +0.384 N 
ATOM     19  C   UNL     1      35.757 -18.563 -23.215  0.00  0.00    -0.101 C 
ATOM     20  C   UNL     1      34.538 -17.871 -25.166  0.00  0.00    -0.101 C 
ATOM     21  H   UNL     1      33.802 -17.997 -23.272  0.00  0.00    -0.080 HD
ENDBRANCH  17  18
ENDBRANCH   1  17
TORSDOF 5
ENDMDL
MODEL 7
REMARK VINA RESULT:      -7.4      6.575      9.771
REMARK  Name = 33741
REMARK  5 active torsions:
REMARK  status: ('A' for Active; 'I' for Inactive)
REMARK    1  A    between atoms: C_1  and  C_17
REMARK    2  A    between atoms: C_2  and  C_7
REMARK    3  A    between atoms: C_2  and  O_15
REMARK    4  A    between atoms: C_10  and  O_13
REMARK    5  A    between atoms: C_17  and  N_18
REMARK                            x       y       z     vdW  Elec       q    Type
REMARK                         _______ _______ _______ _____ _____    ______ ____
ROOT
ATOM      1  C   UNL     1      34.563 -23.247 -15.280  0.00  0.00    +0.008 C 
ATOM      2  C   UNL     1      34.697 -24.354 -14.188  0.00  0.00    +0.105 C 
ATOM      3  C   UNL     1      33.164 -23.265 -15.928  0.00  0.00    +0.001 C 
ATOM      4  C   UNL     1      33.537 -24.244 -13.168  0.00  0.00    +0.031 C 
ATOM      5  C   UNL     1      32.050 -23.163 -14.890  0.00  0.00    +0.000 C 
ATOM      6  C   UNL     1      32.162 -24.258 -13.838  0.00  0.00    +0.003 C 
ENDROOT
BRANCH   2   7
ATOM      7  C   UNL     1      36.045 -24.279 -13.459  0.00  0.00    +0.005 C 
ATOM      8  C   UNL     1      37.031 -25.223 -13.731  0.00  0.00    +0.035 C 
ATOM      9  C   UNL     1      36.272 -23.268 -12.531  0.00  0.00    -0.002 C 
ATOM     10  C   UNL     1      38.256 -25.154 -13.067  0.00  0.00    +0.138 C 
ATOM     11  C   UNL     1      37.498 -23.198 -11.869  0.00  0.00    +0.003 C 
ATOM     12  C   UNL     1      38.490 -24.141 -12.137  0.00  0.00    +0.037 C 
BRANCH  10  13
ATOM     13  O   UNL     1      39.225 -26.075 -13.330  0.00  0.00    -0.471 OA
ATOM     14  C   UNL     1      40.226 -25.711 -14.279  0.00  0.00    +0.252 C 
ENDBRANCH  10  13
ENDBRANCH   2   7
BRANCH   2  15
ATOM     15  O   UNL     1      34.556 -25.619 -14.854  0.00  0.00    -0.383 OA
ATOM     16  H   UNL     1      35.303 -26.193 -14.621  0.00  0.00    +0.211 HD
ENDBRANCH   2  15
BRANCH   1  17
ATOM     17  C   UNL     1      35.619 -23.368 -16.388  0.00  0.00    -0.075 C 
BRANCH  17  18
ATOM     18  N   UNL     1      36.298 -22.102 -16.590  0.00  0.00    +0.384 N 
ATOM     19  C   UNL     1      36.387 -21.778 -18.017  0.00  0.00    -0.101 C 
ATOM     20  C   UNL     1      37.637 -22.127 -15.995  0.00  0.00    -0.101 C 
ATOM     21  H   UNL     1      35.749 -21.378 -16.125  0.00  0.00    -0.080 HD
ENDBRANCH  17  18
ENDBRANCH   1  17
TORSDOF 5
ENDMDL
MODEL 8
REMARK VINA RESULT:      -7.2      8.836     13.171
REMARK  Name = 33741
REMARK  5 active torsions:
REMARK  status: ('A' for Active; 'I' for Inactive)
REMARK    1  A    between atoms: C_1  and  C_17
REMARK    2  A    between atoms: C_2  and  C_7
REMARK    3  A    between atoms: C_2  and  O_15
REMARK    4  A    between atoms: C_10  and  O_13
REMARK    5  A    between atoms: C_17  and  N_18
REMARK                            x       y       z     vdW  Elec       q    Type
REMARK                         _______ _______ _______ _____ _____    ______ ____
ROOT
ATOM      1  C   UNL     1      32.155  -8.638 -22.831  0.00  0.00    +0.008 C 
ATOM      2  C   UNL     1      32.897  -7.282 -22.616  0.00  0.00    +0.105 C 
ATOM      3  C   UNL     1      32.298  -9.556 -21.601  0.00  0.00    +0.001 C 
ATOM      4  C   UNL     1      32.439  -6.624 -21.291  0.00  0.00    +0.031 C 
ATOM      5  C   UNL     1      31.844  -8.870 -20.317  0.00  0.00    +0.000 C 
ATOM      6  C   UNL     1      32.584  -7.559 -20.089  0.00  0.00    +0.003 C 
ENDROOT
BRANCH   2   7
ATOM      7  C   UNL     1      32.674  -6.314 -23.785  0.00  0.00    +0.005 C 
ATOM      8  C   UNL     1      31.567  -5.470 -23.781  0.00  0.00    +0.035 C 
ATOM      9  C   UNL     1      33.580  -6.285 -24.840  0.00  0.00    -0.002 C 
ATOM     10  C   UNL     1      31.364  -4.590 -24.844  0.00  0.00    +0.138 C 
ATOM     11  C   UNL     1      33.378  -5.404 -25.903  0.00  0.00    +0.003 C 
ATOM     12  C   UNL     1      32.270  -4.556 -25.904  0.00  0.00    +0.037 C 
BRANCH  10  13
ATOM     13  O   UNL     1      30.283  -3.762 -24.846  0.00  0.00    -0.471 OA
ATOM     14  C   UNL     1      30.492  -2.423 -25.291  0.00  0.00    +0.252 C 
ENDBRANCH  10  13
ENDBRANCH   2   7
BRANCH   2  15
ATOM     15  O   UNL     1      34.294  -7.585 -22.475  0.00  0.00    -0.383 OA
ATOM     16  H   UNL     1      34.815  -6.973 -23.019  0.00  0.00    +0.211 HD
ENDBRANCH   2  15
BRANCH   1  17
ATOM     17  C   UNL     1      32.646  -9.398 -24.072  0.00  0.00    -0.075 C 
BRANCH  17  18
ATOM     18  N   UNL     1      33.821 -10.189 -23.755  0.00  0.00    +0.384 N 
ATOM     19  C   UNL     1      34.968  -9.768 -24.565  0.00  0.00    -0.101 C 
ATOM     20  C   UNL     1      33.558 -11.617 -23.959  0.00  0.00    -0.101 C 
ATOM     21  H   UNL     1      34.043 -10.037 -22.771  0.00  0.00    -0.080 HD
ENDBRANCH  17  18
ENDBRANCH   1  17
TORSDOF 5
ENDMDL
MODEL 9
REMARK VINA RESULT:      -7.1      4.712      8.985
REMARK  Name = 33741
REMARK  5 active torsions:
REMARK  status: ('A' for Active; 'I' for Inactive)
REMARK    1  A    between atoms: C_1  and  C_17
REMARK    2  A    between atoms: C_2  and  C_7
REMARK    3  A    between atoms: C_2  and  O_15
REMARK    4  A    between atoms: C_10  and  O_13
REMARK    5  A    between atoms: C_17  and  N_18
REMARK                            x       y       z     vdW  Elec       q    Type
REMARK                         _______ _______ _______ _____ _____    ______ ____
ROOT
ATOM      1  C   UNL     1      34.395 -23.554 -14.279  0.00  0.00    +0.008 C 
ATOM      2  C   UNL     1      35.533 -23.680 -15.340  0.00  0.00    +0.105 C 
ATOM      3  C   UNL     1      34.840 -24.111 -12.911  0.00  0.00    +0.001 C 
ATOM      4  C   UNL     1      36.839 -23.043 -14.803  0.00  0.00    +0.031 C 
ATOM      5  C   UNL     1      36.133 -23.465 -12.422  0.00  0.00    +0.000 C 
ATOM      6  C   UNL     1      37.253 -23.608 -13.444  0.00  0.00    +0.003 C 
ENDROOT
BRANCH   2   7
ATOM      7  C   UNL     1      35.146 -23.032 -16.675  0.00  0.00    +0.005 C 
ATOM      8  C   UNL     1      36.054 -22.208 -17.333  0.00  0.00    +0.035 C 
ATOM      9  C   UNL     1      33.889 -23.274 -17.222  0.00  0.00    -0.002 C 
ATOM     10  C   UNL     1      35.702 -21.619 -18.548  0.00  0.00    +0.138 C 
ATOM     11  C   UNL     1      33.537 -22.686 -18.437  0.00  0.00    +0.003 C 
ATOM     12  C   UNL     1      34.444 -21.859 -19.099  0.00  0.00    +0.037 C 
BRANCH  10  13
ATOM     13  O   UNL     1      36.588 -20.812 -19.195  0.00  0.00    -0.471 OA
ATOM     14  C   UNL     1      36.152 -20.221 -20.418  0.00  0.00    +0.252 C 
ENDBRANCH  10  13
ENDBRANCH   2   7
BRANCH   2  15
ATOM     15  O   UNL     1      35.789 -25.082 -15.517  0.00  0.00    -0.383 OA
ATOM     16  H   UNL     1      34.984 -25.520 -15.836  0.00  0.00    +0.211 HD
ENDBRANCH   2  15
BRANCH   1  17
ATOM     17  C   UNL     1      33.102 -24.266 -14.702  0.00  0.00    -0.075 C 
BRANCH  17  18
ATOM     18  N   UNL     1      31.978 -23.798 -13.912  0.00  0.00    +0.384 N 
ATOM     19  C   UNL     1      31.068 -24.901 -13.594  0.00  0.00    -0.101 C 
ATOM     20  C   UNL     1      31.254 -22.735 -14.615  0.00  0.00    -0.101 C 
ATOM     21  H   UNL     1      32.347 -23.418 -13.041  0.00  0.00    -0.080 HD
ENDBRANCH  17  18
ENDBRANCH   1  17
TORSDOF 5
ENDMDL
