MODEL 1
REMARK VINA RESULT:      -6.2      0.000      0.000
REMARK  Name = 676454
REMARK  3 active torsions:
REMARK  status: ('A' for Active; 'I' for Inactive)
REMARK    1  A    between atoms: N_1  and  C_3
REMARK    2  A    between atoms: N_1  and  C_10
REMARK    3  A    between atoms: C_10  and  N_11
REMARK                            x       y       z     vdW  Elec       q    Type
REMARK                         _______ _______ _______ _____ _____    ______ ____
ROOT
ATOM      1  N   UNL     1      35.758 -18.523 -21.702  0.00  0.00    -0.296 N 
ATOM      2  H   UNL     1      36.733 -18.660 -21.711  0.00  0.00    +0.154 HD
ENDROOT
BRANCH   1   3
ATOM      3  C   UNL     1      35.051 -19.497 -20.997  0.00  0.00    +0.050 C 
ATOM      4  C   UNL     1      35.738 -20.489 -20.299  0.00  0.00    +0.015 C 
ATOM      5  C   UNL     1      33.656 -19.477 -20.991  0.00  0.00    +0.015 C 
ATOM      6  C   UNL     1      35.030 -21.463 -19.594  0.00  0.00    +0.001 C 
ATOM      7  C   UNL     1      32.949 -20.451 -20.286  0.00  0.00    +0.001 C 
ATOM      8  C   UNL     1      33.636 -21.444 -19.588  0.00  0.00    +0.000 C 
ENDBRANCH   1   3
BRANCH   1  10
ATOM      9  S   UNL     1      34.680 -16.089 -21.580  0.00  0.00    -0.019 S 
ATOM     10  C   UNL     1      35.341 -17.399 -22.395  0.00  0.00    +0.132 C 
BRANCH  10  11
ATOM     11  N   UNL     1      35.523 -17.340 -23.743  0.00  0.00    -0.340 N 
ATOM     12  H   UNL     1      36.252 -17.850 -24.163  0.00  0.00    +0.144 HD
ATOM     13  H   UNL     1      34.925 -16.787 -24.296  0.00  0.00    +0.144 HD
ENDBRANCH  10  11
ENDBRANCH   1  10
TORSDOF 3
ENDMDL
MODEL 2
REMARK VINA RESULT:      -6.1      0.181      1.538
REMARK  Name = 676454
REMARK  3 active torsions:
REMARK  status: ('A' for Active; 'I' for Inactive)
REMARK    1  A    between atoms: N_1  and  C_3
REMARK    2  A    between atoms: N_1  and  C_10
REMARK    3  A    between atoms: C_10  and  N_11
REMARK                            x       y       z     vdW  Elec       q    Type
REMARK                         _______ _______ _______ _____ _____    ______ ____
ROOT
ATOM      1  N   UNL     1      35.770 -18.611 -21.720  0.00  0.00    -0.296 N 
ATOM      2  H   UNL     1      36.714 -18.826 -21.901  0.00  0.00    +0.154 HD
ENDROOT
BRANCH   1   3
ATOM      3  C   UNL     1      35.093 -19.586 -20.987  0.00  0.00    +0.050 C 
ATOM      4  C   UNL     1      33.699 -19.598 -20.963  0.00  0.00    +0.015 C 
ATOM      5  C   UNL     1      35.813 -20.548 -20.278  0.00  0.00    +0.015 C 
ATOM      6  C   UNL     1      33.024 -20.573 -20.229  0.00  0.00    +0.001 C 
ATOM      7  C   UNL     1      35.137 -21.522 -19.544  0.00  0.00    +0.001 C 
ATOM      8  C   UNL     1      33.742 -21.535 -19.519  0.00  0.00    +0.000 C 
ENDBRANCH   1   3
BRANCH   1  10
ATOM      9  S   UNL     1      34.715 -16.211 -21.246  0.00  0.00    -0.019 S 
ATOM     10  C   UNL     1      35.360 -17.396 -22.243  0.00  0.00    +0.132 C 
BRANCH  10  11
ATOM     11  N   UNL     1      35.535 -17.148 -23.570  0.00  0.00    -0.340 N 
ATOM     12  H   UNL     1      34.901 -17.515 -24.227  0.00  0.00    +0.144 HD
ATOM     13  H   UNL     1      36.295 -16.601 -23.871  0.00  0.00    +0.144 HD
ENDBRANCH  10  11
ENDBRANCH   1  10
TORSDOF 3
ENDMDL
MODEL 3
REMARK VINA RESULT:      -6.1      1.464      2.058
REMARK  Name = 676454
REMARK  3 active torsions:
REMARK  status: ('A' for Active; 'I' for Inactive)
REMARK    1  A    between atoms: N_1  and  C_3
REMARK    2  A    between atoms: N_1  and  C_10
REMARK    3  A    between atoms: C_10  and  N_11
REMARK                            x       y       z     vdW  Elec       q    Type
REMARK                         _______ _______ _______ _____ _____    ______ ____
ROOT
ATOM      1  N   UNL     1      34.526 -18.123 -21.802  0.00  0.00    -0.296 N 
ATOM      2  H   UNL     1      34.158 -17.337 -21.337  0.00  0.00    +0.154 HD
ENDROOT
BRANCH   1   3
ATOM      3  C   UNL     1      34.509 -19.293 -21.042  0.00  0.00    +0.050 C 
ATOM      4  C   UNL     1      33.293 -19.845 -20.638  0.00  0.00    +0.015 C 
ATOM      5  C   UNL     1      35.709 -19.910 -20.687  0.00  0.00    +0.015 C 
ATOM      6  C   UNL     1      33.278 -21.015 -19.878  0.00  0.00    +0.001 C 
ATOM      7  C   UNL     1      35.692 -21.079 -19.927  0.00  0.00    +0.001 C 
ATOM      8  C   UNL     1      34.476 -21.632 -19.522  0.00  0.00    +0.000 C 
ENDBRANCH   1   3
BRANCH   1  10
ATOM      9  S   UNL     1      34.684 -18.957 -24.327  0.00  0.00    -0.019 S 
ATOM     10  C   UNL     1      34.968 -17.863 -23.087  0.00  0.00    +0.132 C 
BRANCH  10  11
ATOM     11  N   UNL     1      35.589 -16.680 -23.353  0.00  0.00    -0.340 N 
ATOM     12  H   UNL     1      36.539 -16.670 -23.609  0.00  0.00    +0.144 HD
ATOM     13  H   UNL     1      35.086 -15.837 -23.290  0.00  0.00    +0.144 HD
ENDBRANCH  10  11
ENDBRANCH   1  10
TORSDOF 3
ENDMDL
MODEL 4
REMARK VINA RESULT:      -5.9      4.376      5.463
REMARK  Name = 676454
REMARK  3 active torsions:
REMARK  status: ('A' for Active; 'I' for Inactive)
REMARK    1  A    between atoms: N_1  and  C_3
REMARK    2  A    between atoms: N_1  and  C_10
REMARK    3  A    between atoms: C_10  and  N_11
REMARK                            x       y       z     vdW  Elec       q    Type
REMARK                         _______ _______ _______ _____ _____    ______ ____
ROOT
ATOM      1  N   UNL     1      33.427 -22.955 -18.574  0.00  0.00    -0.296 N 
ATOM      2  H   UNL     1      33.119 -23.719 -19.114  0.00  0.00    +0.154 HD
ENDROOT
BRANCH   1   3
ATOM      3  C   UNL     1      33.940 -21.897 -19.324  0.00  0.00    +0.050 C 
ATOM      4  C   UNL     1      35.318 -21.764 -19.492  0.00  0.00    +0.015 C 
ATOM      5  C   UNL     1      33.073 -20.970 -19.904  0.00  0.00    +0.015 C 
ATOM      6  C   UNL     1      35.829 -20.704 -20.241  0.00  0.00    +0.001 C 
ATOM      7  C   UNL     1      33.585 -19.911 -20.653  0.00  0.00    +0.001 C 
ATOM      8  C   UNL     1      34.963 -19.778 -20.822  0.00  0.00    +0.000 C 
ENDBRANCH   1   3
BRANCH   1  10
ATOM      9  S   UNL     1      31.742 -23.162 -16.520  0.00  0.00    -0.019 S 
ATOM     10  C   UNL     1      33.271 -23.131 -17.210  0.00  0.00    +0.132 C 
BRANCH  10  11
ATOM     11  N   UNL     1      34.371 -23.336 -16.434  0.00  0.00    -0.340 N 
ATOM     12  H   UNL     1      34.491 -24.194 -15.967  0.00  0.00    +0.144 HD
ATOM     13  H   UNL     1      35.046 -22.626 -16.340  0.00  0.00    +0.144 HD
ENDBRANCH  10  11
ENDBRANCH   1  10
TORSDOF 3
ENDMDL
MODEL 5
REMARK VINA RESULT:      -5.7      1.612      2.377
REMARK  Name = 676454
REMARK  3 active torsions:
REMARK  status: ('A' for Active; 'I' for Inactive)
REMARK    1  A    between atoms: N_1  and  C_3
REMARK    2  A    between atoms: N_1  and  C_10
REMARK    3  A    between atoms: C_10  and  N_11
REMARK                            x       y       z     vdW  Elec       q    Type
REMARK                         _______ _______ _______ _____ _____    ______ ____
ROOT
ATOM      1  N   UNL     1      34.950 -17.216 -22.148  0.00  0.00    -0.296 N 
ATOM      2  H   UNL     1      35.129 -17.304 -23.112  0.00  0.00    +0.154 HD
ENDROOT
BRANCH   1   3
ATOM      3  C   UNL     1      35.028 -18.417 -21.442  0.00  0.00    +0.050 C 
ATOM      4  C   UNL     1      33.866 -19.127 -21.143  0.00  0.00    +0.015 C 
ATOM      5  C   UNL     1      36.270 -18.906 -21.036  0.00  0.00    +0.015 C 
ATOM      6  C   UNL     1      33.945 -20.327 -20.437  0.00  0.00    +0.001 C 
ATOM      7  C   UNL     1      36.348 -20.105 -20.329  0.00  0.00    +0.001 C 
ATOM      8  C   UNL     1      35.186 -20.817 -20.029  0.00  0.00    +0.000 C 
ENDBRANCH   1   3
BRANCH   1  10
ATOM      9  S   UNL     1      34.310 -14.732 -22.870  0.00  0.00    -0.019 S 
ATOM     10  C   UNL     1      34.665 -15.923 -21.743  0.00  0.00    +0.132 C 
BRANCH  10  11
ATOM     11  N   UNL     1      34.621 -15.635 -20.413  0.00  0.00    -0.340 N 
ATOM     12  H   UNL     1      34.575 -16.364 -19.753  0.00  0.00    +0.144 HD
ATOM     13  H   UNL     1      34.634 -14.698 -20.112  0.00  0.00    +0.144 HD
ENDBRANCH  10  11
ENDBRANCH   1  10
TORSDOF 3
ENDMDL
MODEL 6
REMARK VINA RESULT:      -5.7      2.678      4.459
REMARK  Name = 676454
REMARK  3 active torsions:
REMARK  status: ('A' for Active; 'I' for Inactive)
REMARK    1  A    between atoms: N_1  and  C_3
REMARK    2  A    between atoms: N_1  and  C_10
REMARK    3  A    between atoms: C_10  and  N_11
REMARK                            x       y       z     vdW  Elec       q    Type
REMARK                         _______ _______ _______ _____ _____    ______ ____
ROOT
ATOM      1  N   UNL     1      34.897 -19.425 -20.577  0.00  0.00    -0.296 N 
ATOM      2  H   UNL     1      35.544 -19.104 -19.907  0.00  0.00    +0.154 HD
ENDROOT
BRANCH   1   3
ATOM      3  C   UNL     1      34.898 -18.695 -21.766  0.00  0.00    +0.050 C 
ATOM      4  C   UNL     1      34.800 -19.356 -22.990  0.00  0.00    +0.015 C 
ATOM      5  C   UNL     1      34.999 -17.304 -21.729  0.00  0.00    +0.015 C 
ATOM      6  C   UNL     1      34.803 -18.625 -24.178  0.00  0.00    +0.001 C 
ATOM      7  C   UNL     1      35.002 -16.574 -22.917  0.00  0.00    +0.001 C 
ATOM      8  C   UNL     1      34.904 -17.234 -24.142  0.00  0.00    +0.000 C 
ENDBRANCH   1   3
BRANCH   1  10
ATOM      9  S   UNL     1      34.895 -21.832 -19.436  0.00  0.00    -0.019 S 
ATOM     10  C   UNL     1      34.152 -20.516 -20.163  0.00  0.00    +0.132 C 
BRANCH  10  11
ATOM     11  N   UNL     1      32.797 -20.490 -20.301  0.00  0.00    -0.340 N 
ATOM     12  H   UNL     1      32.250 -19.958 -19.680  0.00  0.00    +0.144 HD
ATOM     13  H   UNL     1      32.367 -21.003 -21.022  0.00  0.00    +0.144 HD
ENDBRANCH  10  11
ENDBRANCH   1  10
TORSDOF 3
ENDMDL
MODEL 7
REMARK VINA RESULT:      -5.7      3.149      4.424
REMARK  Name = 676454
REMARK  3 active torsions:
REMARK  status: ('A' for Active; 'I' for Inactive)
REMARK    1  A    between atoms: N_1  and  C_3
REMARK    2  A    between atoms: N_1  and  C_10
REMARK    3  A    between atoms: C_10  and  N_11
REMARK                            x       y       z     vdW  Elec       q    Type
REMARK                         _______ _______ _______ _____ _____    ______ ____
ROOT
ATOM      1  N   UNL     1      34.894 -15.149 -22.899  0.00  0.00    -0.296 N 
ATOM      2  H   UNL     1      35.772 -14.867 -22.551  0.00  0.00    +0.154 HD
ENDROOT
BRANCH   1   3
ATOM      3  C   UNL     1      34.853 -16.474 -23.334  0.00  0.00    +0.050 C 
ATOM      4  C   UNL     1      34.484 -16.768 -24.646  0.00  0.00    +0.015 C 
ATOM      5  C   UNL     1      35.182 -17.505 -22.453  0.00  0.00    +0.015 C 
ATOM      6  C   UNL     1      34.443 -18.093 -25.078  0.00  0.00    +0.001 C 
ATOM      7  C   UNL     1      35.140 -18.830 -22.886  0.00  0.00    +0.001 C 
ATOM      8  C   UNL     1      34.771 -19.125 -24.199  0.00  0.00    +0.000 C 
ENDBRANCH   1   3
BRANCH   1  10
ATOM      9  S   UNL     1      32.584 -14.303 -21.877  0.00  0.00    -0.019 S 
ATOM     10  C   UNL     1      33.930 -14.157 -22.868  0.00  0.00    +0.132 C 
BRANCH  10  11
ATOM     11  N   UNL     1      34.109 -13.029 -23.610  0.00  0.00    -0.340 N 
ATOM     12  H   UNL     1      34.998 -12.610 -23.663  0.00  0.00    +0.144 HD
ATOM     13  H   UNL     1      33.349 -12.633 -24.094  0.00  0.00    +0.144 HD
ENDBRANCH  10  11
ENDBRANCH   1  10
TORSDOF 3
ENDMDL
MODEL 8
REMARK VINA RESULT:      -5.7      2.357      4.574
REMARK  Name = 676454
REMARK  3 active torsions:
REMARK  status: ('A' for Active; 'I' for Inactive)
REMARK    1  A    between atoms: N_1  and  C_3
REMARK    2  A    between atoms: N_1  and  C_10
REMARK    3  A    between atoms: C_10  and  N_11
REMARK                            x       y       z     vdW  Elec       q    Type
REMARK                         _______ _______ _______ _____ _____    ______ ____
ROOT
ATOM      1  N   UNL     1      35.231 -18.814 -21.255  0.00  0.00    -0.296 N 
ATOM      2  H   UNL     1      35.802 -18.265 -20.671  0.00  0.00    +0.154 HD
ENDROOT
BRANCH   1   3
ATOM      3  C   UNL     1      35.022 -18.269 -22.523  0.00  0.00    +0.050 C 
ATOM      4  C   UNL     1      35.088 -16.889 -22.709  0.00  0.00    +0.015 C 
ATOM      5  C   UNL     1      34.746 -19.107 -23.604  0.00  0.00    +0.015 C 
ATOM      6  C   UNL     1      34.879 -16.346 -23.976  0.00  0.00    +0.001 C 
ATOM      7  C   UNL     1      34.536 -18.563 -24.870  0.00  0.00    +0.001 C 
ATOM      8  C   UNL     1      34.603 -17.182 -25.057  0.00  0.00    +0.000 C 
ENDBRANCH   1   3
BRANCH   1  10
ATOM      9  S   UNL     1      33.139 -20.274 -20.488  0.00  0.00    -0.019 S 
ATOM     10  C   UNL     1      34.781 -19.984 -20.667  0.00  0.00    +0.132 C 
BRANCH  10  11
ATOM     11  N   UNL     1      35.685 -20.928 -20.284  0.00  0.00    -0.340 N 
ATOM     12  H   UNL     1      35.713 -21.797 -20.744  0.00  0.00    +0.144 HD
ATOM     13  H   UNL     1      36.309 -20.739 -19.548  0.00  0.00    +0.144 HD
ENDBRANCH  10  11
ENDBRANCH   1  10
TORSDOF 3
ENDMDL
MODEL 9
REMARK VINA RESULT:      -5.6      3.083      4.176
REMARK  Name = 676454
REMARK  3 active torsions:
REMARK  status: ('A' for Active; 'I' for Inactive)
REMARK    1  A    between atoms: N_1  and  C_3
REMARK    2  A    between atoms: N_1  and  C_10
REMARK    3  A    between atoms: C_10  and  N_11
REMARK                            x       y       z     vdW  Elec       q    Type
REMARK                         _______ _______ _______ _____ _____    ______ ____
ROOT
ATOM      1  N   UNL     1      34.787 -15.374 -22.601  0.00  0.00    -0.296 N 
ATOM      2  H   UNL     1      35.572 -15.216 -22.027  0.00  0.00    +0.154 HD
ENDROOT
BRANCH   1   3
ATOM      3  C   UNL     1      34.754 -16.640 -23.186  0.00  0.00    +0.050 C 
ATOM      4  C   UNL     1      34.938 -17.778 -22.401  0.00  0.00    +0.015 C 
ATOM      5  C   UNL     1      34.538 -16.767 -24.559  0.00  0.00    +0.015 C 
ATOM      6  C   UNL     1      34.906 -19.043 -22.988  0.00  0.00    +0.001 C 
ATOM      7  C   UNL     1      34.507 -18.032 -25.145  0.00  0.00    +0.001 C 
ATOM      8  C   UNL     1      34.691 -19.170 -24.360  0.00  0.00    +0.000 C 
ENDBRANCH   1   3
BRANCH   1  10
ATOM      9  S   UNL     1      32.553 -14.231 -21.707  0.00  0.00    -0.019 S 
ATOM     10  C   UNL     1      33.919 -14.299 -22.678  0.00  0.00    +0.132 C 
BRANCH  10  11
ATOM     11  N   UNL     1      34.213 -13.263 -23.511  0.00  0.00    -0.340 N 
ATOM     12  H   UNL     1      34.598 -13.440 -24.400  0.00  0.00    +0.144 HD
ATOM     13  H   UNL     1      34.041 -12.337 -23.225  0.00  0.00    +0.144 HD
ENDBRANCH  10  11
ENDBRANCH   1  10
TORSDOF 3
ENDMDL
