MODEL 1
REMARK VINA RESULT:      -3.7      0.000      0.000
REMARK  Name = 439846
REMARK  3 active torsions:
REMARK  status: ('A' for Active; 'I' for Inactive)
REMARK    1  A    between atoms: C_1  and  O_3
REMARK    2  A    between atoms: C_1  and  C_5
REMARK    3  A    between atoms: C_5  and  O_6
REMARK                            x       y       z     vdW  Elec       q    Type
REMARK                         _______ _______ _______ _____ _____    ______ ____
ROOT
ATOM      1  C   UNL     1      41.094 -14.835 -15.217  0.00  0.00    +0.140 C 
ATOM      2  C   UNL     1      41.311 -14.582 -16.700  0.00  0.00    +0.034 C 
ENDROOT
BRANCH   1   3
ATOM      3  O   UNL     1      40.114 -15.860 -15.061  0.00  0.00    -0.382 OA
ATOM      4  H   UNL     1      40.178 -16.236 -14.170  0.00  0.00    +0.210 HD
ENDBRANCH   1   3
BRANCH   1   5
ATOM      5  C   UNL     1      40.592 -13.584 -14.506  0.00  0.00    +0.166 C 
BRANCH   5   6
ATOM      6  O   UNL     1      40.937 -13.666 -13.126  0.00  0.00    -0.379 OA
ATOM      7  H   UNL     1      41.134 -14.587 -12.896  0.00  0.00    +0.211 HD
ENDBRANCH   5   6
ENDBRANCH   1   5
TORSDOF 3
ENDMDL
MODEL 2
REMARK VINA RESULT:      -3.7     11.491     11.892
REMARK  Name = 439846
REMARK  3 active torsions:
REMARK  status: ('A' for Active; 'I' for Inactive)
REMARK    1  A    between atoms: C_1  and  O_3
REMARK    2  A    between atoms: C_1  and  C_5
REMARK    3  A    between atoms: C_5  and  O_6
REMARK                            x       y       z     vdW  Elec       q    Type
REMARK                         _______ _______ _______ _____ _____    ______ ____
ROOT
ATOM      1  C   UNL     1      38.731 -25.824 -14.397  0.00  0.00    +0.140 C 
ATOM      2  C   UNL     1      38.400 -25.470 -12.955  0.00  0.00    +0.034 C 
ENDROOT
BRANCH   1   3
ATOM      3  O   UNL     1      38.321 -27.167 -14.648  0.00  0.00    -0.382 OA
ATOM      4  H   UNL     1      39.047 -27.654 -15.068  0.00  0.00    +0.210 HD
ENDBRANCH   1   3
BRANCH   1   5
ATOM      5  C   UNL     1      40.226 -25.724 -14.667  0.00  0.00    +0.166 C 
BRANCH   5   6
ATOM      6  O   UNL     1      40.465 -25.973 -16.049  0.00  0.00    -0.379 OA
ATOM      7  H   UNL     1      41.229 -25.454 -16.344  0.00  0.00    +0.211 HD
ENDBRANCH   5   6
ENDBRANCH   1   5
TORSDOF 3
ENDMDL
MODEL 3
REMARK VINA RESULT:      -3.5     10.187     10.796
REMARK  Name = 439846
REMARK  3 active torsions:
REMARK  status: ('A' for Active; 'I' for Inactive)
REMARK    1  A    between atoms: C_1  and  O_3
REMARK    2  A    between atoms: C_1  and  C_5
REMARK    3  A    between atoms: C_5  and  O_6
REMARK                            x       y       z     vdW  Elec       q    Type
REMARK                         _______ _______ _______ _____ _____    ______ ____
ROOT
ATOM      1  C   UNL     1      36.944 -23.433 -11.926  0.00  0.00    +0.140 C 
ATOM      2  C   UNL     1      38.153 -24.315 -12.192  0.00  0.00    +0.034 C 
ENDROOT
BRANCH   1   3
ATOM      3  O   UNL     1      37.345 -22.330 -11.115  0.00  0.00    -0.382 OA
ATOM      4  H   UNL     1      36.572 -21.969 -10.654  0.00  0.00    +0.210 HD
ENDBRANCH   1   3
BRANCH   1   5
ATOM      5  C   UNL     1      35.850 -24.194 -11.189  0.00  0.00    +0.166 C 
BRANCH   5   6
ATOM      6  O   UNL     1      36.134 -24.177  -9.793  0.00  0.00    -0.379 OA
ATOM      7  H   UNL     1      36.949 -24.673  -9.623  0.00  0.00    +0.211 HD
ENDBRANCH   5   6
ENDBRANCH   1   5
TORSDOF 3
ENDMDL
MODEL 4
REMARK VINA RESULT:      -3.5     14.956     15.475
REMARK  Name = 439846
REMARK  3 active torsions:
REMARK  status: ('A' for Active; 'I' for Inactive)
REMARK    1  A    between atoms: C_1  and  O_3
REMARK    2  A    between atoms: C_1  and  C_5
REMARK    3  A    between atoms: C_5  and  O_6
REMARK                            x       y       z     vdW  Elec       q    Type
REMARK                         _______ _______ _______ _____ _____    ______ ____
ROOT
ATOM      1  C   UNL     1      28.190 -23.443 -16.312  0.00  0.00    +0.140 C 
ATOM      2  C   UNL     1      29.621 -22.952 -16.453  0.00  0.00    +0.034 C 
ENDROOT
BRANCH   1   3
ATOM      3  O   UNL     1      27.780 -24.034 -17.545  0.00  0.00    -0.382 OA
ATOM      4  H   UNL     1      27.976 -24.983 -17.529  0.00  0.00    +0.210 HD
ENDBRANCH   1   3
BRANCH   1   5
ATOM      5  C   UNL     1      27.236 -22.298 -15.993  0.00  0.00    +0.166 C 
BRANCH   5   6
ATOM      6  O   UNL     1      27.131 -21.452 -17.134  0.00  0.00    -0.379 OA
ATOM      7  H   UNL     1      26.204 -21.403 -17.416  0.00  0.00    +0.211 HD
ENDBRANCH   5   6
ENDBRANCH   1   5
TORSDOF 3
ENDMDL
MODEL 5
REMARK VINA RESULT:      -3.5     11.655     12.509
REMARK  Name = 439846
REMARK  3 active torsions:
REMARK  status: ('A' for Active; 'I' for Inactive)
REMARK    1  A    between atoms: C_1  and  O_3
REMARK    2  A    between atoms: C_1  and  C_5
REMARK    3  A    between atoms: C_5  and  O_6
REMARK                            x       y       z     vdW  Elec       q    Type
REMARK                         _______ _______ _______ _____ _____    ______ ____
ROOT
ATOM      1  C   UNL     1      38.101 -26.424 -14.502  0.00  0.00    +0.140 C 
ATOM      2  C   UNL     1      38.114 -25.498 -13.297  0.00  0.00    +0.034 C 
ENDROOT
BRANCH   1   3
ATOM      3  O   UNL     1      39.022 -25.931 -15.474  0.00  0.00    -0.382 OA
ATOM      4  H   UNL     1      38.690 -26.127 -16.364  0.00  0.00    +0.210 HD
ENDBRANCH   1   3
BRANCH   1   5
ATOM      5  C   UNL     1      36.720 -26.487 -15.143  0.00  0.00    +0.166 C 
BRANCH   5   6
ATOM      6  O   UNL     1      36.790 -27.290 -16.317  0.00  0.00    -0.379 OA
ATOM      7  H   UNL     1      35.936 -27.726 -16.461  0.00  0.00    +0.211 HD
ENDBRANCH   5   6
ENDBRANCH   1   5
TORSDOF 3
ENDMDL
MODEL 6
REMARK VINA RESULT:      -3.4      1.758      2.565
REMARK  Name = 439846
REMARK  3 active torsions:
REMARK  status: ('A' for Active; 'I' for Inactive)
REMARK    1  A    between atoms: C_1  and  O_3
REMARK    2  A    between atoms: C_1  and  C_5
REMARK    3  A    between atoms: C_5  and  O_6
REMARK                            x       y       z     vdW  Elec       q    Type
REMARK                         _______ _______ _______ _____ _____    ______ ____
ROOT
ATOM      1  C   UNL     1      40.951 -14.825 -15.761  0.00  0.00    +0.140 C 
ATOM      2  C   UNL     1      42.025 -13.795 -16.070  0.00  0.00    +0.034 C 
ENDROOT
BRANCH   1   3
ATOM      3  O   UNL     1      40.497 -14.633 -14.423  0.00  0.00    -0.382 OA
ATOM      4  H   UNL     1      40.980 -13.896 -14.020  0.00  0.00    +0.210 HD
ENDBRANCH   1   3
BRANCH   1   5
ATOM      5  C   UNL     1      41.489 -16.245 -15.883  0.00  0.00    +0.166 C 
BRANCH   5   6
ATOM      6  O   UNL     1      42.890 -16.190 -16.131  0.00  0.00    -0.379 OA
ATOM      7  H   UNL     1      43.288 -17.053 -15.938  0.00  0.00    +0.211 HD
ENDBRANCH   5   6
ENDBRANCH   1   5
TORSDOF 3
ENDMDL
MODEL 7
REMARK VINA RESULT:      -3.4      1.199      1.428
REMARK  Name = 439846
REMARK  3 active torsions:
REMARK  status: ('A' for Active; 'I' for Inactive)
REMARK    1  A    between atoms: C_1  and  O_3
REMARK    2  A    between atoms: C_1  and  C_5
REMARK    3  A    between atoms: C_5  and  O_6
REMARK                            x       y       z     vdW  Elec       q    Type
REMARK                         _______ _______ _______ _____ _____    ______ ____
ROOT
ATOM      1  C   UNL     1      41.615 -14.899 -16.527  0.00  0.00    +0.140 C 
ATOM      2  C   UNL     1      41.212 -14.324 -17.876  0.00  0.00    +0.034 C 
ENDROOT
BRANCH   1   3
ATOM      3  O   UNL     1      40.949 -16.146 -16.339  0.00  0.00    -0.382 OA
ATOM      4  H   UNL     1      40.673 -16.499 -17.199  0.00  0.00    +0.210 HD
ENDBRANCH   1   3
BRANCH   1   5
ATOM      5  C   UNL     1      41.221 -13.971 -15.385  0.00  0.00    +0.166 C 
BRANCH   5   6
ATOM      6  O   UNL     1      40.465 -14.709 -14.430  0.00  0.00    -0.379 OA
ATOM      7  H   UNL     1      39.518 -14.571 -14.590  0.00  0.00    +0.211 HD
ENDBRANCH   5   6
ENDBRANCH   1   5
TORSDOF 3
ENDMDL
MODEL 8
REMARK VINA RESULT:      -3.3     11.860     12.482
REMARK  Name = 439846
REMARK  3 active torsions:
REMARK  status: ('A' for Active; 'I' for Inactive)
REMARK    1  A    between atoms: C_1  and  O_3
REMARK    2  A    between atoms: C_1  and  C_5
REMARK    3  A    between atoms: C_5  and  O_6
REMARK                            x       y       z     vdW  Elec       q    Type
REMARK                         _______ _______ _______ _____ _____    ______ ____
ROOT
ATOM      1  C   UNL     1      37.310 -25.901 -13.364  0.00  0.00    +0.140 C 
ATOM      2  C   UNL     1      38.763 -25.478 -13.218  0.00  0.00    +0.034 C 
ENDROOT
BRANCH   1   3
ATOM      3  O   UNL     1      36.872 -26.480 -12.136  0.00  0.00    -0.382 OA
ATOM      4  H   UNL     1      35.924 -26.314 -12.020  0.00  0.00    +0.210 HD
ENDBRANCH   1   3
BRANCH   1   5
ATOM      5  C   UNL     1      37.139 -26.937 -14.467  0.00  0.00    +0.166 C 
BRANCH   5   6
ATOM      6  O   UNL     1      37.563 -26.371 -15.704  0.00  0.00    -0.379 OA
ATOM      7  H   UNL     1      38.325 -26.868 -16.042  0.00  0.00    +0.211 HD
ENDBRANCH   5   6
ENDBRANCH   1   5
TORSDOF 3
ENDMDL
MODEL 9
REMARK VINA RESULT:      -3.3     11.433     12.376
REMARK  Name = 439846
REMARK  3 active torsions:
REMARK  status: ('A' for Active; 'I' for Inactive)
REMARK    1  A    between atoms: C_1  and  O_3
REMARK    2  A    between atoms: C_1  and  C_5
REMARK    3  A    between atoms: C_5  and  O_6
REMARK                            x       y       z     vdW  Elec       q    Type
REMARK                         _______ _______ _______ _____ _____    ______ ____
ROOT
ATOM      1  C   UNL     1      34.908 -16.704 -25.024  0.00  0.00    +0.140 C 
ATOM      2  C   UNL     1      34.480 -18.152 -24.843  0.00  0.00    +0.034 C 
ENDROOT
BRANCH   1   3
ATOM      3  O   UNL     1      35.619 -16.283 -23.861  0.00  0.00    -0.382 OA
ATOM      4  H   UNL     1      36.471 -16.743 -23.819  0.00  0.00    +0.210 HD
ENDBRANCH   1   3
BRANCH   1   5
ATOM      5  C   UNL     1      33.706 -15.786 -25.206  0.00  0.00    +0.166 C 
BRANCH   5   6
ATOM      6  O   UNL     1      33.612 -15.412 -26.577  0.00  0.00    -0.379 OA
ATOM      7  H   UNL     1      33.851 -14.477 -26.675  0.00  0.00    +0.211 HD
ENDBRANCH   5   6
ENDBRANCH   1   5
TORSDOF 3
ENDMDL
