MODEL 1
REMARK VINA RESULT:      -7.1      0.000      0.000
REMARK  Name = 388136
REMARK  2 active torsions:
REMARK  status: ('A' for Active; 'I' for Inactive)
REMARK    1  A    between atoms: C_5  and  C_14
REMARK    2  A    between atoms: C_6  and  O_15
REMARK                            x       y       z     vdW  Elec       q    Type
REMARK                         _______ _______ _______ _____ _____    ______ ____
ROOT
ATOM      1 CL   UNL     1      32.497 -19.835 -21.050  0.00  0.00    -0.078 Cl
ATOM      2 CL   UNL     1      34.342 -23.325 -17.230  0.00  0.00    -0.074 Cl
ATOM      3  O   UNL     1      32.367 -21.903 -18.945  0.00  0.00    -0.285 OA
ATOM      4  N   UNL     1      36.133 -20.727 -19.655  0.00  0.00    -0.324 N 
ATOM      5  C   UNL     1      35.122 -20.139 -20.391  0.00  0.00    +0.092 A 
ATOM      6  C   UNL     1      35.913 -21.688 -18.700  0.00  0.00    +0.217 A 
ATOM      7  C   UNL     1      33.836 -20.497 -20.195  0.00  0.00    +0.112 A 
ATOM      8  C   UNL     1      34.677 -22.126 -18.415  0.00  0.00    +0.148 A 
ATOM      9  C   UNL     1      33.519 -21.543 -19.164  0.00  0.00    +0.222 A 
ATOM     10  H   UNL     1      37.060 -20.441 -19.823  0.00  0.00    +0.169 HD
ENDROOT
BRANCH   5  14
ATOM     11 CL   UNL     1      37.358 -19.074 -21.386  0.00  0.00    -0.077 Cl
ATOM     12 CL   UNL     1      34.985 -19.544 -23.006  0.00  0.00    -0.077 Cl
ATOM     13 CL   UNL     1      34.943 -17.515 -20.927  0.00  0.00    -0.077 Cl
ATOM     14  C   UNL     1      35.582 -19.109 -21.387  0.00  0.00    +0.232 C 
ENDBRANCH   5  14
BRANCH   6  15
ATOM     15  O   UNL     1      37.015 -22.191 -18.039  0.00  0.00    -0.457 OA
ATOM     16  C   UNL     1      37.224 -21.508 -16.818  0.00  0.00    +0.254 C 
ENDBRANCH   6  15
TORSDOF 2
ENDMDL
MODEL 2
REMARK VINA RESULT:      -6.8      5.550      7.971
REMARK  Name = 388136
REMARK  2 active torsions:
REMARK  status: ('A' for Active; 'I' for Inactive)
REMARK    1  A    between atoms: C_5  and  C_14
REMARK    2  A    between atoms: C_6  and  O_15
REMARK                            x       y       z     vdW  Elec       q    Type
REMARK                         _______ _______ _______ _____ _____    ______ ____
ROOT
ATOM      1 CL   UNL     1      37.619 -23.619 -15.186  0.00  0.00    -0.078 Cl
ATOM      2 CL   UNL     1      32.281 -23.165 -16.401  0.00  0.00    -0.074 Cl
ATOM      3  O   UNL     1      35.223 -23.174 -16.855  0.00  0.00    -0.285 OA
ATOM      4  N   UNL     1      34.264 -23.951 -13.042  0.00  0.00    -0.324 N 
ATOM      5  C   UNL     1      35.604 -23.929 -13.380  0.00  0.00    +0.092 A 
ATOM      6  C   UNL     1      33.253 -23.723 -13.941  0.00  0.00    +0.217 A 
ATOM      7  C   UNL     1      35.985 -23.673 -14.649  0.00  0.00    +0.112 A 
ATOM      8  C   UNL     1      33.506 -23.458 -15.232  0.00  0.00    +0.148 A 
ATOM      9  C   UNL     1      34.931 -23.413 -15.688  0.00  0.00    +0.222 A 
ATOM     10  H   UNL     1      34.022 -24.140 -12.106  0.00  0.00    +0.169 HD
ENDROOT
BRANCH   5  14
ATOM     11 CL   UNL     1      35.593 -24.513 -10.776  0.00  0.00    -0.077 Cl
ATOM     12 CL   UNL     1      37.539 -25.632 -12.629  0.00  0.00    -0.077 Cl
ATOM     13 CL   UNL     1      37.605 -22.798 -11.994  0.00  0.00    -0.077 Cl
ATOM     14  C   UNL     1      36.549 -24.206 -12.242  0.00  0.00    +0.232 C 
ENDBRANCH   5  14
BRANCH   6  15
ATOM     15  O   UNL     1      31.958 -23.777 -13.467  0.00  0.00    -0.457 OA
ATOM     16  C   UNL     1      31.429 -25.082 -13.597  0.00  0.00    +0.254 C 
ENDBRANCH   6  15
TORSDOF 2
ENDMDL
MODEL 3
REMARK VINA RESULT:      -6.8      5.179      7.563
REMARK  Name = 388136
REMARK  2 active torsions:
REMARK  status: ('A' for Active; 'I' for Inactive)
REMARK    1  A    between atoms: C_5  and  C_14
REMARK    2  A    between atoms: C_6  and  O_15
REMARK                            x       y       z     vdW  Elec       q    Type
REMARK                         _______ _______ _______ _____ _____    ______ ____
ROOT
ATOM      1 CL   UNL     1      34.739 -16.248 -20.409  0.00  0.00    -0.078 Cl
ATOM      2 CL   UNL     1      33.502 -13.063 -24.711  0.00  0.00    -0.074 Cl
ATOM      3  O   UNL     1      33.986 -13.791 -21.865  0.00  0.00    -0.285 OA
ATOM      4  N   UNL     1      34.466 -16.906 -24.341  0.00  0.00    -0.324 N 
ATOM      5  C   UNL     1      34.665 -17.117 -22.990  0.00  0.00    +0.092 A 
ATOM      6  C   UNL     1      34.116 -15.690 -24.873  0.00  0.00    +0.217 A 
ATOM      7  C   UNL     1      34.518 -16.104 -22.110  0.00  0.00    +0.112 A 
ATOM      8  C   UNL     1      33.940 -14.608 -24.100  0.00  0.00    +0.148 A 
ATOM      9  C   UNL     1      34.134 -14.745 -22.622  0.00  0.00    +0.222 A 
ATOM     10  H   UNL     1      34.581 -17.668 -24.954  0.00  0.00    +0.169 HD
ENDROOT
BRANCH   5  14
ATOM     11 CL   UNL     1      35.025 -19.522 -24.088  0.00  0.00    -0.077 Cl
ATOM     12 CL   UNL     1      36.676 -18.529 -21.907  0.00  0.00    -0.077 Cl
ATOM     13 CL   UNL     1      33.879 -19.160 -21.437  0.00  0.00    -0.077 Cl
ATOM     14  C   UNL     1      35.046 -18.525 -22.618  0.00  0.00    +0.232 C 
ENDBRANCH   5  14
BRANCH   6  15
ATOM     15  O   UNL     1      33.950 -15.621 -26.241  0.00  0.00    -0.457 OA
ATOM     16  C   UNL     1      32.579 -15.522 -26.576  0.00  0.00    +0.254 C 
ENDBRANCH   6  15
TORSDOF 2
ENDMDL
MODEL 4
REMARK VINA RESULT:      -6.7      5.496      7.715
REMARK  Name = 388136
REMARK  2 active torsions:
REMARK  status: ('A' for Active; 'I' for Inactive)
REMARK    1  A    between atoms: C_5  and  C_14
REMARK    2  A    between atoms: C_6  and  O_15
REMARK                            x       y       z     vdW  Elec       q    Type
REMARK                         _______ _______ _______ _____ _____    ______ ____
ROOT
ATOM      1 CL   UNL     1      34.565 -18.643 -24.627  0.00  0.00    -0.078 Cl
ATOM      2 CL   UNL     1      33.043 -13.547 -26.005  0.00  0.00    -0.074 Cl
ATOM      3  O   UNL     1      33.660 -16.437 -26.370  0.00  0.00    -0.285 OA
ATOM      4  N   UNL     1      34.189 -15.229 -22.585  0.00  0.00    -0.324 N 
ATOM      5  C   UNL     1      34.442 -16.554 -22.882  0.00  0.00    +0.092 A 
ATOM      6  C   UNL     1      33.767 -14.312 -23.515  0.00  0.00    +0.217 A 
ATOM      7  C   UNL     1      34.281 -17.016 -24.140  0.00  0.00    +0.112 A 
ATOM      8  C   UNL     1      33.570 -14.652 -24.799  0.00  0.00    +0.148 A 
ATOM      9  C   UNL     1      33.822 -16.068 -25.211  0.00  0.00    +0.222 A 
ATOM     10  H   UNL     1      34.318 -14.925 -21.657  0.00  0.00    +0.169 HD
ENDROOT
BRANCH   5  14
ATOM     11 CL   UNL     1      35.036 -16.339 -20.289  0.00  0.00    -0.077 Cl
ATOM     12 CL   UNL     1      33.702 -18.671 -21.407  0.00  0.00    -0.077 Cl
ATOM     13 CL   UNL     1      36.471 -18.121 -22.088  0.00  0.00    -0.077 Cl
ATOM     14  C   UNL     1      34.895 -17.389 -21.715  0.00  0.00    +0.232 C 
ENDBRANCH   5  14
BRANCH   6  15
ATOM     15  O   UNL     1      33.550 -13.020 -23.081  0.00  0.00    -0.457 OA
ATOM     16  C   UNL     1      32.329 -12.927 -22.373  0.00  0.00    +0.254 C 
ENDBRANCH   6  15
TORSDOF 2
ENDMDL
MODEL 5
REMARK VINA RESULT:      -6.5      5.914      8.082
REMARK  Name = 388136
REMARK  2 active torsions:
REMARK  status: ('A' for Active; 'I' for Inactive)
REMARK    1  A    between atoms: C_5  and  C_14
REMARK    2  A    between atoms: C_6  and  O_15
REMARK                            x       y       z     vdW  Elec       q    Type
REMARK                         _______ _______ _______ _____ _____    ______ ____
ROOT
ATOM      1 CL   UNL     1      32.553 -13.137 -21.553  0.00  0.00    -0.078 Cl
ATOM      2 CL   UNL     1      33.474 -14.068 -26.888  0.00  0.00    -0.074 Cl
ATOM      3  O   UNL     1      32.660 -12.567 -24.449  0.00  0.00    -0.285 OA
ATOM      4  N   UNL     1      33.917 -16.280 -23.610  0.00  0.00    -0.324 N 
ATOM      5  C   UNL     1      33.512 -15.480 -22.558  0.00  0.00    +0.092 A 
ATOM      6  C   UNL     1      33.911 -15.868 -24.919  0.00  0.00    +0.217 A 
ATOM      7  C   UNL     1      33.080 -14.222 -22.781  0.00  0.00    +0.112 A 
ATOM      8  C   UNL     1      33.503 -14.637 -25.267  0.00  0.00    +0.148 A 
ATOM      9  C   UNL     1      33.045 -13.703 -24.191  0.00  0.00    +0.222 A 
ATOM     10  H   UNL     1      34.225 -17.193 -23.410  0.00  0.00    +0.169 HD
ENDROOT
BRANCH   5  14
ATOM     11 CL   UNL     1      34.729 -15.189 -20.200  0.00  0.00    -0.077 Cl
ATOM     12 CL   UNL     1      31.989 -16.141 -20.448  0.00  0.00    -0.077 Cl
ATOM     13 CL   UNL     1      34.188 -17.795 -21.379  0.00  0.00    -0.077 Cl
ATOM     14  C   UNL     1      33.600 -16.127 -21.202  0.00  0.00    +0.232 C 
ENDBRANCH   5  14
BRANCH   6  15
ATOM     15  O   UNL     1      34.342 -16.769 -25.870  0.00  0.00    -0.457 OA
ATOM     16  C   UNL     1      34.504 -18.056 -25.306  0.00  0.00    +0.254 C 
ENDBRANCH   6  15
TORSDOF 2
ENDMDL
MODEL 6
REMARK VINA RESULT:      -6.5      9.570     11.455
REMARK  Name = 388136
REMARK  2 active torsions:
REMARK  status: ('A' for Active; 'I' for Inactive)
REMARK    1  A    between atoms: C_5  and  C_14
REMARK    2  A    between atoms: C_6  and  O_15
REMARK                            x       y       z     vdW  Elec       q    Type
REMARK                         _______ _______ _______ _____ _____    ______ ____
ROOT
ATOM      1 CL   UNL     1      31.145 -10.636 -20.813  0.00  0.00    -0.078 Cl
ATOM      2 CL   UNL     1      33.601 -14.016 -24.380  0.00  0.00    -0.074 Cl
ATOM      3  O   UNL     1      31.913 -13.197 -22.069  0.00  0.00    -0.285 OA
ATOM      4  N   UNL     1      33.560 -10.061 -23.944  0.00  0.00    -0.324 N 
ATOM      5  C   UNL     1      32.751  -9.810 -22.852  0.00  0.00    +0.092 A 
ATOM      6  C   UNL     1      33.825 -11.323 -24.415  0.00  0.00    +0.217 A 
ATOM      7  C   UNL     1      32.169 -10.827 -22.183  0.00  0.00    +0.112 A 
ATOM      8  C   UNL     1      33.304 -12.414 -23.834  0.00  0.00    +0.148 A 
ATOM      9  C   UNL     1      32.416 -12.237 -22.642  0.00  0.00    +0.222 A 
ATOM     10  H   UNL     1      33.969  -9.295 -24.408  0.00  0.00    +0.169 HD
ENDROOT
BRANCH   5  14
ATOM     11 CL   UNL     1      30.993  -7.813 -23.058  0.00  0.00    -0.077 Cl
ATOM     12 CL   UNL     1      32.724  -8.150 -20.742  0.00  0.00    -0.077 Cl
ATOM     13 CL   UNL     1      33.865  -7.411 -23.309  0.00  0.00    -0.077 Cl
ATOM     14  C   UNL     1      32.591  -8.355 -22.504  0.00  0.00    +0.232 C 
ENDBRANCH   5  14
BRANCH   6  15
ATOM     15  O   UNL     1      34.650 -11.429 -25.516  0.00  0.00    -0.457 OA
ATOM     16  C   UNL     1      35.439 -10.265 -25.665  0.00  0.00    +0.254 C 
ENDBRANCH   6  15
TORSDOF 2
ENDMDL
MODEL 7
REMARK VINA RESULT:      -6.5      9.799     11.607
REMARK  Name = 388136
REMARK  2 active torsions:
REMARK  status: ('A' for Active; 'I' for Inactive)
REMARK    1  A    between atoms: C_5  and  C_14
REMARK    2  A    between atoms: C_6  and  O_15
REMARK                            x       y       z     vdW  Elec       q    Type
REMARK                         _______ _______ _______ _____ _____    ______ ____
ROOT
ATOM      1 CL   UNL     1      34.911  -9.649 -25.012  0.00  0.00    -0.078 Cl
ATOM      2 CL   UNL     1      32.167 -13.770 -22.631  0.00  0.00    -0.074 Cl
ATOM      3  O   UNL     1      34.074 -12.432 -24.485  0.00  0.00    -0.285 OA
ATOM      4  N   UNL     1      32.161  -9.824 -22.118  0.00  0.00    -0.324 N 
ATOM      5  C   UNL     1      33.076  -9.324 -23.025  0.00  0.00    +0.092 A 
ATOM      6  C   UNL     1      31.877 -11.161 -21.988  0.00  0.00    +0.217 A 
ATOM      7  C   UNL     1      33.750 -10.156 -23.846  0.00  0.00    +0.112 A 
ATOM      8  C   UNL     1      32.483 -12.085 -22.749  0.00  0.00    +0.148 A 
ATOM      9  C   UNL     1      33.489 -11.633 -23.761  0.00  0.00    +0.222 A 
ATOM     10  H   UNL     1      31.686  -9.188 -21.535  0.00  0.00    +0.169 HD
ENDROOT
BRANCH   5  14
ATOM     11 CL   UNL     1      32.670  -7.222 -21.431  0.00  0.00    -0.077 Cl
ATOM     12 CL   UNL     1      34.952  -7.414 -23.228  0.00  0.00    -0.077 Cl
ATOM     13 CL   UNL     1      32.275  -7.110 -24.312  0.00  0.00    -0.077 Cl
ATOM     14  C   UNL     1      33.237  -7.828 -23.002  0.00  0.00    +0.232 C 
ENDBRANCH   5  14
BRANCH   6  15
ATOM     15  O   UNL     1      30.941 -11.522 -21.041  0.00  0.00    -0.457 OA
ATOM     16  C   UNL     1      31.459 -11.359 -19.735  0.00  0.00    +0.254 C 
ENDBRANCH   6  15
TORSDOF 2
ENDMDL
MODEL 8
REMARK VINA RESULT:      -6.2      3.037      6.379
REMARK  Name = 388136
REMARK  2 active torsions:
REMARK  status: ('A' for Active; 'I' for Inactive)
REMARK    1  A    between atoms: C_5  and  C_14
REMARK    2  A    between atoms: C_6  and  O_15
REMARK                            x       y       z     vdW  Elec       q    Type
REMARK                         _______ _______ _______ _____ _____    ______ ____
ROOT
ATOM      1 CL   UNL     1      37.820 -22.704 -16.086  0.00  0.00    -0.078 Cl
ATOM      2 CL   UNL     1      33.928 -21.414 -19.742  0.00  0.00    -0.074 Cl
ATOM      3  O   UNL     1      36.645 -21.535 -18.530  0.00  0.00    -0.285 OA
ATOM      4  N   UNL     1      33.893 -23.413 -16.301  0.00  0.00    -0.324 N 
ATOM      5  C   UNL     1      35.197 -23.400 -15.844  0.00  0.00    +0.092 A 
ATOM      6  C   UNL     1      33.496 -22.819 -17.473  0.00  0.00    +0.217 A 
ATOM      7  C   UNL     1      36.165 -22.784 -16.554  0.00  0.00    +0.112 A 
ATOM      8  C   UNL     1      34.368 -22.175 -18.265  0.00  0.00    +0.148 A 
ATOM      9  C   UNL     1      35.804 -22.111 -17.848  0.00  0.00    +0.222 A 
ATOM     10  H   UNL     1      33.212 -23.871 -15.757  0.00  0.00    +0.169 HD
ENDROOT
BRANCH   5  14
ATOM     11 CL   UNL     1      36.305 -25.618 -14.855  0.00  0.00    -0.077 Cl
ATOM     12 CL   UNL     1      36.361 -23.071 -13.447  0.00  0.00    -0.077 Cl
ATOM     13 CL   UNL     1      33.845 -24.481 -13.793  0.00  0.00    -0.077 Cl
ATOM     14  C   UNL     1      35.417 -24.112 -14.536  0.00  0.00    +0.232 C 
ENDBRANCH   5  14
BRANCH   6  15
ATOM     15  O   UNL     1      32.161 -22.908 -17.810  0.00  0.00    -0.457 OA
ATOM     16  C   UNL     1      31.358 -23.024 -16.651  0.00  0.00    +0.254 C 
ENDBRANCH   6  15
TORSDOF 2
ENDMDL
MODEL 9
REMARK VINA RESULT:      -6.1      4.273      5.995
REMARK  Name = 388136
REMARK  2 active torsions:
REMARK  status: ('A' for Active; 'I' for Inactive)
REMARK    1  A    between atoms: C_5  and  C_14
REMARK    2  A    between atoms: C_6  and  O_15
REMARK                            x       y       z     vdW  Elec       q    Type
REMARK                         _______ _______ _______ _____ _____    ______ ____
ROOT
ATOM      1 CL   UNL     1      33.385 -14.809 -25.058  0.00  0.00    -0.078 Cl
ATOM      2 CL   UNL     1      35.190 -19.968 -24.504  0.00  0.00    -0.074 Cl
ATOM      3  O   UNL     1      34.150 -17.542 -25.879  0.00  0.00    -0.285 OA
ATOM      4  N   UNL     1      34.631 -16.976 -21.940  0.00  0.00    -0.324 N 
ATOM      5  C   UNL     1      34.153 -15.920 -22.692  0.00  0.00    +0.092 A 
ATOM      6  C   UNL     1      34.947 -18.201 -22.473  0.00  0.00    +0.217 A 
ATOM      7  C   UNL     1      33.972 -16.053 -24.023  0.00  0.00    +0.112 A 
ATOM      8  C   UNL     1      34.810 -18.455 -23.783  0.00  0.00    +0.148 A 
ATOM      9  C   UNL     1      34.297 -17.367 -24.674  0.00  0.00    +0.222 A 
ATOM     10  H   UNL     1      34.749 -16.844 -20.972  0.00  0.00    +0.169 HD
ENDROOT
BRANCH   5  14
ATOM     11 CL   UNL     1      34.321 -13.265 -22.909  0.00  0.00    -0.077 Cl
ATOM     12 CL   UNL     1      32.138 -14.593 -21.515  0.00  0.00    -0.077 Cl
ATOM     13 CL   UNL     1      34.824 -14.674 -20.411  0.00  0.00    -0.077 Cl
ATOM     14  C   UNL     1      33.870 -14.665 -21.911  0.00  0.00    +0.232 C 
ENDBRANCH   5  14
BRANCH   6  15
ATOM     15  O   UNL     1      35.415 -19.168 -21.606  0.00  0.00    -0.457 OA
ATOM     16  C   UNL     1      34.349 -19.754 -20.885  0.00  0.00    +0.254 C 
ENDBRANCH   6  15
TORSDOF 2
ENDMDL
