MODEL 1
REMARK VINA RESULT:     -11.4      0.000      0.000
REMARK  Name = 456199
REMARK  5 active torsions:
REMARK  status: ('A' for Active; 'I' for Inactive)
REMARK    1  A    between atoms: O_1  and  C_5
REMARK    2  A    between atoms: O_1  and  C_14
REMARK    3  A    between atoms: C_14  and  C_15
REMARK    4  A    between atoms: C_20  and  O_21
REMARK    5  A    between atoms: O_21  and  C_25
REMARK                            x       y       z     vdW  Elec       q    Type
REMARK                         _______ _______ _______ _____ _____    ______ ____
ROOT
ATOM      1  O   UNL     1      33.166 -22.696 -17.667  0.00  0.00    -0.346 OA
ENDROOT
BRANCH   1   5
ATOM      2  O   UNL     1      32.385 -24.019 -14.317  0.00  0.00    -0.438 OA
ATOM      3  N   UNL     1      34.719 -23.564 -14.474  0.00  0.00    -0.242 N 
ATOM      4  N   UNL     1      33.921 -24.416 -12.589  0.00  0.00    -0.333 NA
ATOM      5  C   UNL     1      33.383 -23.481 -16.505  0.00  0.00    +0.179 C 
ATOM      6  C   UNL     1      34.692 -23.077 -15.834  0.00  0.00    +0.130 C 
ATOM      7  C   UNL     1      32.222 -23.277 -15.531  0.00  0.00    +0.241 C 
ATOM      8  C   UNL     1      33.611 -23.992 -13.794  0.00  0.00    +0.345 C 
ATOM      9  C   UNL     1      35.798 -23.700 -13.657  0.00  0.00    +0.181 C 
ATOM     10  C   UNL     1      35.281 -24.228 -12.494  0.00  0.00    +0.274 C 
ATOM     11  O   UNL     1      37.199 -24.379 -11.231  0.00  0.00    -0.124 OA
ATOM     12  O   UNL     1      35.302 -25.039 -10.341  0.00  0.00    -0.124 OA
ATOM     13  N   UNL     1      35.953 -24.562 -11.312  0.00  0.00    +0.085 N 
ENDBRANCH   1   5
BRANCH   1  14
ATOM     14  C   UNL     1      34.228 -22.845 -18.598  0.00  0.00    +0.169 C 
BRANCH  14  15
ATOM     15  C   UNL     1      34.286 -21.627 -19.473  0.00  0.00    +0.007 C 
ATOM     16  C   UNL     1      33.108 -21.002 -19.861  0.00  0.00    +0.001 C 
ATOM     17  C   UNL     1      35.519 -21.137 -19.887  0.00  0.00    +0.001 C 
ATOM     18  C   UNL     1      33.162 -19.870 -20.674  0.00  0.00    +0.037 C 
ATOM     19  C   UNL     1      35.575 -20.005 -20.701  0.00  0.00    +0.037 C 
ATOM     20  C   UNL     1      34.396 -19.372 -21.094  0.00  0.00    +0.147 C 
BRANCH  20  21
ATOM     21  O   UNL     1      34.449 -18.267 -21.888  0.00  0.00    -0.404 OA
BRANCH  21  25
ATOM     22  F   UNL     1      36.267 -18.319 -23.274  0.00  0.00    -0.133 F 
ATOM     23  F   UNL     1      34.400 -17.432 -23.985  0.00  0.00    -0.133 F 
ATOM     24  F   UNL     1      34.529 -19.600 -23.745  0.00  0.00    -0.133 F 
ATOM     25  C   UNL     1      34.922 -18.419 -23.221  0.00  0.00    +0.575 C 
ENDBRANCH  21  25
ENDBRANCH  20  21
ENDBRANCH  14  15
ENDBRANCH   1  14
TORSDOF 5
ENDMDL
MODEL 2
REMARK VINA RESULT:     -11.3      1.189      1.343
REMARK  Name = 456199
REMARK  5 active torsions:
REMARK  status: ('A' for Active; 'I' for Inactive)
REMARK    1  A    between atoms: O_1  and  C_5
REMARK    2  A    between atoms: O_1  and  C_14
REMARK    3  A    between atoms: C_14  and  C_15
REMARK    4  A    between atoms: C_20  and  O_21
REMARK    5  A    between atoms: O_21  and  C_25
REMARK                            x       y       z     vdW  Elec       q    Type
REMARK                         _______ _______ _______ _____ _____    ______ ____
ROOT
ATOM      1  O   UNL     1      33.412 -22.613 -17.771  0.00  0.00    -0.346 OA
ENDROOT
BRANCH   1   5
ATOM      2  O   UNL     1      32.513 -24.065 -14.504  0.00  0.00    -0.438 OA
ATOM      3  N   UNL     1      34.825 -23.483 -14.513  0.00  0.00    -0.242 N 
ATOM      4  N   UNL     1      33.967 -24.426 -12.699  0.00  0.00    -0.333 NA
ATOM      5  C   UNL     1      33.605 -23.417 -16.616  0.00  0.00    +0.179 C 
ATOM      6  C   UNL     1      34.849 -22.963 -15.860  0.00  0.00    +0.130 C 
ATOM      7  C   UNL     1      32.380 -23.300 -15.708  0.00  0.00    +0.241 C 
ATOM      8  C   UNL     1      33.704 -23.987 -13.909  0.00  0.00    +0.345 C 
ATOM      9  C   UNL     1      35.861 -23.584 -13.637  0.00  0.00    +0.181 C 
ATOM     10  C   UNL     1      35.307 -24.169 -12.520  0.00  0.00    +0.274 C 
ATOM     11  O   UNL     1      37.155 -24.253 -11.150  0.00  0.00    -0.124 OA
ATOM     12  O   UNL     1      35.248 -25.036 -10.388  0.00  0.00    -0.124 OA
ATOM     13  N   UNL     1      35.927 -24.499 -11.308  0.00  0.00    +0.085 N 
ENDBRANCH   1   5
BRANCH   1  14
ATOM     14  C   UNL     1      34.569 -22.607 -18.594  0.00  0.00    +0.169 C 
BRANCH  14  15
ATOM     15  C   UNL     1      34.509 -21.421 -19.512  0.00  0.00    +0.007 C 
ATOM     16  C   UNL     1      33.277 -20.882 -19.860  0.00  0.00    +0.001 C 
ATOM     17  C   UNL     1      35.688 -20.873 -20.005  0.00  0.00    +0.001 C 
ATOM     18  C   UNL     1      33.222 -19.779 -20.713  0.00  0.00    +0.037 C 
ATOM     19  C   UNL     1      35.634 -19.771 -20.858  0.00  0.00    +0.037 C 
ATOM     20  C   UNL     1      34.400 -19.224 -21.212  0.00  0.00    +0.147 C 
BRANCH  20  21
ATOM     21  O   UNL     1      34.346 -18.149 -22.044  0.00  0.00    -0.404 OA
BRANCH  21  25
ATOM     22  F   UNL     1      35.207 -16.801 -20.409  0.00  0.00    -0.133 F 
ATOM     23  F   UNL     1      33.127 -16.542 -21.029  0.00  0.00    -0.133 F 
ATOM     24  F   UNL     1      34.730 -15.918 -22.378  0.00  0.00    -0.133 F 
ATOM     25  C   UNL     1      34.370 -16.848 -21.467  0.00  0.00    +0.575 C 
ENDBRANCH  21  25
ENDBRANCH  20  21
ENDBRANCH  14  15
ENDBRANCH   1  14
TORSDOF 5
ENDMDL
MODEL 3
REMARK VINA RESULT:     -11.1      1.436      2.324
REMARK  Name = 456199
REMARK  5 active torsions:
REMARK  status: ('A' for Active; 'I' for Inactive)
REMARK    1  A    between atoms: O_1  and  C_5
REMARK    2  A    between atoms: O_1  and  C_14
REMARK    3  A    between atoms: C_14  and  C_15
REMARK    4  A    between atoms: C_20  and  O_21
REMARK    5  A    between atoms: O_21  and  C_25
REMARK                            x       y       z     vdW  Elec       q    Type
REMARK                         _______ _______ _______ _____ _____    ______ ____
ROOT
ATOM      1  O   UNL     1      35.266 -22.826 -18.078  0.00  0.00    -0.346 OA
ENDROOT
BRANCH   1   5
ATOM      2  O   UNL     1      37.331 -22.288 -15.072  0.00  0.00    -0.438 OA
ATOM      3  N   UNL     1      35.505 -23.725 -14.542  0.00  0.00    -0.242 N 
ATOM      4  N   UNL     1      36.925 -23.163 -12.934  0.00  0.00    -0.333 NA
ATOM      5  C   UNL     1      35.504 -22.597 -16.697  0.00  0.00    +0.179 C 
ATOM      6  C   UNL     1      34.928 -23.739 -15.866  0.00  0.00    +0.130 C 
ATOM      7  C   UNL     1      37.010 -22.492 -16.453  0.00  0.00    +0.241 C 
ATOM      8  C   UNL     1      36.640 -23.035 -14.211  0.00  0.00    +0.345 C 
ATOM      9  C   UNL     1      35.045 -24.348 -13.424  0.00  0.00    +0.181 C 
ATOM     10  C   UNL     1      35.940 -23.988 -12.441  0.00  0.00    +0.274 C 
ATOM     11  O   UNL     1      35.045 -25.119 -10.647  0.00  0.00    -0.124 OA
ATOM     12  O   UNL     1      36.861 -23.921 -10.332  0.00  0.00    -0.124 OA
ATOM     13  N   UNL     1      35.948 -24.356 -11.089  0.00  0.00    +0.085 N 
ENDBRANCH   1   5
BRANCH   1  14
ATOM     14  C   UNL     1      33.969 -22.389 -18.457  0.00  0.00    +0.169 C 
BRANCH  14  15
ATOM     15  C   UNL     1      34.101 -21.296 -19.477  0.00  0.00    +0.007 C 
ATOM     16  C   UNL     1      35.363 -20.890 -19.892  0.00  0.00    +0.001 C 
ATOM     17  C   UNL     1      32.958 -20.700 -19.997  0.00  0.00    +0.001 C 
ATOM     18  C   UNL     1      35.485 -19.874 -20.841  0.00  0.00    +0.037 C 
ATOM     19  C   UNL     1      33.078 -19.684 -20.946  0.00  0.00    +0.037 C 
ATOM     20  C   UNL     1      34.343 -19.271 -21.367  0.00  0.00    +0.147 C 
BRANCH  20  21
ATOM     21  O   UNL     1      34.462 -18.280 -22.292  0.00  0.00    -0.404 OA
BRANCH  21  25
ATOM     22  F   UNL     1      34.789 -17.719 -24.485  0.00  0.00    -0.133 F 
ATOM     23  F   UNL     1      34.842 -19.823 -23.895  0.00  0.00    -0.133 F 
ATOM     24  F   UNL     1      36.493 -18.510 -23.320  0.00  0.00    -0.133 F 
ATOM     25  C   UNL     1      35.155 -18.567 -23.501  0.00  0.00    +0.575 C 
ENDBRANCH  21  25
ENDBRANCH  20  21
ENDBRANCH  14  15
ENDBRANCH   1  14
TORSDOF 5
ENDMDL
MODEL 4
REMARK VINA RESULT:     -10.5      5.514      6.842
REMARK  Name = 456199
REMARK  5 active torsions:
REMARK  status: ('A' for Active; 'I' for Inactive)
REMARK    1  A    between atoms: O_1  and  C_5
REMARK    2  A    between atoms: O_1  and  C_14
REMARK    3  A    between atoms: C_14  and  C_15
REMARK    4  A    between atoms: C_20  and  O_21
REMARK    5  A    between atoms: O_21  and  C_25
REMARK                            x       y       z     vdW  Elec       q    Type
REMARK                         _______ _______ _______ _____ _____    ______ ____
ROOT
ATOM      1  O   UNL     1      33.730 -23.917 -13.186  0.00  0.00    -0.346 OA
ENDROOT
BRANCH   1   5
ATOM      2  O   UNL     1      36.849 -25.241 -11.735  0.00  0.00    -0.438 OA
ATOM      3  N   UNL     1      37.104 -24.994 -14.092  0.00  0.00    -0.242 N 
ATOM      4  N   UNL     1      38.794 -25.813 -12.914  0.00  0.00    -0.333 NA
ATOM      5  C   UNL     1      34.882 -24.745 -13.134  0.00  0.00    +0.179 C 
ATOM      6  C   UNL     1      35.778 -24.476 -14.339  0.00  0.00    +0.130 C 
ATOM      7  C   UNL     1      35.654 -24.460 -11.846  0.00  0.00    +0.241 C 
ATOM      8  C   UNL     1      37.571 -25.336 -12.852  0.00  0.00    +0.345 C 
ATOM      9  C   UNL     1      38.085 -25.245 -15.000  0.00  0.00    +0.181 C 
ATOM     10  C   UNL     1      39.123 -25.751 -14.249  0.00  0.00    +0.274 C 
ATOM     11  O   UNL     1      40.684 -26.103 -15.904  0.00  0.00    -0.124 OA
ATOM     12  O   UNL     1      41.218 -26.609 -13.833  0.00  0.00    -0.124 OA
ATOM     13  N   UNL     1      40.389 -26.170 -14.679  0.00  0.00    +0.085 N 
ENDBRANCH   1   5
BRANCH   1  14
ATOM     14  C   UNL     1      32.543 -24.690 -13.295  0.00  0.00    +0.169 C 
BRANCH  14  15
ATOM     15  C   UNL     1      31.619 -24.031 -14.277  0.00  0.00    +0.007 C 
ATOM     16  C   UNL     1      30.408 -23.511 -13.838  0.00  0.00    +0.001 C 
ATOM     17  C   UNL     1      31.985 -23.947 -15.615  0.00  0.00    +0.001 C 
ATOM     18  C   UNL     1      29.548 -22.898 -14.751  0.00  0.00    +0.037 C 
ATOM     19  C   UNL     1      31.126 -23.335 -16.529  0.00  0.00    +0.037 C 
ATOM     20  C   UNL     1      29.908 -22.810 -16.096  0.00  0.00    +0.147 C 
BRANCH  20  21
ATOM     21  O   UNL     1      29.069 -22.212 -16.986  0.00  0.00    -0.404 OA
BRANCH  21  25
ATOM     22  F   UNL     1      27.231 -22.343 -18.340  0.00  0.00    -0.133 F 
ATOM     23  F   UNL     1      26.976 -22.439 -16.172  0.00  0.00    -0.133 F 
ATOM     24  F   UNL     1      27.861 -24.140 -17.220  0.00  0.00    -0.133 F 
ATOM     25  C   UNL     1      27.787 -22.792 -17.196  0.00  0.00    +0.575 C 
ENDBRANCH  21  25
ENDBRANCH  20  21
ENDBRANCH  14  15
ENDBRANCH   1  14
TORSDOF 5
ENDMDL
MODEL 5
REMARK VINA RESULT:     -10.4      6.267     10.995
REMARK  Name = 456199
REMARK  5 active torsions:
REMARK  status: ('A' for Active; 'I' for Inactive)
REMARK    1  A    between atoms: O_1  and  C_5
REMARK    2  A    between atoms: O_1  and  C_14
REMARK    3  A    between atoms: C_14  and  C_15
REMARK    4  A    between atoms: C_20  and  O_21
REMARK    5  A    between atoms: O_21  and  C_25
REMARK                            x       y       z     vdW  Elec       q    Type
REMARK                         _______ _______ _______ _____ _____    ______ ____
ROOT
ATOM      1  O   UNL     1      35.092 -17.943 -20.703  0.00  0.00    -0.346 OA
ENDROOT
BRANCH   1   5
ATOM      2  O   UNL     1      34.463 -14.435 -21.644  0.00  0.00    -0.438 OA
ATOM      3  N   UNL     1      34.236 -15.832 -23.562  0.00  0.00    -0.242 N 
ATOM      4  N   UNL     1      33.961 -13.644 -23.795  0.00  0.00    -0.333 NA
ATOM      5  C   UNL     1      35.169 -16.793 -21.532  0.00  0.00    +0.179 C 
ATOM      6  C   UNL     1      34.523 -17.075 -22.885  0.00  0.00    +0.130 C 
ATOM      7  C   UNL     1      34.451 -15.628 -20.851  0.00  0.00    +0.241 C 
ATOM      8  C   UNL     1      34.211 -14.612 -22.942  0.00  0.00    +0.345 C 
ATOM      9  C   UNL     1      33.967 -15.643 -24.882  0.00  0.00    +0.181 C 
ATOM     10  C   UNL     1      33.799 -14.281 -25.004  0.00  0.00    +0.274 C 
ATOM     11  O   UNL     1      33.342 -14.130 -27.255  0.00  0.00    -0.124 OA
ATOM     12  O   UNL     1      33.379 -12.282 -26.066  0.00  0.00    -0.124 OA
ATOM     13  N   UNL     1      33.496 -13.537 -26.151  0.00  0.00    +0.085 N 
ENDBRANCH   1   5
BRANCH   1  14
ATOM     14  C   UNL     1      34.541 -19.048 -21.403  0.00  0.00    +0.169 C 
BRANCH  14  15
ATOM     15  C   UNL     1      34.472 -20.228 -20.477  0.00  0.00    +0.007 C 
ATOM     16  C   UNL     1      35.644 -20.863 -20.084  0.00  0.00    +0.001 C 
ATOM     17  C   UNL     1      33.236 -20.674 -20.023  0.00  0.00    +0.001 C 
ATOM     18  C   UNL     1      35.580 -21.959 -19.223  0.00  0.00    +0.037 C 
ATOM     19  C   UNL     1      33.171 -21.770 -19.163  0.00  0.00    +0.037 C 
ATOM     20  C   UNL     1      34.343 -22.412 -18.763  0.00  0.00    +0.147 C 
BRANCH  20  21
ATOM     21  O   UNL     1      34.281 -23.483 -17.924  0.00  0.00    -0.404 OA
BRANCH  21  25
ATOM     22  F   UNL     1      35.138 -22.249 -16.199  0.00  0.00    -0.133 F 
ATOM     23  F   UNL     1      34.680 -24.363 -15.883  0.00  0.00    -0.133 F 
ATOM     24  F   UNL     1      33.039 -22.932 -16.083  0.00  0.00    -0.133 F 
ATOM     25  C   UNL     1      34.280 -23.239 -16.522  0.00  0.00    +0.575 C 
ENDBRANCH  21  25
ENDBRANCH  20  21
ENDBRANCH  14  15
ENDBRANCH   1  14
TORSDOF 5
ENDMDL
MODEL 6
REMARK VINA RESULT:     -10.3      2.184      2.610
REMARK  Name = 456199
REMARK  5 active torsions:
REMARK  status: ('A' for Active; 'I' for Inactive)
REMARK    1  A    between atoms: O_1  and  C_5
REMARK    2  A    between atoms: O_1  and  C_14
REMARK    3  A    between atoms: C_14  and  C_15
REMARK    4  A    between atoms: C_20  and  O_21
REMARK    5  A    between atoms: O_21  and  C_25
REMARK                            x       y       z     vdW  Elec       q    Type
REMARK                         _______ _______ _______ _____ _____    ______ ____
ROOT
ATOM      1  O   UNL     1      36.444 -21.228 -18.182  0.00  0.00    -0.346 OA
ENDROOT
BRANCH   1   5
ATOM      2  O   UNL     1      34.956 -23.880 -16.099  0.00  0.00    -0.438 OA
ATOM      3  N   UNL     1      36.824 -22.927 -14.968  0.00  0.00    -0.242 N 
ATOM      4  N   UNL     1      35.723 -24.590 -13.999  0.00  0.00    -0.333 NA
ATOM      5  C   UNL     1      36.459 -22.340 -17.300  0.00  0.00    +0.179 C 
ATOM      6  C   UNL     1      37.156 -21.967 -15.995  0.00  0.00    +0.130 C 
ATOM      7  C   UNL     1      35.023 -22.776 -17.009  0.00  0.00    +0.241 C 
ATOM      8  C   UNL     1      35.778 -23.805 -15.052  0.00  0.00    +0.345 C 
ATOM      9  C   UNL     1      37.466 -23.144 -13.788  0.00  0.00    +0.181 C 
ATOM     10  C   UNL     1      36.767 -24.176 -13.204  0.00  0.00    +0.274 C 
ATOM     11  O   UNL     1      37.949 -24.406 -11.242  0.00  0.00    -0.124 OA
ATOM     12  O   UNL     1      36.237 -25.737 -11.598  0.00  0.00    -0.124 OA
ATOM     13  N   UNL     1      36.993 -24.796 -11.968  0.00  0.00    +0.085 N 
ENDBRANCH   1   5
BRANCH   1  14
ATOM     14  C   UNL     1      36.087 -21.620 -19.500  0.00  0.00    +0.169 C 
BRANCH  14  15
ATOM     15  C   UNL     1      35.627 -20.411 -20.261  0.00  0.00    +0.007 C 
ATOM     16  C   UNL     1      34.268 -20.196 -20.453  0.00  0.00    +0.001 C 
ATOM     17  C   UNL     1      36.565 -19.519 -20.767  0.00  0.00    +0.001 C 
ATOM     18  C   UNL     1      33.839 -19.072 -21.161  0.00  0.00    +0.037 C 
ATOM     19  C   UNL     1      36.138 -18.395 -21.475  0.00  0.00    +0.037 C 
ATOM     20  C   UNL     1      34.775 -18.172 -21.671  0.00  0.00    +0.147 C 
BRANCH  20  21
ATOM     21  O   UNL     1      34.357 -17.076 -22.362  0.00  0.00    -0.404 OA
BRANCH  21  25
ATOM     22  F   UNL     1      32.873 -15.550 -21.527  0.00  0.00    -0.133 F 
ATOM     23  F   UNL     1      34.782 -14.859 -22.335  0.00  0.00    -0.133 F 
ATOM     24  F   UNL     1      34.752 -15.923 -20.426  0.00  0.00    -0.133 F 
ATOM     25  C   UNL     1      34.181 -15.858 -21.649  0.00  0.00    +0.575 C 
ENDBRANCH  21  25
ENDBRANCH  20  21
ENDBRANCH  14  15
ENDBRANCH   1  14
TORSDOF 5
ENDMDL
MODEL 7
REMARK VINA RESULT:     -10.3      5.980      8.786
REMARK  Name = 456199
REMARK  5 active torsions:
REMARK  status: ('A' for Active; 'I' for Inactive)
REMARK    1  A    between atoms: O_1  and  C_5
REMARK    2  A    between atoms: O_1  and  C_14
REMARK    3  A    between atoms: C_14  and  C_15
REMARK    4  A    between atoms: C_20  and  O_21
REMARK    5  A    between atoms: O_21  and  C_25
REMARK                            x       y       z     vdW  Elec       q    Type
REMARK                         _______ _______ _______ _____ _____    ______ ____
ROOT
ATOM      1  O   UNL     1      32.844 -24.542 -14.229  0.00  0.00    -0.346 OA
ENDROOT
BRANCH   1   5
ATOM      2  O   UNL     1      31.198 -22.713 -16.974  0.00  0.00    -0.438 OA
ATOM      3  N   UNL     1      29.605 -23.205 -15.270  0.00  0.00    -0.242 N 
ATOM      4  N   UNL     1      28.926 -22.141 -17.093  0.00  0.00    -0.333 NA
ATOM      5  C   UNL     1      31.798 -24.250 -15.142  0.00  0.00    +0.179 C 
ATOM      6  C   UNL     1      30.526 -23.881 -14.386  0.00  0.00    +0.130 C 
ATOM      7  C   UNL     1      32.218 -23.085 -16.040  0.00  0.00    +0.241 C 
ATOM      8  C   UNL     1      29.962 -22.664 -16.476  0.00  0.00    +0.345 C 
ATOM      9  C   UNL     1      28.272 -23.003 -15.091  0.00  0.00    +0.181 C 
ATOM     10  C   UNL     1      27.872 -22.341 -16.231  0.00  0.00    +0.274 C 
ATOM     11  O   UNL     1      25.634 -22.062 -15.772  0.00  0.00    -0.124 OA
ATOM     12  O   UNL     1      26.419 -21.289 -17.673  0.00  0.00    -0.124 OA
ATOM     13  N   UNL     1      26.593 -21.880 -16.571  0.00  0.00    +0.085 N 
ENDBRANCH   1   5
BRANCH   1  14
ATOM     14  C   UNL     1      33.917 -23.622 -14.362  0.00  0.00    +0.169 C 
BRANCH  14  15
ATOM     15  C   UNL     1      35.216 -24.365 -14.245  0.00  0.00    +0.007 C 
ATOM     16  C   UNL     1      35.526 -25.358 -15.165  0.00  0.00    +0.001 C 
ATOM     17  C   UNL     1      36.096 -24.052 -13.215  0.00  0.00    +0.001 C 
ATOM     18  C   UNL     1      36.733 -26.049 -15.056  0.00  0.00    +0.037 C 
ATOM     19  C   UNL     1      37.304 -24.742 -13.105  0.00  0.00    +0.037 C 
ATOM     20  C   UNL     1      37.622 -25.740 -14.026  0.00  0.00    +0.147 C 
BRANCH  20  21
ATOM     21  O   UNL     1      38.800 -26.414 -13.920  0.00  0.00    -0.404 OA
BRANCH  21  25
ATOM     22  F   UNL     1      40.447 -24.911 -13.411  0.00  0.00    -0.133 F 
ATOM     23  F   UNL     1      39.714 -25.047 -15.466  0.00  0.00    -0.133 F 
ATOM     24  F   UNL     1      40.949 -26.662 -14.663  0.00  0.00    -0.133 F 
ATOM     25  C   UNL     1      39.989 -25.764 -14.352  0.00  0.00    +0.575 C 
ENDBRANCH  21  25
ENDBRANCH  20  21
ENDBRANCH  14  15
ENDBRANCH   1  14
TORSDOF 5
ENDMDL
MODEL 8
REMARK VINA RESULT:     -10.2      5.477      6.682
REMARK  Name = 456199
REMARK  5 active torsions:
REMARK  status: ('A' for Active; 'I' for Inactive)
REMARK    1  A    between atoms: O_1  and  C_5
REMARK    2  A    between atoms: O_1  and  C_14
REMARK    3  A    between atoms: C_14  and  C_15
REMARK    4  A    between atoms: C_20  and  O_21
REMARK    5  A    between atoms: O_21  and  C_25
REMARK                            x       y       z     vdW  Elec       q    Type
REMARK                         _______ _______ _______ _____ _____    ______ ____
ROOT
ATOM      1  O   UNL     1      33.548 -23.878 -13.095  0.00  0.00    -0.346 OA
ENDROOT
BRANCH   1   5
ATOM      2  O   UNL     1      36.635 -22.868 -14.838  0.00  0.00    -0.438 OA
ATOM      3  N   UNL     1      37.018 -24.892 -13.640  0.00  0.00    -0.242 N 
ATOM      4  N   UNL     1      38.696 -23.985 -14.770  0.00  0.00    -0.333 NA
ATOM      5  C   UNL     1      34.947 -23.682 -13.238  0.00  0.00    +0.179 C 
ATOM      6  C   UNL     1      35.681 -25.012 -13.104  0.00  0.00    +0.130 C 
ATOM      7  C   UNL     1      35.235 -23.070 -14.610  0.00  0.00    +0.241 C 
ATOM      8  C   UNL     1      37.425 -23.872 -14.457  0.00  0.00    +0.345 C 
ATOM      9  C   UNL     1      38.078 -25.718 -13.431  0.00  0.00    +0.181 C 
ATOM     10  C   UNL     1      39.107 -25.138 -14.141  0.00  0.00    +0.274 C 
ATOM     11  O   UNL     1      40.795 -26.641 -13.705  0.00  0.00    -0.124 OA
ATOM     12  O   UNL     1      41.237 -24.906 -14.980  0.00  0.00    -0.124 OA
ATOM     13  N   UNL     1      40.429 -25.579 -14.280  0.00  0.00    +0.085 N 
ENDBRANCH   1   5
BRANCH   1  14
ATOM     14  C   UNL     1      33.038 -24.724 -14.116  0.00  0.00    +0.169 C 
BRANCH  14  15
ATOM     15  C   UNL     1      31.934 -24.009 -14.837  0.00  0.00    +0.007 C 
ATOM     16  C   UNL     1      30.696 -23.859 -14.224  0.00  0.00    +0.001 C 
ATOM     17  C   UNL     1      32.160 -23.503 -16.112  0.00  0.00    +0.001 C 
ATOM     18  C   UNL     1      29.668 -23.195 -14.895  0.00  0.00    +0.037 C 
ATOM     19  C   UNL     1      31.133 -22.839 -16.784  0.00  0.00    +0.037 C 
ATOM     20  C   UNL     1      29.888 -22.684 -16.175  0.00  0.00    +0.147 C 
BRANCH  20  21
ATOM     21  O   UNL     1      28.885 -22.036 -16.829  0.00  0.00    -0.404 OA
BRANCH  21  25
ATOM     22  F   UNL     1      27.048 -22.274 -18.169  0.00  0.00    -0.133 F 
ATOM     23  F   UNL     1      26.847 -22.559 -16.012  0.00  0.00    -0.133 F 
ATOM     24  F   UNL     1      27.897 -24.067 -17.196  0.00  0.00    -0.133 F 
ATOM     25  C   UNL     1      27.672 -22.741 -17.068  0.00  0.00    +0.575 C 
ENDBRANCH  21  25
ENDBRANCH  20  21
ENDBRANCH  14  15
ENDBRANCH   1  14
TORSDOF 5
ENDMDL
MODEL 9
REMARK VINA RESULT:     -10.1      2.618      3.886
REMARK  Name = 456199
REMARK  5 active torsions:
REMARK  status: ('A' for Active; 'I' for Inactive)
REMARK    1  A    between atoms: O_1  and  C_5
REMARK    2  A    between atoms: O_1  and  C_14
REMARK    3  A    between atoms: C_14  and  C_15
REMARK    4  A    between atoms: C_20  and  O_21
REMARK    5  A    between atoms: O_21  and  C_25
REMARK                            x       y       z     vdW  Elec       q    Type
REMARK                         _______ _______ _______ _____ _____    ______ ____
ROOT
ATOM      1  O   UNL     1      35.997 -20.582 -20.543  0.00  0.00    -0.346 OA
ENDROOT
BRANCH   1   5
ATOM      2  O   UNL     1      34.354 -22.818 -18.116  0.00  0.00    -0.438 OA
ATOM      3  N   UNL     1      36.445 -22.082 -17.239  0.00  0.00    -0.242 N 
ATOM      4  N   UNL     1      35.215 -23.482 -16.037  0.00  0.00    -0.333 NA
ATOM      5  C   UNL     1      35.938 -21.616 -19.572  0.00  0.00    +0.179 C 
ATOM      6  C   UNL     1      36.809 -21.261 -18.371  0.00  0.00    +0.130 C 
ATOM      7  C   UNL     1      34.490 -21.805 -19.120  0.00  0.00    +0.241 C 
ATOM      8  C   UNL     1      35.278 -22.793 -17.155  0.00  0.00    +0.345 C 
ATOM      9  C   UNL     1      37.163 -22.308 -16.106  0.00  0.00    +0.181 C 
ATOM     10  C   UNL     1      36.382 -23.177 -15.375  0.00  0.00    +0.274 C 
ATOM     11  O   UNL     1      37.708 -23.442 -13.512  0.00  0.00    -0.124 OA
ATOM     12  O   UNL     1      35.794 -24.518 -13.600  0.00  0.00    -0.124 OA
ATOM     13  N   UNL     1      36.638 -23.733 -14.116  0.00  0.00    +0.085 N 
ENDBRANCH   1   5
BRANCH   1  14
ATOM     14  C   UNL     1      34.700 -20.219 -20.990  0.00  0.00    +0.169 C 
BRANCH  14  15
ATOM     15  C   UNL     1      34.779 -18.902 -21.705  0.00  0.00    +0.007 C 
ATOM     16  C   UNL     1      34.762 -18.871 -23.094  0.00  0.00    +0.001 C 
ATOM     17  C   UNL     1      34.870 -17.726 -20.970  0.00  0.00    +0.001 C 
ATOM     18  C   UNL     1      34.836 -17.646 -23.758  0.00  0.00    +0.037 C 
ATOM     19  C   UNL     1      34.944 -16.501 -21.633  0.00  0.00    +0.037 C 
ATOM     20  C   UNL     1      34.926 -16.461 -23.027  0.00  0.00    +0.147 C 
BRANCH  20  21
ATOM     21  O   UNL     1      34.999 -15.267 -23.676  0.00  0.00    -0.404 OA
BRANCH  21  25
ATOM     22  F   UNL     1      33.933 -13.292 -24.118  0.00  0.00    -0.133 F 
ATOM     23  F   UNL     1      32.841 -14.901 -23.120  0.00  0.00    -0.133 F 
ATOM     24  F   UNL     1      33.338 -15.100 -25.240  0.00  0.00    -0.133 F 
ATOM     25  C   UNL     1      33.783 -14.631 -24.053  0.00  0.00    +0.575 C 
ENDBRANCH  21  25
ENDBRANCH  20  21
ENDBRANCH  14  15
ENDBRANCH   1  14
TORSDOF 5
ENDMDL
