MODEL 1
REMARK VINA RESULT:      -6.4      0.000      0.000
REMARK  Name = 17753844
REMARK  9 active torsions:
REMARK  status: ('A' for Active; 'I' for Inactive)
REMARK    1  A    between atoms: C_1  and  N_2
REMARK    2  A    between atoms: C_1  and  C_7
REMARK    3  A    between atoms: C_1  and  C_10
REMARK    4  A    between atoms: C_7  and  O_8
REMARK    5  A    between atoms: C_10  and  C_12
REMARK    6  A    between atoms: C_12  and  O_13
REMARK    7  A    between atoms: O_13  and  C_14
REMARK    8  A    between atoms: C_14  and  C_16
REMARK    9  A    between atoms: C_16  and  O_17
REMARK                            x       y       z     vdW  Elec       q    Type
REMARK                         _______ _______ _______ _____ _____    ______ ____
ROOT
ATOM      1  C   UNK     1      38.726 -26.021 -14.409  0.00  0.00    +0.047 C 
ENDROOT
BRANCH   1   2
ATOM      2  N   UNK     1      38.684 -25.890 -12.952  0.00  0.00    +0.389 N 
ATOM      3  H   UNK     1      39.552 -26.249 -12.552  0.00  0.00    -0.088 HD
ATOM      4  H   UNK     1      37.895 -26.422 -12.584  0.00  0.00    -0.088 HD
ATOM      5  H   UNK     1      38.577 -24.907 -12.701  0.00  0.00    -0.088 HD
ENDBRANCH   1   2
BRANCH   1   7
ATOM      6  O   UNK     1      40.828 -24.796 -14.190  0.00  0.00    -0.253 OA
ATOM      7  C   UNK     1      40.083 -25.504 -14.856  0.00  0.00    +0.293 C 
BRANCH   7   8
ATOM      8  O   UNK     1      40.407 -25.937 -16.103  0.00  0.00    -0.482 OA
ATOM      9  H   UNK     1      40.100 -25.471 -16.856  0.00  0.00    +0.295 HD
ENDBRANCH   7   8
ENDBRANCH   1   7
BRANCH   1  10
ATOM     10  C   UNK     1      37.607 -25.184 -15.026  0.00  0.00    +0.099 C 
BRANCH  10  12
ATOM     11  O   UNK     1      37.614 -23.091 -13.820  0.00  0.00    -0.250 OA
ATOM     12  C   UNK     1      37.079 -24.170 -14.038  0.00  0.00    +0.316 C 
BRANCH  12  13
ATOM     13  O   UNK     1      35.931 -24.629 -13.465  0.00  0.00    -0.436 OA
BRANCH  13  14
ATOM     14  C   UNK     1      35.429 -23.846 -12.378  0.00  0.00    +0.316 C 
BRANCH  14  16
ATOM     15  O   UNK     1      35.241 -25.101 -10.306  0.00  0.00    -0.246 OA
ATOM     16  C   UNK     1      35.905 -24.420 -11.073  0.00  0.00    +0.359 C 
BRANCH  16  17
ATOM     17  O   UNK     1      37.200 -24.075 -10.855  0.00  0.00    -0.478 OA
ATOM     18  H   UNK     1      37.454 -23.174 -10.874  0.00  0.00    +0.295 HD
ENDBRANCH  16  17
ENDBRANCH  14  16
ENDBRANCH  13  14
ENDBRANCH  12  13
ENDBRANCH  10  12
ENDBRANCH   1  10
TORSDOF 9
ENDMDL
MODEL 2
REMARK VINA RESULT:      -6.3      1.921      2.709
REMARK  Name = 17753844
REMARK  9 active torsions:
REMARK  status: ('A' for Active; 'I' for Inactive)
REMARK    1  A    between atoms: C_1  and  N_2
REMARK    2  A    between atoms: C_1  and  C_7
REMARK    3  A    between atoms: C_1  and  C_10
REMARK    4  A    between atoms: C_7  and  O_8
REMARK    5  A    between atoms: C_10  and  C_12
REMARK    6  A    between atoms: C_12  and  O_13
REMARK    7  A    between atoms: O_13  and  C_14
REMARK    8  A    between atoms: C_14  and  C_16
REMARK    9  A    between atoms: C_16  and  O_17
REMARK                            x       y       z     vdW  Elec       q    Type
REMARK                         _______ _______ _______ _____ _____    ______ ____
ROOT
ATOM      1  C   UNK     1      38.139 -26.229 -14.622  0.00  0.00    +0.047 C 
ENDROOT
BRANCH   1   2
ATOM      2  N   UNK     1      38.554 -24.984 -15.272  0.00  0.00    +0.389 N 
ATOM      3  H   UNK     1      38.218 -24.188 -14.728  0.00  0.00    -0.088 HD
ATOM      4  H   UNK     1      38.162 -24.943 -16.212  0.00  0.00    -0.088 HD
ATOM      5  H   UNK     1      39.573 -24.951 -15.326  0.00  0.00    -0.088 HD
ENDBRANCH   1   2
BRANCH   1   7
ATOM      6  O   UNK     1      36.670 -27.315 -16.244  0.00  0.00    -0.253 OA
ATOM      7  C   UNK     1      36.809 -26.624 -15.243  0.00  0.00    +0.293 C 
BRANCH   7   8
ATOM      8  O   UNK     1      35.754 -26.133 -14.540  0.00  0.00    -0.482 OA
ATOM      9  H   UNK     1      35.876 -25.832 -13.661  0.00  0.00    +0.295 HD
ENDBRANCH   7   8
ENDBRANCH   1   7
BRANCH   1  10
ATOM     10  C   UNK     1      37.977 -25.988 -13.122  0.00  0.00    +0.099 C 
BRANCH  10  12
ATOM     11  O   UNK     1      39.214 -24.005 -12.509  0.00  0.00    -0.250 OA
ATOM     12  C   UNK     1      38.141 -24.524 -12.786  0.00  0.00    +0.316 C 
BRANCH  12  13
ATOM     13  O   UNK     1      36.936 -23.889 -12.865  0.00  0.00    -0.436 OA
BRANCH  13  14
ATOM     14  C   UNK     1      36.440 -23.354 -11.634  0.00  0.00    +0.316 C 
BRANCH  14  16
ATOM     15  O   UNK     1      35.416 -24.550  -9.784  0.00  0.00    -0.246 OA
ATOM     16  C   UNK     1      35.515 -24.344 -10.984  0.00  0.00    +0.359 C 
BRANCH  16  17
ATOM     17  O   UNK     1      34.787 -24.994 -11.928  0.00  0.00    -0.478 OA
ATOM     18  H   UNK     1      35.220 -25.491 -12.593  0.00  0.00    +0.295 HD
ENDBRANCH  16  17
ENDBRANCH  14  16
ENDBRANCH  13  14
ENDBRANCH  12  13
ENDBRANCH  10  12
ENDBRANCH   1  10
TORSDOF 9
ENDMDL
MODEL 3
REMARK VINA RESULT:      -6.2      1.685      4.838
REMARK  Name = 17753844
REMARK  9 active torsions:
REMARK  status: ('A' for Active; 'I' for Inactive)
REMARK    1  A    between atoms: C_1  and  N_2
REMARK    2  A    between atoms: C_1  and  C_7
REMARK    3  A    between atoms: C_1  and  C_10
REMARK    4  A    between atoms: C_7  and  O_8
REMARK    5  A    between atoms: C_10  and  C_12
REMARK    6  A    between atoms: C_12  and  O_13
REMARK    7  A    between atoms: O_13  and  C_14
REMARK    8  A    between atoms: C_14  and  C_16
REMARK    9  A    between atoms: C_16  and  O_17
REMARK                            x       y       z     vdW  Elec       q    Type
REMARK                         _______ _______ _______ _____ _____    ______ ____
ROOT
ATOM      1  C   UNK     1      35.904 -24.353 -12.424  0.00  0.00    +0.047 C 
ENDROOT
BRANCH   1   2
ATOM      2  N   UNK     1      35.816 -23.207 -13.331  0.00  0.00    +0.389 N 
ATOM      3  H   UNK     1      35.264 -23.464 -14.150  0.00  0.00    -0.088 HD
ATOM      4  H   UNK     1      36.753 -22.932 -13.624  0.00  0.00    -0.088 HD
ATOM      5  H   UNK     1      35.367 -22.427 -12.851  0.00  0.00    -0.088 HD
ENDBRANCH   1   2
BRANCH   1   7
ATOM      6  O   UNK     1      36.170 -24.136 -10.005  0.00  0.00    -0.253 OA
ATOM      7  C   UNK     1      36.535 -23.846 -11.138  0.00  0.00    +0.293 C 
BRANCH   7   8
ATOM      8  O   UNK     1      37.592 -23.027 -11.378  0.00  0.00    -0.482 OA
ATOM      9  H   UNK     1      37.651 -22.563 -12.191  0.00  0.00    +0.295 HD
ENDBRANCH   7   8
ENDBRANCH   1   7
BRANCH   1  10
ATOM     10  C   UNK     1      36.779 -25.434 -13.057  0.00  0.00    +0.099 C 
BRANCH  10  12
ATOM     11  O   UNK     1      36.178 -25.245 -15.389  0.00  0.00    -0.250 OA
ATOM     12  C   UNK     1      37.031 -25.142 -14.518  0.00  0.00    +0.316 C 
BRANCH  12  13
ATOM     13  O   UNK     1      38.319 -24.734 -14.696  0.00  0.00    -0.436 OA
BRANCH  13  14
ATOM     14  C   UNK     1      39.278 -25.308 -13.802  0.00  0.00    +0.316 C 
BRANCH  14  16
ATOM     15  O   UNK     1      41.250 -26.688 -14.127  0.00  0.00    -0.246 OA
ATOM     16  C   UNK     1      40.369 -25.978 -14.588  0.00  0.00    +0.359 C 
BRANCH  16  17
ATOM     17  O   UNK     1      40.246 -25.684 -15.908  0.00  0.00    -0.478 OA
ATOM     18  H   UNK     1      39.796 -24.906 -16.174  0.00  0.00    +0.295 HD
ENDBRANCH  16  17
ENDBRANCH  14  16
ENDBRANCH  13  14
ENDBRANCH  12  13
ENDBRANCH  10  12
ENDBRANCH   1  10
TORSDOF 9
ENDMDL
MODEL 4
REMARK VINA RESULT:      -6.1      1.706      4.866
REMARK  Name = 17753844
REMARK  9 active torsions:
REMARK  status: ('A' for Active; 'I' for Inactive)
REMARK    1  A    between atoms: C_1  and  N_2
REMARK    2  A    between atoms: C_1  and  C_7
REMARK    3  A    between atoms: C_1  and  C_10
REMARK    4  A    between atoms: C_7  and  O_8
REMARK    5  A    between atoms: C_10  and  C_12
REMARK    6  A    between atoms: C_12  and  O_13
REMARK    7  A    between atoms: O_13  and  C_14
REMARK    8  A    between atoms: C_14  and  C_16
REMARK    9  A    between atoms: C_16  and  O_17
REMARK                            x       y       z     vdW  Elec       q    Type
REMARK                         _______ _______ _______ _____ _____    ______ ____
ROOT
ATOM      1  C   UNK     1      35.961 -24.338 -12.368  0.00  0.00    +0.047 C 
ENDROOT
BRANCH   1   2
ATOM      2  N   UNK     1      35.745 -23.259 -13.333  0.00  0.00    +0.389 N 
ATOM      3  H   UNK     1      35.898 -22.358 -12.877  0.00  0.00    -0.088 HD
ATOM      4  H   UNK     1      34.789 -23.303 -13.685  0.00  0.00    -0.088 HD
ATOM      5  H   UNK     1      36.398 -23.360 -14.110  0.00  0.00    -0.088 HD
ENDBRANCH   1   2
BRANCH   1   7
ATOM      6  O   UNK     1      37.592 -22.910 -11.241  0.00  0.00    -0.253 OA
ATOM      7  C   UNK     1      36.679 -23.724 -11.178  0.00  0.00    +0.293 C 
BRANCH   7   8
ATOM      8  O   UNK     1      36.176 -24.167  -9.996  0.00  0.00    -0.482 OA
ATOM      9  H   UNK     1      35.419 -23.756  -9.624  0.00  0.00    +0.295 HD
ENDBRANCH   7   8
ENDBRANCH   1   7
BRANCH   1  10
ATOM     10  C   UNK     1      36.824 -25.425 -13.008  0.00  0.00    +0.099 C 
BRANCH  10  12
ATOM     11  O   UNK     1      36.584 -25.131 -15.394  0.00  0.00    -0.250 OA
ATOM     12  C   UNK     1      37.275 -25.016 -14.391  0.00  0.00    +0.316 C 
BRANCH  12  13
ATOM     13  O   UNK     1      38.532 -24.490 -14.335  0.00  0.00    -0.436 OA
BRANCH  13  14
ATOM     14  C   UNK     1      39.502 -25.283 -13.644  0.00  0.00    +0.316 C 
BRANCH  14  16
ATOM     15  O   UNK     1      40.409 -25.771 -15.844  0.00  0.00    -0.246 OA
ATOM     16  C   UNK     1      40.418 -25.945 -14.635  0.00  0.00    +0.359 C 
BRANCH  16  17
ATOM     17  O   UNK     1      41.274 -26.781 -13.995  0.00  0.00    -0.478 OA
ATOM     18  H   UNK     1      42.162 -26.520 -13.850  0.00  0.00    +0.295 HD
ENDBRANCH  16  17
ENDBRANCH  14  16
ENDBRANCH  13  14
ENDBRANCH  12  13
ENDBRANCH  10  12
ENDBRANCH   1  10
TORSDOF 9
ENDMDL
MODEL 5
REMARK VINA RESULT:      -6.0      1.926      4.477
REMARK  Name = 17753844
REMARK  9 active torsions:
REMARK  status: ('A' for Active; 'I' for Inactive)
REMARK    1  A    between atoms: C_1  and  N_2
REMARK    2  A    between atoms: C_1  and  C_7
REMARK    3  A    between atoms: C_1  and  C_10
REMARK    4  A    between atoms: C_7  and  O_8
REMARK    5  A    between atoms: C_10  and  C_12
REMARK    6  A    between atoms: C_12  and  O_13
REMARK    7  A    between atoms: O_13  and  C_14
REMARK    8  A    between atoms: C_14  and  C_16
REMARK    9  A    between atoms: C_16  and  O_17
REMARK                            x       y       z     vdW  Elec       q    Type
REMARK                         _______ _______ _______ _____ _____    ______ ____
ROOT
ATOM      1  C   UNK     1      36.203 -23.345 -11.789  0.00  0.00    +0.047 C 
ENDROOT
BRANCH   1   2
ATOM      2  N   UNK     1      37.616 -23.017 -11.585  0.00  0.00    +0.389 N 
ATOM      3  H   UNK     1      37.692 -22.102 -11.139  0.00  0.00    -0.088 HD
ATOM      4  H   UNK     1      38.094 -22.996 -12.486  0.00  0.00    -0.088 HD
ATOM      5  H   UNK     1      38.047 -23.723 -10.988  0.00  0.00    -0.088 HD
ENDBRANCH   1   2
BRANCH   1   7
ATOM      6  O   UNK     1      35.329 -24.491  -9.816  0.00  0.00    -0.253 OA
ATOM      7  C   UNK     1      35.899 -24.539 -10.899  0.00  0.00    +0.293 C 
BRANCH   7   8
ATOM      8  O   UNK     1      36.318 -25.707 -11.454  0.00  0.00    -0.482 OA
ATOM      9  H   UNK     1      36.687 -26.377 -10.913  0.00  0.00    +0.295 HD
ENDBRANCH   7   8
ENDBRANCH   1   7
BRANCH   1  10
ATOM     10  C   UNK     1      35.972 -23.700 -13.257  0.00  0.00    +0.099 C 
BRANCH  10  12
ATOM     11  O   UNK     1      37.615 -22.789 -14.776  0.00  0.00    -0.250 OA
ATOM     12  C   UNK     1      37.272 -23.695 -14.028  0.00  0.00    +0.316 C 
BRANCH  12  13
ATOM     13  O   UNK     1      37.988 -24.819 -13.744  0.00  0.00    -0.436 OA
BRANCH  13  14
ATOM     14  C   UNK     1      38.190 -25.715 -14.841  0.00  0.00    +0.316 C 
BRANCH  14  16
ATOM     15  O   UNK     1      36.392 -26.914 -15.950  0.00  0.00    -0.246 OA
ATOM     16  C   UNK     1      37.031 -26.668 -14.939  0.00  0.00    +0.359 C 
BRANCH  16  17
ATOM     17  O   UNK     1      36.784 -27.231 -13.729  0.00  0.00    -0.478 OA
ATOM     18  H   UNK     1      37.165 -26.865 -12.955  0.00  0.00    +0.295 HD
ENDBRANCH  16  17
ENDBRANCH  14  16
ENDBRANCH  13  14
ENDBRANCH  12  13
ENDBRANCH  10  12
ENDBRANCH   1  10
TORSDOF 9
ENDMDL
MODEL 6
REMARK VINA RESULT:      -6.0      1.487      2.254
REMARK  Name = 17753844
REMARK  9 active torsions:
REMARK  status: ('A' for Active; 'I' for Inactive)
REMARK    1  A    between atoms: C_1  and  N_2
REMARK    2  A    between atoms: C_1  and  C_7
REMARK    3  A    between atoms: C_1  and  C_10
REMARK    4  A    between atoms: C_7  and  O_8
REMARK    5  A    between atoms: C_10  and  C_12
REMARK    6  A    between atoms: C_12  and  O_13
REMARK    7  A    between atoms: O_13  and  C_14
REMARK    8  A    between atoms: C_14  and  C_16
REMARK    9  A    between atoms: C_16  and  O_17
REMARK                            x       y       z     vdW  Elec       q    Type
REMARK                         _______ _______ _______ _____ _____    ______ ____
ROOT
ATOM      1  C   UNK     1      39.047 -25.291 -14.387  0.00  0.00    +0.047 C 
ENDROOT
BRANCH   1   2
ATOM      2  N   UNK     1      37.979 -25.791 -15.254  0.00  0.00    +0.389 N 
ATOM      3  H   UNK     1      37.277 -25.061 -15.385  0.00  0.00    -0.088 HD
ATOM      4  H   UNK     1      37.545 -26.607 -14.824  0.00  0.00    -0.088 HD
ATOM      5  H   UNK     1      38.370 -26.052 -16.160  0.00  0.00    -0.088 HD
ENDBRANCH   1   2
BRANCH   1   7
ATOM      6  O   UNK     1      41.140 -26.516 -14.094  0.00  0.00    -0.253 OA
ATOM      7  C   UNK     1      40.330 -25.973 -14.834  0.00  0.00    +0.293 C 
BRANCH   7   8
ATOM      8  O   UNK     1      40.482 -25.936 -16.183  0.00  0.00    -0.482 OA
ATOM      9  H   UNK     1      40.119 -26.618 -16.715  0.00  0.00    +0.295 HD
ENDBRANCH   7   8
ENDBRANCH   1   7
BRANCH   1  10
ATOM     10  C   UNK     1      38.731 -25.648 -12.936  0.00  0.00    +0.099 C 
BRANCH  10  12
ATOM     11  O   UNK     1      37.787 -24.473 -11.047  0.00  0.00    -0.250 OA
ATOM     12  C   UNK     1      37.966 -24.536 -12.256  0.00  0.00    +0.316 C 
BRANCH  12  13
ATOM     13  O   UNK     1      37.541 -23.629 -13.181  0.00  0.00    -0.436 OA
BRANCH  13  14
ATOM     14  C   UNK     1      36.168 -23.240 -13.079  0.00  0.00    +0.316 C 
BRANCH  14  16
ATOM     15  O   UNK     1      35.064 -24.897 -14.470  0.00  0.00    -0.246 OA
ATOM     16  C   UNK     1      35.283 -24.420 -13.367  0.00  0.00    +0.359 C 
BRANCH  16  17
ATOM     17  O   UNK     1      34.746 -24.896 -12.215  0.00  0.00    -0.478 OA
ATOM     18  H   UNK     1      34.563 -24.311 -11.507  0.00  0.00    +0.295 HD
ENDBRANCH  16  17
ENDBRANCH  14  16
ENDBRANCH  13  14
ENDBRANCH  12  13
ENDBRANCH  10  12
ENDBRANCH   1  10
TORSDOF 9
ENDMDL
MODEL 7
REMARK VINA RESULT:      -5.8      1.975      4.351
REMARK  Name = 17753844
REMARK  9 active torsions:
REMARK  status: ('A' for Active; 'I' for Inactive)
REMARK    1  A    between atoms: C_1  and  N_2
REMARK    2  A    between atoms: C_1  and  C_7
REMARK    3  A    between atoms: C_1  and  C_10
REMARK    4  A    between atoms: C_7  and  O_8
REMARK    5  A    between atoms: C_10  and  C_12
REMARK    6  A    between atoms: C_12  and  O_13
REMARK    7  A    between atoms: O_13  and  C_14
REMARK    8  A    between atoms: C_14  and  C_16
REMARK    9  A    between atoms: C_16  and  O_17
REMARK                            x       y       z     vdW  Elec       q    Type
REMARK                         _______ _______ _______ _____ _____    ______ ____
ROOT
ATOM      1  C   UNK     1      36.089 -24.088 -14.254  0.00  0.00    +0.047 C 
ENDROOT
BRANCH   1   2
ATOM      2  N   UNK     1      35.825 -25.470 -14.659  0.00  0.00    +0.389 N 
ATOM      3  H   UNK     1      34.908 -25.524 -15.104  0.00  0.00    -0.088 HD
ATOM      4  H   UNK     1      35.841 -26.074 -13.838  0.00  0.00    -0.088 HD
ATOM      5  H   UNK     1      36.540 -25.774 -15.319  0.00  0.00    -0.088 HD
ENDBRANCH   1   2
BRANCH   1   7
ATOM      6  O   UNK     1      37.892 -23.046 -15.531  0.00  0.00    -0.253 OA
ATOM      7  C   UNK     1      36.721 -23.394 -15.449  0.00  0.00    +0.293 C 
BRANCH   7   8
ATOM      8  O   UNK     1      35.831 -23.211 -16.460  0.00  0.00    -0.482 OA
ATOM      9  H   UNK     1      36.065 -23.438 -17.338  0.00  0.00    +0.295 HD
ENDBRANCH   7   8
ENDBRANCH   1   7
BRANCH   1  10
ATOM     10  C   UNK     1      37.050 -24.084 -13.066  0.00  0.00    +0.099 C 
BRANCH  10  12
ATOM     11  O   UNK     1      36.448 -25.868 -11.552  0.00  0.00    -0.250 OA
ATOM     12  C   UNK     1      37.166 -25.461 -12.456  0.00  0.00    +0.316 C 
BRANCH  12  13
ATOM     13  O   UNK     1      38.156 -26.164 -13.076  0.00  0.00    -0.436 OA
BRANCH  13  14
ATOM     14  C   UNK     1      39.352 -25.430 -13.354  0.00  0.00    +0.316 C 
BRANCH  14  16
ATOM     15  O   UNK     1      41.017 -25.779 -15.087  0.00  0.00    -0.246 OA
ATOM     16  C   UNK     1      39.849 -25.769 -14.731  0.00  0.00    +0.359 C 
BRANCH  16  17
ATOM     17  O   UNK     1      38.805 -26.070 -15.545  0.00  0.00    -0.478 OA
ATOM     18  H   UNK     1      38.624 -25.534 -16.292  0.00  0.00    +0.295 HD
ENDBRANCH  16  17
ENDBRANCH  14  16
ENDBRANCH  13  14
ENDBRANCH  12  13
ENDBRANCH  10  12
ENDBRANCH   1  10
TORSDOF 9
ENDMDL
MODEL 8
REMARK VINA RESULT:      -5.5      1.959      5.007
REMARK  Name = 17753844
REMARK  9 active torsions:
REMARK  status: ('A' for Active; 'I' for Inactive)
REMARK    1  A    between atoms: C_1  and  N_2
REMARK    2  A    between atoms: C_1  and  C_7
REMARK    3  A    between atoms: C_1  and  C_10
REMARK    4  A    between atoms: C_7  and  O_8
REMARK    5  A    between atoms: C_10  and  C_12
REMARK    6  A    between atoms: C_12  and  O_13
REMARK    7  A    between atoms: O_13  and  C_14
REMARK    8  A    between atoms: C_14  and  C_16
REMARK    9  A    between atoms: C_16  and  O_17
REMARK                            x       y       z     vdW  Elec       q    Type
REMARK                         _______ _______ _______ _____ _____    ______ ____
ROOT
ATOM      1  C   UNK     1      35.784 -24.394 -14.186  0.00  0.00    +0.047 C 
ENDROOT
BRANCH   1   2
ATOM      2  N   UNK     1      36.849 -23.617 -13.547  0.00  0.00    +0.389 N 
ATOM      3  H   UNK     1      36.894 -23.854 -12.556  0.00  0.00    -0.088 HD
ATOM      4  H   UNK     1      36.653 -22.622 -13.651  0.00  0.00    -0.088 HD
ATOM      5  H   UNK     1      37.742 -23.836 -13.989  0.00  0.00    -0.088 HD
ENDBRANCH   1   2
BRANCH   1   7
ATOM      6  O   UNK     1      34.577 -23.855 -12.132  0.00  0.00    -0.253 OA
ATOM      7  C   UNK     1      34.580 -24.330 -13.261  0.00  0.00    +0.293 C 
BRANCH   7   8
ATOM      8  O   UNK     1      33.467 -24.853 -13.838  0.00  0.00    -0.482 OA
ATOM      9  H   UNK     1      32.787 -25.214 -13.303  0.00  0.00    +0.295 HD
ENDBRANCH   7   8
ENDBRANCH   1   7
BRANCH   1  10
ATOM     10  C   UNK     1      36.247 -25.839 -14.361  0.00  0.00    +0.099 C 
BRANCH  10  12
ATOM     11  O   UNK     1      36.952 -26.205 -12.080  0.00  0.00    -0.250 OA
ATOM     12  C   UNK     1      37.219 -26.234 -13.274  0.00  0.00    +0.316 C 
BRANCH  12  13
ATOM     13  O   UNK     1      38.397 -26.641 -13.826  0.00  0.00    -0.436 OA
BRANCH  13  14
ATOM     14  C   UNK     1      39.475 -25.705 -13.735  0.00  0.00    +0.316 C 
BRANCH  14  16
ATOM     15  O   UNK     1      40.709 -25.917 -15.817  0.00  0.00    -0.246 OA
ATOM     16  C   UNK     1      39.919 -25.305 -15.115  0.00  0.00    +0.359 C 
BRANCH  16  17
ATOM     17  O   UNK     1      39.314 -24.148 -15.484  0.00  0.00    -0.478 OA
ATOM     18  H   UNK     1      38.534 -23.867 -15.047  0.00  0.00    +0.295 HD
ENDBRANCH  16  17
ENDBRANCH  14  16
ENDBRANCH  13  14
ENDBRANCH  12  13
ENDBRANCH  10  12
ENDBRANCH   1  10
TORSDOF 9
ENDMDL
MODEL 9
REMARK VINA RESULT:      -5.5      2.524      2.860
REMARK  Name = 17753844
REMARK  9 active torsions:
REMARK  status: ('A' for Active; 'I' for Inactive)
REMARK    1  A    between atoms: C_1  and  N_2
REMARK    2  A    between atoms: C_1  and  C_7
REMARK    3  A    between atoms: C_1  and  C_10
REMARK    4  A    between atoms: C_7  and  O_8
REMARK    5  A    between atoms: C_10  and  C_12
REMARK    6  A    between atoms: C_12  and  O_13
REMARK    7  A    between atoms: O_13  and  C_14
REMARK    8  A    between atoms: C_14  and  C_16
REMARK    9  A    between atoms: C_16  and  O_17
REMARK                            x       y       z     vdW  Elec       q    Type
REMARK                         _______ _______ _______ _____ _____    ______ ____
ROOT
ATOM      1  C   UNK     1      36.213 -25.318 -15.258  0.00  0.00    +0.047 C 
ENDROOT
BRANCH   1   2
ATOM      2  N   UNK     1      34.902 -25.269 -14.608  0.00  0.00    +0.389 N 
ATOM      3  H   UNK     1      34.616 -24.296 -14.492  0.00  0.00    -0.088 HD
ATOM      4  H   UNK     1      34.957 -25.718 -13.694  0.00  0.00    -0.088 HD
ATOM      5  H   UNK     1      34.217 -25.757 -15.186  0.00  0.00    -0.088 HD
ENDBRANCH   1   2
BRANCH   1   7
ATOM      6  O   UNK     1      36.824 -27.481 -16.215  0.00  0.00    -0.253 OA
ATOM      7  C   UNK     1      36.661 -26.770 -15.231  0.00  0.00    +0.293 C 
BRANCH   7   8
ATOM      8  O   UNK     1      36.888 -27.210 -13.966  0.00  0.00    -0.482 OA
ATOM      9  H   UNK     1      37.767 -27.323 -13.660  0.00  0.00    +0.295 HD
ENDBRANCH   7   8
ENDBRANCH   1   7
BRANCH   1  10
ATOM     10  C   UNK     1      37.196 -24.443 -14.482  0.00  0.00    +0.099 C 
BRANCH  10  12
ATOM     11  O   UNK     1      35.888 -22.431 -14.760  0.00  0.00    -0.250 OA
ATOM     12  C   UNK     1      36.539 -23.161 -14.025  0.00  0.00    +0.316 C 
BRANCH  12  13
ATOM     13  O   UNK     1      36.762 -22.971 -12.693  0.00  0.00    -0.436 OA
BRANCH  13  14
ATOM     14  C   UNK     1      37.077 -24.150 -11.947  0.00  0.00    +0.316 C 
BRANCH  14  16
ATOM     15  O   UNK     1      35.989 -24.191  -9.775  0.00  0.00    -0.246 OA
ATOM     16  C   UNK     1      35.973 -24.444 -10.970  0.00  0.00    +0.359 C 
BRANCH  16  17
ATOM     17  O   UNK     1      34.933 -25.043 -11.605  0.00  0.00    -0.478 OA
ATOM     18  H   UNK     1      34.327 -24.528 -12.099  0.00  0.00    +0.295 HD
ENDBRANCH  16  17
ENDBRANCH  14  16
ENDBRANCH  13  14
ENDBRANCH  12  13
ENDBRANCH  10  12
ENDBRANCH   1  10
TORSDOF 9
ENDMDL
