MODEL 1
REMARK VINA RESULT:     -10.6      0.000      0.000
REMARK  Name = 4199
REMARK  4 active torsions:
REMARK  status: ('A' for Active; 'I' for Inactive)
REMARK    1  A    between atoms: N_1  and  C_16
REMARK    2  A    between atoms: C_7  and  C_10
REMARK    3  A    between atoms: C_16  and  C_17
REMARK    4  A    between atoms: C_17  and  N_19
REMARK                            x       y       z     vdW  Elec       q    Type
REMARK                         _______ _______ _______ _____ _____    ______ ____
ROOT
ATOM      1  N   UNL     1      36.068 -22.301 -17.457  0.00  0.00    -0.319 N 
ATOM      2  N   UNL     1      36.758 -20.580 -18.940  0.00  0.00    -0.133 NA
ATOM      3  N   UNL     1      36.528 -19.772 -20.009  0.00  0.00    -0.147 NA
ATOM      4  C   UNL     1      35.816 -21.490 -18.542  0.00  0.00    +0.146 C 
ATOM      5  C   UNL     1      34.606 -21.598 -19.233  0.00  0.00    +0.013 C 
ATOM      6  C   UNL     1      34.372 -20.775 -20.321  0.00  0.00    +0.019 C 
ATOM      7  C   UNL     1      35.359 -19.878 -20.674  0.00  0.00    +0.103 C 
ATOM      8  C   UNL     1      33.567 -22.583 -18.816  0.00  0.00    +0.034 C 
ATOM      9  H   UNL     1      35.378 -22.949 -17.187  0.00  0.00    +0.148 HD
ENDROOT
BRANCH   7  10
ATOM     10  C   UNL     1      35.201 -18.983 -21.794  0.00  0.00    +0.019 C 
ATOM     11  C   UNL     1      35.335 -17.603 -21.615  0.00  0.00    +0.002 C 
ATOM     12  C   UNL     1      34.914 -19.489 -23.064  0.00  0.00    +0.002 C 
ATOM     13  C   UNL     1      35.183 -16.737 -22.698  0.00  0.00    +0.000 C 
ATOM     14  C   UNL     1      34.762 -18.623 -24.146  0.00  0.00    +0.000 C 
ATOM     15  C   UNL     1      34.896 -17.247 -23.964  0.00  0.00    +0.000 C 
ENDBRANCH   7  10
BRANCH   1  16
ATOM     16  C   UNL     1      37.305 -22.246 -16.688  0.00  0.00    +0.066 C 
BRANCH  16  17
ATOM     17  C   UNL     1      37.111 -22.899 -15.325  0.00  0.00    -0.056 C 
BRANCH  17  19
ATOM     18  O   UNL     1      37.829 -26.894 -14.256  0.00  0.00    -0.358 OA
ATOM     19  N   UNL     1      37.482 -24.312 -15.401  0.00  0.00    +0.391 N 
ATOM     20  C   UNL     1      36.333 -25.169 -15.079  0.00  0.00    -0.045 C 
ATOM     21  C   UNL     1      38.601 -24.606 -14.494  0.00  0.00    -0.045 C 
ATOM     22  C   UNL     1      36.747 -26.637 -15.152  0.00  0.00    +0.119 C 
ATOM     23  C   UNL     1      38.960 -26.086 -14.582  0.00  0.00    +0.119 C 
ATOM     24  H   UNL     1      37.777 -24.507 -16.358  0.00  0.00    -0.079 HD
ENDBRANCH  17  19
ENDBRANCH  16  17
ENDBRANCH   1  16
TORSDOF 4
ENDMDL
MODEL 2
REMARK VINA RESULT:     -10.3      6.150     11.262
REMARK  Name = 4199
REMARK  4 active torsions:
REMARK  status: ('A' for Active; 'I' for Inactive)
REMARK    1  A    between atoms: N_1  and  C_16
REMARK    2  A    between atoms: C_7  and  C_10
REMARK    3  A    between atoms: C_16  and  C_17
REMARK    4  A    between atoms: C_17  and  N_19
REMARK                            x       y       z     vdW  Elec       q    Type
REMARK                         _______ _______ _______ _____ _____    ______ ____
ROOT
ATOM      1  N   UNL     1      34.399 -15.192 -23.730  0.00  0.00    -0.319 N 
ATOM      2  N   UNL     1      34.388 -16.334 -21.649  0.00  0.00    -0.133 NA
ATOM      3  N   UNL     1      34.460 -17.484 -20.925  0.00  0.00    -0.147 NA
ATOM      4  C   UNL     1      34.474 -16.367 -23.014  0.00  0.00    +0.146 C 
ATOM      5  C   UNL     1      34.636 -17.585 -23.681  0.00  0.00    +0.013 C 
ATOM      6  C   UNL     1      34.708 -18.755 -22.944  0.00  0.00    +0.019 C 
ATOM      7  C   UNL     1      34.616 -18.659 -21.571  0.00  0.00    +0.103 C 
ATOM      8  C   UNL     1      34.730 -17.643 -25.168  0.00  0.00    +0.034 C 
ATOM      9  H   UNL     1      34.462 -15.237 -24.712  0.00  0.00    +0.148 HD
ENDROOT
BRANCH   7  10
ATOM     10  C   UNL     1      34.681 -19.825 -20.725  0.00  0.00    +0.019 C 
ATOM     11  C   UNL     1      35.920 -20.339 -20.333  0.00  0.00    +0.002 C 
ATOM     12  C   UNL     1      33.507 -20.446 -20.293  0.00  0.00    +0.002 C 
ATOM     13  C   UNL     1      35.984 -21.467 -19.514  0.00  0.00    +0.000 C 
ATOM     14  C   UNL     1      33.571 -21.574 -19.475  0.00  0.00    +0.000 C 
ATOM     15  C   UNL     1      34.809 -22.085 -19.085  0.00  0.00    +0.000 C 
ENDBRANCH   7  10
BRANCH   1  16
ATOM     16  C   UNL     1      34.230 -13.885 -23.106  0.00  0.00    +0.066 C 
BRANCH  16  17
ATOM     17  C   UNL     1      33.588 -12.910 -24.084  0.00  0.00    -0.056 C 
BRANCH  17  19
ATOM     18  O   UNL     1      33.746  -8.717 -24.015  0.00  0.00    -0.358 OA
ATOM     19  N   UNL     1      33.935 -11.540 -23.710  0.00  0.00    +0.391 N 
ATOM     20  C   UNL     1      32.741 -10.800 -23.281  0.00  0.00    -0.045 C 
ATOM     21  C   UNL     1      34.585 -10.842 -24.829  0.00  0.00    -0.045 C 
ATOM     22  C   UNL     1      33.125  -9.370 -22.908  0.00  0.00    +0.119 C 
ATOM     23  C   UNL     1      34.926  -9.413 -24.419  0.00  0.00    +0.119 C 
ATOM     24  H   UNL     1      34.590 -11.585 -22.930  0.00  0.00    -0.079 HD
ENDBRANCH  17  19
ENDBRANCH  16  17
ENDBRANCH   1  16
TORSDOF 4
ENDMDL
MODEL 3
REMARK VINA RESULT:     -10.3      5.775     10.846
REMARK  Name = 4199
REMARK  4 active torsions:
REMARK  status: ('A' for Active; 'I' for Inactive)
REMARK    1  A    between atoms: N_1  and  C_16
REMARK    2  A    between atoms: C_7  and  C_10
REMARK    3  A    between atoms: C_16  and  C_17
REMARK    4  A    between atoms: C_17  and  N_19
REMARK                            x       y       z     vdW  Elec       q    Type
REMARK                         _______ _______ _______ _____ _____    ______ ____
ROOT
ATOM      1  N   UNL     1      34.355 -15.225 -23.687  0.00  0.00    -0.319 N 
ATOM      2  N   UNL     1      34.370 -16.370 -21.607  0.00  0.00    -0.133 NA
ATOM      3  N   UNL     1      34.459 -17.519 -20.885  0.00  0.00    -0.147 NA
ATOM      4  C   UNL     1      34.447 -16.400 -22.973  0.00  0.00    +0.146 C 
ATOM      5  C   UNL     1      34.618 -17.615 -23.642  0.00  0.00    +0.013 C 
ATOM      6  C   UNL     1      34.708 -18.785 -22.907  0.00  0.00    +0.019 C 
ATOM      7  C   UNL     1      34.623 -18.691 -21.533  0.00  0.00    +0.103 C 
ATOM      8  C   UNL     1      34.703 -17.670 -25.130  0.00  0.00    +0.034 C 
ATOM      9  H   UNL     1      34.412 -15.268 -24.669  0.00  0.00    +0.148 HD
ENDROOT
BRANCH   7  10
ATOM     10  C   UNL     1      34.707 -19.858 -20.689  0.00  0.00    +0.019 C 
ATOM     11  C   UNL     1      33.542 -20.500 -20.262  0.00  0.00    +0.002 C 
ATOM     12  C   UNL     1      35.952 -20.352 -20.295  0.00  0.00    +0.002 C 
ATOM     13  C   UNL     1      33.622 -21.629 -19.446  0.00  0.00    +0.000 C 
ATOM     14  C   UNL     1      36.033 -21.480 -19.479  0.00  0.00    +0.000 C 
ATOM     15  C   UNL     1      34.868 -22.119 -19.054  0.00  0.00    +0.000 C 
ENDBRANCH   7  10
BRANCH   1  16
ATOM     16  C   UNL     1      34.176 -13.920 -23.060  0.00  0.00    +0.066 C 
BRANCH  16  17
ATOM     17  C   UNL     1      33.821 -12.874 -24.108  0.00  0.00    -0.056 C 
BRANCH  17  19
ATOM     18  O   UNL     1      31.722 -10.180 -21.668  0.00  0.00    -0.358 OA
ATOM     19  N   UNL     1      32.771 -11.998 -23.590  0.00  0.00    +0.391 N 
ATOM     20  C   UNL     1      33.245 -10.609 -23.508  0.00  0.00    -0.045 C 
ATOM     21  C   UNL     1      32.316 -12.454 -22.269  0.00  0.00    -0.045 C 
ATOM     22  C   UNL     1      32.137  -9.717 -22.954  0.00  0.00    +0.119 C 
ATOM     23  C   UNL     1      31.231 -11.518 -21.745  0.00  0.00    +0.119 C 
ATOM     24  H   UNL     1      31.984 -12.037 -24.238  0.00  0.00    -0.079 HD
ENDBRANCH  17  19
ENDBRANCH  16  17
ENDBRANCH   1  16
TORSDOF 4
ENDMDL
MODEL 4
REMARK VINA RESULT:     -10.1      3.628      4.796
REMARK  Name = 4199
REMARK  4 active torsions:
REMARK  status: ('A' for Active; 'I' for Inactive)
REMARK    1  A    between atoms: N_1  and  C_16
REMARK    2  A    between atoms: C_7  and  C_10
REMARK    3  A    between atoms: C_16  and  C_17
REMARK    4  A    between atoms: C_17  and  N_19
REMARK                            x       y       z     vdW  Elec       q    Type
REMARK                         _______ _______ _______ _____ _____    ______ ____
ROOT
ATOM      1  N   UNL     1      33.948 -22.505 -18.075  0.00  0.00    -0.319 N 
ATOM      2  N   UNL     1      33.066 -21.083 -19.759  0.00  0.00    -0.133 NA
ATOM      3  N   UNL     1      33.240 -20.185 -20.765  0.00  0.00    -0.147 NA
ATOM      4  C   UNL     1      34.145 -21.597 -19.093  0.00  0.00    +0.146 C 
ATOM      5  C   UNL     1      35.440 -21.203 -19.440  0.00  0.00    +0.013 C 
ATOM      6  C   UNL     1      35.617 -20.289 -20.464  0.00  0.00    +0.019 C 
ATOM      7  C   UNL     1      34.492 -19.806 -21.099  0.00  0.00    +0.103 C 
ATOM      8  C   UNL     1      36.630 -21.750 -18.726  0.00  0.00    +0.034 C 
ATOM      9  H   UNL     1      34.738 -22.863 -17.608  0.00  0.00    +0.148 HD
ENDROOT
BRANCH   7  10
ATOM     10  C   UNL     1      34.582 -18.851 -22.176  0.00  0.00    +0.019 C 
ATOM     11  C   UNL     1      34.612 -17.482 -21.900  0.00  0.00    +0.002 C 
ATOM     12  C   UNL     1      34.640 -19.289 -23.501  0.00  0.00    +0.002 C 
ATOM     13  C   UNL     1      34.700 -16.557 -22.941  0.00  0.00    +0.000 C 
ATOM     14  C   UNL     1      34.727 -18.366 -24.542  0.00  0.00    +0.000 C 
ATOM     15  C   UNL     1      34.757 -17.000 -24.263  0.00  0.00    +0.000 C 
ENDBRANCH   7  10
BRANCH   1  16
ATOM     16  C   UNL     1      32.629 -22.964 -17.656  0.00  0.00    +0.066 C 
BRANCH  16  17
ATOM     17  C   UNL     1      32.659 -23.402 -16.198  0.00  0.00    -0.056 C 
BRANCH  17  19
ATOM     18  O   UNL     1      28.550 -24.067 -15.662  0.00  0.00    -0.358 OA
ATOM     19  N   UNL     1      31.306 -23.359 -15.645  0.00  0.00    +0.391 N 
ATOM     20  C   UNL     1      30.857 -24.705 -15.263  0.00  0.00    -0.045 C 
ATOM     21  C   UNL     1      30.367 -22.769 -16.609  0.00  0.00    -0.045 C 
ATOM     22  C   UNL     1      29.440 -24.637 -14.701  0.00  0.00    +0.119 C 
ATOM     23  C   UNL     1      28.963 -22.746 -16.015  0.00  0.00    +0.119 C 
ATOM     24  H   UNL     1      31.328 -22.773 -14.810  0.00  0.00    -0.079 HD
ENDBRANCH  17  19
ENDBRANCH  16  17
ENDBRANCH   1  16
TORSDOF 4
ENDMDL
MODEL 5
REMARK VINA RESULT:      -9.9      1.512      2.002
REMARK  Name = 4199
REMARK  4 active torsions:
REMARK  status: ('A' for Active; 'I' for Inactive)
REMARK    1  A    between atoms: N_1  and  C_16
REMARK    2  A    between atoms: C_7  and  C_10
REMARK    3  A    between atoms: C_16  and  C_17
REMARK    4  A    between atoms: C_17  and  N_19
REMARK                            x       y       z     vdW  Elec       q    Type
REMARK                         _______ _______ _______ _____ _____    ______ ____
ROOT
ATOM      1  N   UNL     1      36.011 -22.393 -17.278  0.00  0.00    -0.319 N 
ATOM      2  N   UNL     1      36.733 -20.689 -18.765  0.00  0.00    -0.133 NA
ATOM      3  N   UNL     1      36.526 -19.890 -19.846  0.00  0.00    -0.147 NA
ATOM      4  C   UNL     1      35.782 -21.592 -18.376  0.00  0.00    +0.146 C 
ATOM      5  C   UNL     1      34.583 -21.703 -19.086  0.00  0.00    +0.013 C 
ATOM      6  C   UNL     1      34.372 -20.890 -20.186  0.00  0.00    +0.019 C 
ATOM      7  C   UNL     1      35.367 -19.999 -20.531  0.00  0.00    +0.103 C 
ATOM      8  C   UNL     1      33.533 -22.681 -18.679  0.00  0.00    +0.034 C 
ATOM      9  H   UNL     1      35.314 -23.036 -17.014  0.00  0.00    +0.148 HD
ENDROOT
BRANCH   7  10
ATOM     10  C   UNL     1      35.233 -19.114 -21.662  0.00  0.00    +0.019 C 
ATOM     11  C   UNL     1      35.405 -17.737 -21.500  0.00  0.00    +0.002 C 
ATOM     12  C   UNL     1      34.930 -19.629 -22.925  0.00  0.00    +0.002 C 
ATOM     13  C   UNL     1      35.276 -16.881 -22.594  0.00  0.00    +0.000 C 
ATOM     14  C   UNL     1      34.800 -18.773 -24.018  0.00  0.00    +0.000 C 
ATOM     15  C   UNL     1      34.973 -17.399 -23.854  0.00  0.00    +0.000 C 
ENDBRANCH   7  10
BRANCH   1  16
ATOM     16  C   UNL     1      37.235 -22.335 -16.487  0.00  0.00    +0.066 C 
BRANCH  16  17
ATOM     17  C   UNL     1      37.325 -23.542 -15.562  0.00  0.00    -0.056 C 
BRANCH  17  19
ATOM     18  O   UNL     1      34.960 -24.369 -12.196  0.00  0.00    -0.358 OA
ATOM     19  N   UNL     1      36.374 -23.389 -14.462  0.00  0.00    +0.391 N 
ATOM     20  C   UNL     1      37.041 -23.585 -13.167  0.00  0.00    -0.045 C 
ATOM     21  C   UNL     1      35.258 -24.335 -14.603  0.00  0.00    -0.045 C 
ATOM     22  C   UNL     1      36.028 -23.434 -12.036  0.00  0.00    +0.119 C 
ATOM     23  C   UNL     1      34.288 -24.165 -13.438  0.00  0.00    +0.119 C 
ATOM     24  H   UNL     1      36.005 -22.439 -14.498  0.00  0.00    -0.079 HD
ENDBRANCH  17  19
ENDBRANCH  16  17
ENDBRANCH   1  16
TORSDOF 4
ENDMDL
MODEL 6
REMARK VINA RESULT:      -9.7      5.567     10.713
REMARK  Name = 4199
REMARK  4 active torsions:
REMARK  status: ('A' for Active; 'I' for Inactive)
REMARK    1  A    between atoms: N_1  and  C_16
REMARK    2  A    between atoms: C_7  and  C_10
REMARK    3  A    between atoms: C_16  and  C_17
REMARK    4  A    between atoms: C_17  and  N_19
REMARK                            x       y       z     vdW  Elec       q    Type
REMARK                         _______ _______ _______ _____ _____    ______ ____
ROOT
ATOM      1  N   UNL     1      34.588 -16.023 -23.707  0.00  0.00    -0.319 N 
ATOM      2  N   UNL     1      34.563 -16.970 -21.530  0.00  0.00    -0.133 NA
ATOM      3  N   UNL     1      34.588 -18.051 -20.705  0.00  0.00    -0.147 NA
ATOM      4  C   UNL     1      34.614 -17.131 -22.887  0.00  0.00    +0.146 C 
ATOM      5  C   UNL     1      34.693 -18.412 -23.442  0.00  0.00    +0.013 C 
ATOM      6  C   UNL     1      34.717 -19.512 -22.603  0.00  0.00    +0.019 C 
ATOM      7  C   UNL     1      34.663 -19.287 -21.243  0.00  0.00    +0.103 C 
ATOM      8  C   UNL     1      34.748 -18.610 -24.920  0.00  0.00    +0.034 C 
ATOM      9  H   UNL     1      34.626 -16.161 -24.681  0.00  0.00    +0.148 HD
ENDROOT
BRANCH   7  10
ATOM     10  C   UNL     1      34.683 -20.373 -20.295  0.00  0.00    +0.019 C 
ATOM     11  C   UNL     1      33.491 -20.991 -19.908  0.00  0.00    +0.002 C 
ATOM     12  C   UNL     1      35.895 -20.815 -19.758  0.00  0.00    +0.002 C 
ATOM     13  C   UNL     1      33.510 -22.043 -18.992  0.00  0.00    +0.000 C 
ATOM     14  C   UNL     1      35.914 -21.866 -18.842  0.00  0.00    +0.000 C 
ATOM     15  C   UNL     1      34.722 -22.480 -18.458  0.00  0.00    +0.000 C 
ENDBRANCH   7  10
BRANCH   1  16
ATOM     16  C   UNL     1      34.508 -14.658 -23.203  0.00  0.00    +0.066 C 
BRANCH  16  17
ATOM     17  C   UNL     1      33.089 -14.123 -23.345  0.00  0.00    -0.056 C 
BRANCH  17  19
ATOM     18  O   UNL     1      34.056 -12.203 -26.949  0.00  0.00    -0.358 OA
ATOM     19  N   UNL     1      32.998 -13.283 -24.538  0.00  0.00    +0.391 N 
ATOM     20  C   UNL     1      33.116 -14.095 -25.757  0.00  0.00    -0.045 C 
ATOM     21  C   UNL     1      34.037 -12.243 -24.524  0.00  0.00    -0.045 C 
ATOM     22  C   UNL     1      33.031 -13.197 -26.988  0.00  0.00    +0.119 C 
ATOM     23  C   UNL     1      33.930 -11.389 -25.783  0.00  0.00    +0.119 C 
ATOM     24  H   UNL     1      32.084 -12.831 -24.534  0.00  0.00    -0.079 HD
ENDBRANCH  17  19
ENDBRANCH  16  17
ENDBRANCH   1  16
TORSDOF 4
ENDMDL
MODEL 7
REMARK VINA RESULT:      -9.6      8.115     12.095
REMARK  Name = 4199
REMARK  4 active torsions:
REMARK  status: ('A' for Active; 'I' for Inactive)
REMARK    1  A    between atoms: N_1  and  C_16
REMARK    2  A    between atoms: C_7  and  C_10
REMARK    3  A    between atoms: C_16  and  C_17
REMARK    4  A    between atoms: C_17  and  N_19
REMARK                            x       y       z     vdW  Elec       q    Type
REMARK                         _______ _______ _______ _____ _____    ______ ____
ROOT
ATOM      1  N   UNL     1      34.087 -12.748 -24.349  0.00  0.00    -0.319 N 
ATOM      2  N   UNL     1      32.621 -11.473 -22.986  0.00  0.00    -0.133 NA
ATOM      3  N   UNL     1      32.160 -10.276 -22.534  0.00  0.00    -0.147 NA
ATOM      4  C   UNL     1      33.633 -11.525 -23.905  0.00  0.00    +0.146 C 
ATOM      5  C   UNL     1      34.204 -10.346 -24.391  0.00  0.00    +0.013 C 
ATOM      6  C   UNL     1      33.735  -9.127 -23.933  0.00  0.00    +0.019 C 
ATOM      7  C   UNL     1      32.713  -9.138 -23.006  0.00  0.00    +0.103 C 
ATOM      8  C   UNL     1      35.308 -10.381 -25.394  0.00  0.00    +0.034 C 
ATOM      9  H   UNL     1      34.816 -12.764 -25.011  0.00  0.00    +0.148 HD
ENDROOT
BRANCH   7  10
ATOM     10  C   UNL     1      32.162  -7.916 -22.473  0.00  0.00    +0.019 C 
ATOM     11  C   UNL     1      32.510  -7.491 -21.188  0.00  0.00    +0.002 C 
ATOM     12  C   UNL     1      31.279  -7.151 -23.238  0.00  0.00    +0.002 C 
ATOM     13  C   UNL     1      31.978  -6.309 -20.672  0.00  0.00    +0.000 C 
ATOM     14  C   UNL     1      30.747  -5.969 -22.723  0.00  0.00    +0.000 C 
ATOM     15  C   UNL     1      31.096  -5.548 -21.440  0.00  0.00    +0.000 C 
ENDBRANCH   7  10
BRANCH   1  16
ATOM     16  C   UNL     1      33.542 -14.019 -23.889  0.00  0.00    +0.066 C 
BRANCH  16  17
ATOM     17  C   UNL     1      34.498 -14.680 -22.904  0.00  0.00    -0.056 C 
BRANCH  17  19
ATOM     18  O   UNL     1      34.700 -18.682 -24.152  0.00  0.00    -0.358 OA
ATOM     19  N   UNL     1      34.992 -15.935 -23.468  0.00  0.00    +0.391 N 
ATOM     20  C   UNL     1      34.161 -16.359 -24.603  0.00  0.00    -0.045 C 
ATOM     21  C   UNL     1      35.024 -16.990 -22.444  0.00  0.00    -0.045 C 
ATOM     22  C   UNL     1      34.688 -17.676 -25.166  0.00  0.00    +0.119 C 
ATOM     23  C   UNL     1      35.532 -18.290 -23.059  0.00  0.00    +0.119 C 
ATOM     24  H   UNL     1      35.943 -15.775 -23.802  0.00  0.00    -0.079 HD
ENDBRANCH  17  19
ENDBRANCH  16  17
ENDBRANCH   1  16
TORSDOF 4
ENDMDL
MODEL 8
REMARK VINA RESULT:      -9.5      3.129      8.567
REMARK  Name = 4199
REMARK  4 active torsions:
REMARK  status: ('A' for Active; 'I' for Inactive)
REMARK    1  A    between atoms: N_1  and  C_16
REMARK    2  A    between atoms: C_7  and  C_10
REMARK    3  A    between atoms: C_16  and  C_17
REMARK    4  A    between atoms: C_17  and  N_19
REMARK                            x       y       z     vdW  Elec       q    Type
REMARK                         _______ _______ _______ _____ _____    ______ ____
ROOT
ATOM      1  N   UNL     1      32.905 -22.394 -18.645  0.00  0.00    -0.319 N 
ATOM      2  N   UNL     1      34.949 -22.849 -17.527  0.00  0.00    -0.133 NA
ATOM      3  N   UNL     1      35.634 -23.272 -16.431  0.00  0.00    -0.147 NA
ATOM      4  C   UNL     1      33.581 -22.827 -17.525  0.00  0.00    +0.146 C 
ATOM      5  C   UNL     1      32.872 -23.241 -16.395  0.00  0.00    +0.013 C 
ATOM      6  C   UNL     1      33.568 -23.672 -15.279  0.00  0.00    +0.019 C 
ATOM      7  C   UNL     1      34.946 -23.672 -15.340  0.00  0.00    +0.103 C 
ATOM      8  C   UNL     1      31.380 -23.225 -16.372  0.00  0.00    +0.034 C 
ATOM      9  H   UNL     1      31.921 -22.386 -18.624  0.00  0.00    +0.148 HD
ENDROOT
BRANCH   7  10
ATOM     10  C   UNL     1      35.753 -24.104 -14.225  0.00  0.00    +0.019 C 
ATOM     11  C   UNL     1      35.172 -24.286 -12.967  0.00  0.00    +0.002 C 
ATOM     12  C   UNL     1      37.118 -24.344 -14.397  0.00  0.00    +0.002 C 
ATOM     13  C   UNL     1      35.952 -24.705 -11.888  0.00  0.00    +0.000 C 
ATOM     14  C   UNL     1      37.898 -24.762 -13.319  0.00  0.00    +0.000 C 
ATOM     15  C   UNL     1      37.315 -24.943 -12.064  0.00  0.00    +0.000 C 
ENDBRANCH   7  10
BRANCH   1  16
ATOM     16  C   UNL     1      33.575 -21.947 -19.861  0.00  0.00    +0.066 C 
BRANCH  16  17
ATOM     17  C   UNL     1      33.166 -20.519 -20.197  0.00  0.00    -0.056 C 
BRANCH  17  19
ATOM     18  O   UNL     1      36.632 -18.640 -21.636  0.00  0.00    -0.358 OA
ATOM     19  N   UNL     1      34.356 -19.673 -20.275  0.00  0.00    +0.391 N 
ATOM     20  C   UNL     1      34.222 -18.685 -21.354  0.00  0.00    -0.045 C 
ATOM     21  C   UNL     1      35.562 -20.488 -20.485  0.00  0.00    -0.045 C 
ATOM     22  C   UNL     1      35.480 -17.823 -21.425  0.00  0.00    +0.119 C 
ATOM     23  C   UNL     1      36.787 -19.583 -20.575  0.00  0.00    +0.119 C 
ATOM     24  H   UNL     1      34.447 -19.178 -19.388  0.00  0.00    -0.079 HD
ENDBRANCH  17  19
ENDBRANCH  16  17
ENDBRANCH   1  16
TORSDOF 4
ENDMDL
MODEL 9
REMARK VINA RESULT:      -9.5      7.843     12.269
REMARK  Name = 4199
REMARK  4 active torsions:
REMARK  status: ('A' for Active; 'I' for Inactive)
REMARK    1  A    between atoms: N_1  and  C_16
REMARK    2  A    between atoms: C_7  and  C_10
REMARK    3  A    between atoms: C_16  and  C_17
REMARK    4  A    between atoms: C_17  and  N_19
REMARK                            x       y       z     vdW  Elec       q    Type
REMARK                         _______ _______ _______ _____ _____    ______ ____
ROOT
ATOM      1  N   UNL     1      33.394 -11.466 -24.669  0.00  0.00    -0.319 N 
ATOM      2  N   UNL     1      34.073 -13.152 -23.143  0.00  0.00    -0.133 NA
ATOM      3  N   UNL     1      34.322 -14.456 -22.848  0.00  0.00    -0.147 NA
ATOM      4  C   UNL     1      33.642 -12.793 -24.390  0.00  0.00    +0.146 C 
ATOM      5  C   UNL     1      33.451 -13.764 -25.377  0.00  0.00    +0.013 C 
ATOM      6  C   UNL     1      33.704 -15.091 -25.077  0.00  0.00    +0.019 C 
ATOM      7  C   UNL     1      34.137 -15.393 -23.802  0.00  0.00    +0.103 C 
ATOM      8  C   UNL     1      32.980 -13.393 -26.743  0.00  0.00    +0.034 C 
ATOM      9  H   UNL     1      33.084 -11.227 -25.573  0.00  0.00    +0.148 HD
ENDROOT
BRANCH   7  10
ATOM     10  C   UNL     1      34.425 -16.748 -23.402  0.00  0.00    +0.019 C 
ATOM     11  C   UNL     1      34.504 -17.078 -22.046  0.00  0.00    +0.002 C 
ATOM     12  C   UNL     1      34.625 -17.738 -24.366  0.00  0.00    +0.002 C 
ATOM     13  C   UNL     1      34.781 -18.390 -21.658  0.00  0.00    +0.000 C 
ATOM     14  C   UNL     1      34.903 -19.049 -23.979  0.00  0.00    +0.000 C 
ATOM     15  C   UNL     1      34.981 -19.375 -22.625  0.00  0.00    +0.000 C 
ENDBRANCH   7  10
BRANCH   1  16
ATOM     16  C   UNL     1      33.570 -10.397 -23.694  0.00  0.00    +0.066 C 
BRANCH  16  17
ATOM     17  C   UNL     1      32.365  -9.466 -23.706  0.00  0.00    -0.056 C 
BRANCH  17  19
ATOM     18  O   UNL     1      32.448  -9.086 -19.527  0.00  0.00    -0.358 OA
ATOM     19  N   UNL     1      31.974  -9.151 -22.332  0.00  0.00    +0.391 N 
ATOM     20  C   UNL     1      32.909  -8.188 -21.733  0.00  0.00    -0.045 C 
ATOM     21  C   UNL     1      31.915 -10.371 -21.514  0.00  0.00    -0.045 C 
ATOM     22  C   UNL     1      32.489  -7.884 -20.297  0.00  0.00    +0.119 C 
ATOM     23  C   UNL     1      31.518 -10.015 -20.085  0.00  0.00    +0.119 C 
ATOM     24  H   UNL     1      31.046  -8.730 -22.360  0.00  0.00    -0.079 HD
ENDBRANCH  17  19
ENDBRANCH  16  17
ENDBRANCH   1  16
TORSDOF 4
ENDMDL
