MODEL 1
REMARK VINA RESULT:      -7.3      0.000      0.000
REMARK  Name = 38521
REMARK  3 active torsions:
REMARK  status: ('A' for Active; 'I' for Inactive)
REMARK    1  A    between atoms: C_9  and  C_11
REMARK    2  A    between atoms: C_11  and  N_12
REMARK    3  A    between atoms: N_12  and  C_15
REMARK                            x       y       z     vdW  Elec       q    Type
REMARK                         _______ _______ _______ _____ _____    ______ ____
ROOT
ATOM      1  O   UNL     1      34.668 -18.210 -20.658  0.00  0.00    -0.332 OA
ATOM      2  O   UNL     1      34.801 -19.065 -22.840  0.00  0.00    -0.332 OA
ATOM      3  C   UNL     1      34.613 -19.407 -21.457  0.00  0.00    +0.187 C 
ATOM      4  C   UNL     1      35.733 -20.360 -21.031  0.00  0.00    +0.056 C 
ATOM      5  C   UNL     1      33.237 -20.057 -21.279  0.00  0.00    +0.056 C 
ATOM      6  C   UNL     1      35.528 -20.894 -19.615  0.00  0.00    +0.005 C 
ATOM      7  C   UNL     1      33.031 -20.592 -19.863  0.00  0.00    +0.005 C 
ATOM      8  C   UNL     1      34.154 -21.540 -19.453  0.00  0.00    +0.000 C 
ATOM      9  C   UNL     1      35.181 -17.208 -21.539  0.00  0.00    +0.171 C 
ATOM     10  C   UNL     1      34.661 -17.644 -22.886  0.00  0.00    +0.176 C 
ENDROOT
BRANCH   9  11
ATOM     11  C   UNL     1      34.707 -15.834 -21.114  0.00  0.00    +0.161 C 
BRANCH  11  12
ATOM     12  N   UNL     1      33.412 -15.560 -21.738  0.00  0.00    -0.238 NA
BRANCH  12  15
ATOM     13  N   UNL     1      34.293 -13.787 -22.945  0.00  0.00    -0.370 N 
ATOM     14  N   UNL     1      32.128 -13.598 -22.258  0.00  0.00    -0.370 N 
ATOM     15  C   UNL     1      33.256 -14.388 -22.270  0.00  0.00    +0.189 C 
ATOM     16  H   UNL     1      35.159 -14.248 -23.027  0.00  0.00    +0.159 HD
ATOM     17  H   UNL     1      34.169 -12.897 -23.346  0.00  0.00    +0.159 HD
ATOM     18  H   UNL     1      31.312 -13.912 -21.806  0.00  0.00    +0.159 HD
ATOM     19  H   UNL     1      32.137 -12.719 -22.702  0.00  0.00    +0.159 HD
ENDBRANCH  12  15
ENDBRANCH  11  12
ENDBRANCH   9  11
TORSDOF 3
ENDMDL
MODEL 2
REMARK VINA RESULT:      -7.2      3.629      5.830
REMARK  Name = 38521
REMARK  3 active torsions:
REMARK  status: ('A' for Active; 'I' for Inactive)
REMARK    1  A    between atoms: C_9  and  C_11
REMARK    2  A    between atoms: C_11  and  N_12
REMARK    3  A    between atoms: N_12  and  C_15
REMARK                            x       y       z     vdW  Elec       q    Type
REMARK                         _______ _______ _______ _____ _____    ______ ____
ROOT
ATOM      1  O   UNL     1      33.900 -18.780 -22.185  0.00  0.00    -0.332 OA
ATOM      2  O   UNL     1      36.221 -18.816 -21.835  0.00  0.00    -0.332 OA
ATOM      3  C   UNL     1      35.164 -18.258 -22.635  0.00  0.00    +0.187 C 
ATOM      4  C   UNL     1      35.393 -18.655 -24.095  0.00  0.00    +0.056 C 
ATOM      5  C   UNL     1      35.156 -16.735 -22.471  0.00  0.00    +0.056 C 
ATOM      6  C   UNL     1      34.400 -17.981 -25.039  0.00  0.00    +0.005 C 
ATOM      7  C   UNL     1      34.164 -16.059 -23.415  0.00  0.00    +0.005 C 
ATOM      8  C   UNL     1      34.405 -16.464 -24.866  0.00  0.00    +0.000 C 
ATOM      9  C   UNL     1      34.240 -19.864 -21.319  0.00  0.00    +0.171 C 
ATOM     10  C   UNL     1      35.555 -19.423 -20.726  0.00  0.00    +0.176 C 
ENDROOT
BRANCH   9  11
ATOM     11  C   UNL     1      33.149 -20.089 -20.293  0.00  0.00    +0.161 C 
BRANCH  11  12
ATOM     12  N   UNL     1      32.939 -21.527 -20.126  0.00  0.00    -0.238 NA
BRANCH  12  15
ATOM     13  N   UNL     1      32.565 -22.560 -18.084  0.00  0.00    -0.370 N 
ATOM     14  N   UNL     1      34.735 -22.226 -18.692  0.00  0.00    -0.370 N 
ATOM     15  C   UNL     1      33.414 -22.065 -19.045  0.00  0.00    +0.189 C 
ATOM     16  H   UNL     1      31.590 -22.507 -18.214  0.00  0.00    +0.159 HD
ATOM     17  H   UNL     1      32.930 -22.966 -17.266  0.00  0.00    +0.159 HD
ATOM     18  H   UNL     1      35.448 -21.913 -19.295  0.00  0.00    +0.159 HD
ATOM     19  H   UNL     1      34.968 -22.653 -17.835  0.00  0.00    +0.159 HD
ENDBRANCH  12  15
ENDBRANCH  11  12
ENDBRANCH   9  11
TORSDOF 3
ENDMDL
MODEL 3
REMARK VINA RESULT:      -7.1      0.983      1.408
REMARK  Name = 38521
REMARK  3 active torsions:
REMARK  status: ('A' for Active; 'I' for Inactive)
REMARK    1  A    between atoms: C_9  and  C_11
REMARK    2  A    between atoms: C_11  and  N_12
REMARK    3  A    between atoms: N_12  and  C_15
REMARK                            x       y       z     vdW  Elec       q    Type
REMARK                         _______ _______ _______ _____ _____    ______ ____
ROOT
ATOM      1  O   UNL     1      34.896 -17.544 -20.820  0.00  0.00    -0.332 OA
ATOM      2  O   UNL     1      35.297 -18.013 -23.085  0.00  0.00    -0.332 OA
ATOM      3  C   UNL     1      35.280 -18.567 -21.758  0.00  0.00    +0.187 C 
ATOM      4  C   UNL     1      36.685 -19.071 -21.419  0.00  0.00    +0.056 C 
ATOM      5  C   UNL     1      34.255 -19.704 -21.697  0.00  0.00    +0.056 C 
ATOM      6  C   UNL     1      36.726 -19.811 -20.084  0.00  0.00    +0.005 C 
ATOM      7  C   UNL     1      34.296 -20.446 -20.362  0.00  0.00    +0.005 C 
ATOM      8  C   UNL     1      35.702 -20.942 -20.039  0.00  0.00    +0.000 C 
ATOM      9  C   UNL     1      34.973 -16.324 -21.559  0.00  0.00    +0.171 C 
ATOM     10  C   UNL     1      34.630 -16.756 -22.962  0.00  0.00    +0.176 C 
ENDROOT
BRANCH   9  11
ATOM     11  C   UNL     1      34.025 -15.292 -20.985  0.00  0.00    +0.161 C 
BRANCH  11  12
ATOM     12  N   UNL     1      32.992 -14.989 -21.976  0.00  0.00    -0.238 NA
BRANCH  12  15
ATOM     13  N   UNL     1      31.915 -12.963 -22.312  0.00  0.00    -0.370 N 
ATOM     14  N   UNL     1      33.998 -13.190 -23.208  0.00  0.00    -0.370 N 
ATOM     15  C   UNL     1      32.998 -13.794 -22.479  0.00  0.00    +0.189 C 
ATOM     16  H   UNL     1      31.129 -13.275 -21.806  0.00  0.00    +0.159 HD
ATOM     17  H   UNL     1      31.925 -12.058 -22.696  0.00  0.00    +0.159 HD
ATOM     18  H   UNL     1      34.831 -13.677 -23.400  0.00  0.00    +0.159 HD
ATOM     19  H   UNL     1      33.880 -12.269 -23.538  0.00  0.00    +0.159 HD
ENDBRANCH  12  15
ENDBRANCH  11  12
ENDBRANCH   9  11
TORSDOF 3
ENDMDL
MODEL 4
REMARK VINA RESULT:      -7.1      9.358     10.623
REMARK  Name = 38521
REMARK  3 active torsions:
REMARK  status: ('A' for Active; 'I' for Inactive)
REMARK    1  A    between atoms: C_9  and  C_11
REMARK    2  A    between atoms: C_11  and  N_12
REMARK    3  A    between atoms: N_12  and  C_15
REMARK                            x       y       z     vdW  Elec       q    Type
REMARK                         _______ _______ _______ _____ _____    ______ ____
ROOT
ATOM      1  O   UNL     1      32.561 -23.977 -15.374  0.00  0.00    -0.332 OA
ATOM      2  O   UNL     1      32.386 -23.658 -13.055  0.00  0.00    -0.332 OA
ATOM      3  C   UNL     1      31.645 -23.870 -14.268  0.00  0.00    +0.187 C 
ATOM      4  C   UNL     1      30.713 -22.676 -14.488  0.00  0.00    +0.056 C 
ATOM      5  C   UNL     1      30.852 -25.176 -14.155  0.00  0.00    +0.056 C 
ATOM      6  C   UNL     1      29.777 -22.886 -15.677  0.00  0.00    +0.005 C 
ATOM      7  C   UNL     1      29.915 -25.387 -15.343  0.00  0.00    +0.005 C 
ATOM      8  C   UNL     1      28.993 -24.189 -15.549  0.00  0.00    +0.000 C 
ATOM      9  C   UNL     1      33.816 -23.536 -14.852  0.00  0.00    +0.171 C 
ATOM     10  C   UNL     1      33.742 -23.945 -13.402  0.00  0.00    +0.176 C 
ENDROOT
BRANCH   9  11
ATOM     11  C   UNL     1      34.962 -24.170 -15.611  0.00  0.00    +0.161 C 
BRANCH  11  12
ATOM     12  N   UNL     1      35.981 -24.610 -14.659  0.00  0.00    -0.238 NA
BRANCH  12  15
ATOM     13  N   UNL     1      36.074 -26.872 -15.160  0.00  0.00    -0.370 N 
ATOM     14  N   UNL     1      38.038 -25.718 -15.217  0.00  0.00    -0.370 N 
ATOM     15  C   UNL     1      36.681 -25.650 -14.992  0.00  0.00    +0.189 C 
ATOM     16  H   UNL     1      35.102 -26.961 -15.028  0.00  0.00    +0.159 HD
ATOM     17  H   UNL     1      36.611 -27.657 -15.412  0.00  0.00    +0.159 HD
ATOM     18  H   UNL     1      38.593 -24.909 -15.130  0.00  0.00    +0.159 HD
ATOM     19  H   UNL     1      38.454 -26.575 -15.467  0.00  0.00    +0.159 HD
ENDBRANCH  12  15
ENDBRANCH  11  12
ENDBRANCH   9  11
TORSDOF 3
ENDMDL
MODEL 5
REMARK VINA RESULT:      -6.9      3.456      5.896
REMARK  Name = 38521
REMARK  3 active torsions:
REMARK  status: ('A' for Active; 'I' for Inactive)
REMARK    1  A    between atoms: C_9  and  C_11
REMARK    2  A    between atoms: C_11  and  N_12
REMARK    3  A    between atoms: N_12  and  C_15
REMARK                            x       y       z     vdW  Elec       q    Type
REMARK                         _______ _______ _______ _____ _____    ______ ____
ROOT
ATOM      1  O   UNL     1      33.665 -17.897 -21.405  0.00  0.00    -0.332 OA
ATOM      2  O   UNL     1      36.010 -17.860 -21.511  0.00  0.00    -0.332 OA
ATOM      3  C   UNL     1      34.818 -17.064 -21.624  0.00  0.00    +0.187 C 
ATOM      4  C   UNL     1      34.759 -16.466 -23.032  0.00  0.00    +0.056 C 
ATOM      5  C   UNL     1      34.842 -15.964 -20.557  0.00  0.00    +0.056 C 
ATOM      6  C   UNL     1      33.602 -15.483 -23.193  0.00  0.00    +0.005 C 
ATOM      7  C   UNL     1      33.685 -14.980 -20.718  0.00  0.00    +0.005 C 
ATOM      8  C   UNL     1      33.640 -14.393 -22.125  0.00  0.00    +0.000 C 
ATOM      9  C   UNL     1      34.167 -19.235 -21.456  0.00  0.00    +0.171 C 
ATOM     10  C   UNL     1      35.572 -19.088 -20.927  0.00  0.00    +0.176 C 
ENDROOT
BRANCH   9  11
ATOM     11  C   UNL     1      33.296 -20.162 -20.636  0.00  0.00    +0.161 C 
BRANCH  11  12
ATOM     12  N   UNL     1      34.152 -21.045 -19.843  0.00  0.00    -0.238 NA
BRANCH  12  15
ATOM     13  N   UNL     1      32.515 -21.992 -18.502  0.00  0.00    -0.370 N 
ATOM     14  N   UNL     1      33.950 -23.420 -19.547  0.00  0.00    -0.370 N 
ATOM     15  C   UNL     1      33.596 -22.105 -19.345  0.00  0.00    +0.189 C 
ATOM     16  H   UNL     1      32.160 -21.103 -18.274  0.00  0.00    +0.159 HD
ATOM     17  H   UNL     1      32.097 -22.800 -18.126  0.00  0.00    +0.159 HD
ATOM     18  H   UNL     1      34.711 -23.641 -20.133  0.00  0.00    +0.159 HD
ATOM     19  H   UNL     1      33.443 -24.141 -19.108  0.00  0.00    +0.159 HD
ENDBRANCH  12  15
ENDBRANCH  11  12
ENDBRANCH   9  11
TORSDOF 3
ENDMDL
MODEL 6
REMARK VINA RESULT:      -6.9      7.980      9.539
REMARK  Name = 38521
REMARK  3 active torsions:
REMARK  status: ('A' for Active; 'I' for Inactive)
REMARK    1  A    between atoms: C_9  and  C_11
REMARK    2  A    between atoms: C_11  and  N_12
REMARK    3  A    between atoms: N_12  and  C_15
REMARK                            x       y       z     vdW  Elec       q    Type
REMARK                         _______ _______ _______ _____ _____    ______ ____
ROOT
ATOM      1  O   UNL     1      32.527 -23.907 -15.460  0.00  0.00    -0.332 OA
ATOM      2  O   UNL     1      32.389 -23.651 -13.130  0.00  0.00    -0.332 OA
ATOM      3  C   UNL     1      31.630 -23.843 -14.336  0.00  0.00    +0.187 C 
ATOM      4  C   UNL     1      30.676 -22.658 -14.508  0.00  0.00    +0.056 C 
ATOM      5  C   UNL     1      30.859 -25.163 -14.244  0.00  0.00    +0.056 C 
ATOM      6  C   UNL     1      29.723 -22.851 -15.686  0.00  0.00    +0.005 C 
ATOM      7  C   UNL     1      29.904 -25.358 -15.421  0.00  0.00    +0.005 C 
ATOM      8  C   UNL     1      28.961 -24.169 -15.579  0.00  0.00    +0.000 C 
ATOM      9  C   UNL     1      33.785 -23.459 -14.947  0.00  0.00    +0.171 C 
ATOM     10  C   UNL     1      33.742 -23.908 -13.508  0.00  0.00    +0.176 C 
ENDROOT
BRANCH   9  11
ATOM     11  C   UNL     1      34.926 -24.056 -15.743  0.00  0.00    +0.161 C 
BRANCH  11  12
ATOM     12  N   UNL     1      35.534 -23.009 -16.565  0.00  0.00    -0.238 NA
BRANCH  12  15
ATOM     13  N   UNL     1      37.193 -21.391 -16.498  0.00  0.00    -0.370 N 
ATOM     14  N   UNL     1      37.745 -23.471 -15.749  0.00  0.00    -0.370 N 
ATOM     15  C   UNL     1      36.754 -22.675 -16.278  0.00  0.00    +0.189 C 
ATOM     16  H   UNL     1      36.580 -20.719 -16.876  0.00  0.00    +0.159 HD
ATOM     17  H   UNL     1      38.120 -21.144 -16.279  0.00  0.00    +0.159 HD
ATOM     18  H   UNL     1      37.561 -24.416 -15.543  0.00  0.00    +0.159 HD
ATOM     19  H   UNL     1      38.639 -23.095 -15.575  0.00  0.00    +0.159 HD
ENDBRANCH  12  15
ENDBRANCH  11  12
ENDBRANCH   9  11
TORSDOF 3
ENDMDL
MODEL 7
REMARK VINA RESULT:      -6.8      6.816      8.761
REMARK  Name = 38521
REMARK  3 active torsions:
REMARK  status: ('A' for Active; 'I' for Inactive)
REMARK    1  A    between atoms: C_9  and  C_11
REMARK    2  A    between atoms: C_11  and  N_12
REMARK    3  A    between atoms: N_12  and  C_15
REMARK                            x       y       z     vdW  Elec       q    Type
REMARK                         _______ _______ _______ _____ _____    ______ ____
ROOT
ATOM      1  O   UNL     1      35.749 -24.067 -14.857  0.00  0.00    -0.332 OA
ATOM      2  O   UNL     1      37.715 -22.797 -15.038  0.00  0.00    -0.332 OA
ATOM      3  C   UNL     1      37.102 -23.922 -14.385  0.00  0.00    +0.187 C 
ATOM      4  C   UNL     1      37.094 -23.667 -12.876  0.00  0.00    +0.056 C 
ATOM      5  C   UNL     1      37.884 -25.194 -14.727  0.00  0.00    +0.056 C 
ATOM      6  C   UNL     1      36.596 -24.877 -12.089  0.00  0.00    +0.005 C 
ATOM      7  C   UNL     1      37.387 -26.405 -13.940  0.00  0.00    +0.005 C 
ATOM      8  C   UNL     1      37.385 -26.136 -12.439  0.00  0.00    +0.000 C 
ATOM      9  C   UNL     1      35.477 -22.855 -15.564  0.00  0.00    +0.171 C 
ATOM     10  C   UNL     1      36.830 -22.473 -16.111  0.00  0.00    +0.176 C 
ENDROOT
BRANCH   9  11
ATOM     11  C   UNL     1      34.426 -23.085 -16.629  0.00  0.00    +0.161 C 
BRANCH  11  12
ATOM     12  N   UNL     1      34.984 -22.732 -17.935  0.00  0.00    -0.238 NA
BRANCH  12  15
ATOM     13  N   UNL     1      34.690 -21.337 -19.764  0.00  0.00    -0.370 N 
ATOM     14  N   UNL     1      32.812 -22.217 -18.820  0.00  0.00    -0.370 N 
ATOM     15  C   UNL     1      34.186 -22.146 -18.772  0.00  0.00    +0.189 C 
ATOM     16  H   UNL     1      35.662 -21.201 -19.841  0.00  0.00    +0.159 HD
ATOM     17  H   UNL     1      34.079 -20.895 -20.396  0.00  0.00    +0.159 HD
ATOM     18  H   UNL     1      32.324 -22.765 -18.163  0.00  0.00    +0.159 HD
ATOM     19  H   UNL     1      32.316 -21.720 -19.511  0.00  0.00    +0.159 HD
ENDBRANCH  12  15
ENDBRANCH  11  12
ENDBRANCH   9  11
TORSDOF 3
ENDMDL
MODEL 8
REMARK VINA RESULT:      -6.8      2.071      3.234
REMARK  Name = 38521
REMARK  3 active torsions:
REMARK  status: ('A' for Active; 'I' for Inactive)
REMARK    1  A    between atoms: C_9  and  C_11
REMARK    2  A    between atoms: C_11  and  N_12
REMARK    3  A    between atoms: N_12  and  C_15
REMARK                            x       y       z     vdW  Elec       q    Type
REMARK                         _______ _______ _______ _____ _____    ______ ____
ROOT
ATOM      1  O   UNL     1      33.456 -16.359 -22.121  0.00  0.00    -0.332 OA
ATOM      2  O   UNL     1      35.154 -16.153 -20.513  0.00  0.00    -0.332 OA
ATOM      3  C   UNL     1      34.641 -16.971 -21.578  0.00  0.00    +0.187 C 
ATOM      4  C   UNL     1      34.292 -18.351 -21.012  0.00  0.00    +0.056 C 
ATOM      5  C   UNL     1      35.693 -17.078 -22.686  0.00  0.00    +0.056 C 
ATOM      6  C   UNL     1      33.880 -19.334 -22.105  0.00  0.00    +0.005 C 
ATOM      7  C   UNL     1      35.283 -18.063 -23.779  0.00  0.00    +0.005 C 
ATOM      8  C   UNL     1      34.939 -19.432 -23.200  0.00  0.00    +0.000 C 
ATOM      9  C   UNL     1      33.110 -15.338 -21.182  0.00  0.00    +0.171 C 
ATOM     10  C   UNL     1      34.450 -14.916 -20.634  0.00  0.00    +0.176 C 
ENDROOT
BRANCH   9  11
ATOM     11  C   UNL     1      32.347 -14.223 -21.866  0.00  0.00    +0.161 C 
BRANCH  11  12
ATOM     12  N   UNL     1      33.300 -13.254 -22.408  0.00  0.00    -0.238 NA
BRANCH  12  15
ATOM     13  N   UNL     1      34.084 -12.218 -24.328  0.00  0.00    -0.370 N 
ATOM     14  N   UNL     1      33.189 -14.300 -24.568  0.00  0.00    -0.370 N 
ATOM     15  C   UNL     1      33.499 -13.285 -23.689  0.00  0.00    +0.189 C 
ATOM     16  H   UNL     1      34.355 -11.424 -23.812  0.00  0.00    +0.159 HD
ATOM     17  H   UNL     1      34.232 -12.247 -25.300  0.00  0.00    +0.159 HD
ATOM     18  H   UNL     1      32.764 -15.124 -24.238  0.00  0.00    +0.159 HD
ATOM     19  H   UNL     1      33.393 -14.201 -25.526  0.00  0.00    +0.159 HD
ENDBRANCH  12  15
ENDBRANCH  11  12
ENDBRANCH   9  11
TORSDOF 3
ENDMDL
MODEL 9
REMARK VINA RESULT:      -6.7      6.632      8.831
REMARK  Name = 38521
REMARK  3 active torsions:
REMARK  status: ('A' for Active; 'I' for Inactive)
REMARK    1  A    between atoms: C_9  and  C_11
REMARK    2  A    between atoms: C_11  and  N_12
REMARK    3  A    between atoms: N_12  and  C_15
REMARK                            x       y       z     vdW  Elec       q    Type
REMARK                         _______ _______ _______ _____ _____    ______ ____
ROOT
ATOM      1  O   UNL     1      32.175 -23.548 -15.795  0.00  0.00    -0.332 OA
ATOM      2  O   UNL     1      32.420 -23.964 -13.497  0.00  0.00    -0.332 OA
ATOM      3  C   UNL     1      31.476 -23.873 -14.579  0.00  0.00    +0.187 C 
ATOM      4  C   UNL     1      30.466 -22.769 -14.256  0.00  0.00    +0.056 C 
ATOM      5  C   UNL     1      30.778 -25.225 -14.756  0.00  0.00    +0.056 C 
ATOM      6  C   UNL     1      29.337 -22.702 -15.282  0.00  0.00    +0.005 C 
ATOM      7  C   UNL     1      29.647 -25.160 -15.781  0.00  0.00    +0.005 C 
ATOM      8  C   UNL     1      28.650 -24.056 -15.446  0.00  0.00    +0.000 C 
ATOM      9  C   UNL     1      33.484 -23.160 -15.371  0.00  0.00    +0.171 C 
ATOM     10  C   UNL     1      33.699 -23.995 -14.133  0.00  0.00    +0.176 C 
ENDROOT
BRANCH   9  11
ATOM     11  C   UNL     1      34.496 -23.416 -16.467  0.00  0.00    +0.161 C 
BRANCH  11  12
ATOM     12  N   UNL     1      33.795 -23.542 -17.745  0.00  0.00    -0.238 NA
BRANCH  12  15
ATOM     13  N   UNL     1      35.235 -22.035 -18.761  0.00  0.00    -0.370 N 
ATOM     14  N   UNL     1      33.069 -22.035 -19.469  0.00  0.00    -0.370 N 
ATOM     15  C   UNL     1      33.989 -22.598 -18.613  0.00  0.00    +0.189 C 
ATOM     16  H   UNL     1      35.986 -22.350 -18.207  0.00  0.00    +0.159 HD
ATOM     17  H   UNL     1      35.376 -21.320 -19.421  0.00  0.00    +0.159 HD
ATOM     18  H   UNL     1      32.136 -22.348 -19.465  0.00  0.00    +0.159 HD
ATOM     19  H   UNL     1      33.344 -21.318 -20.086  0.00  0.00    +0.159 HD
ENDBRANCH  12  15
ENDBRANCH  11  12
ENDBRANCH   9  11
TORSDOF 3
ENDMDL
