MODEL 1
REMARK VINA RESULT:      -7.4      0.000      0.000
REMARK  Name = 5447130
REMARK  4 active torsions:
REMARK  status: ('A' for Active; 'I' for Inactive)
REMARK    1  A    between atoms: N_1  and  C_2
REMARK    2  A    between atoms: N_1  and  N_4
REMARK    3  A    between atoms: C_2  and  C_11
REMARK    4  A    between atoms: C_13  and  N_17
REMARK                            x       y       z     vdW  Elec       q    Type
REMARK                         _______ _______ _______ _____ _____    ______ ____
ROOT
ATOM      1  C   UNL     1      32.919 -23.102 -16.774  0.00  0.00    +0.176 C 
ENDROOT
BRANCH   1   3
ATOM      2  O   UNL     1      30.559 -22.936 -17.064  0.00  0.00    -0.436 OA
ATOM      3  C   UNL     1      31.586 -23.021 -16.201  0.00  0.00    +0.144 C 
ATOM      4  C   UNL     1      31.183 -23.017 -14.907  0.00  0.00    +0.040 C 
ATOM      5  C   UNL     1      29.441 -22.874 -16.293  0.00  0.00    +0.289 C 
ATOM      6  C   UNL     1      29.772 -22.920 -14.959  0.00  0.00    +0.066 C 
BRANCH   5   9
ATOM      7  O   UNL     1      27.749 -23.805 -17.552  0.00  0.00    -0.123 OA
ATOM      8  O   UNL     1      27.629 -21.669 -17.058  0.00  0.00    -0.123 OA
ATOM      9  N   UNL     1      28.235 -22.780 -16.989  0.00  0.00    +0.093 N 
ENDBRANCH   5   9
ENDBRANCH   1   3
BRANCH   1  10
ATOM     10  N   UNL     1      33.110 -23.206 -18.050  0.00  0.00    -0.122 NA
BRANCH  10  12
ATOM     11  O   UNL     1      34.741 -21.599 -19.579  0.00  0.00    -0.252 OA
ATOM     12  N   UNL     1      32.641 -22.157 -18.763  0.00  0.00    -0.216 N 
ATOM     13  N   UNL     1      32.897 -20.368 -20.177  0.00  0.00    -0.312 N 
ATOM     14  C   UNL     1      33.529 -21.399 -19.507  0.00  0.00    +0.312 C 
ATOM     15  H   UNL     1      31.681 -21.937 -18.754  0.00  0.00    +0.172 HD
ATOM     16  H   UNL     1      33.420 -19.754 -20.742  0.00  0.00    +0.147 HD
ATOM     17  H   UNL     1      31.924 -20.246 -20.088  0.00  0.00    +0.147 HD
ENDBRANCH  10  12
ENDBRANCH   1  10
TORSDOF 4
ENDMDL
MODEL 2
REMARK VINA RESULT:      -7.3      0.976      1.271
REMARK  Name = 5447130
REMARK  4 active torsions:
REMARK  status: ('A' for Active; 'I' for Inactive)
REMARK    1  A    between atoms: N_1  and  C_2
REMARK    2  A    between atoms: N_1  and  N_4
REMARK    3  A    between atoms: C_2  and  C_11
REMARK    4  A    between atoms: C_13  and  N_17
REMARK                            x       y       z     vdW  Elec       q    Type
REMARK                         _______ _______ _______ _____ _____    ______ ____
ROOT
ATOM      1  C   UNL     1      32.447 -23.260 -15.975  0.00  0.00    +0.176 C 
ENDROOT
BRANCH   1   3
ATOM      2  O   UNL     1      30.203 -22.881 -16.682  0.00  0.00    -0.436 OA
ATOM      3  C   UNL     1      31.030 -23.564 -15.871  0.00  0.00    +0.144 C 
ATOM      4  C   UNL     1      30.373 -24.442 -15.075  0.00  0.00    +0.040 C 
ATOM      5  C   UNL     1      28.955 -23.339 -16.397  0.00  0.00    +0.289 C 
ATOM      6  C   UNL     1      29.007 -24.301 -15.415  0.00  0.00    +0.066 C 
BRANCH   5   9
ATOM      7  O   UNL     1      27.627 -21.540 -16.958  0.00  0.00    -0.123 OA
ATOM      8  O   UNL     1      27.274 -23.455 -17.972  0.00  0.00    -0.123 OA
ATOM      9  N   UNL     1      27.920 -22.760 -17.132  0.00  0.00    +0.093 N 
ENDBRANCH   5   9
ENDBRANCH   1   3
BRANCH   1  10
ATOM     10  N   UNL     1      33.100 -23.413 -17.081  0.00  0.00    -0.122 NA
BRANCH  10  12
ATOM     11  O   UNL     1      34.721 -22.639 -19.168  0.00  0.00    -0.252 OA
ATOM     12  N   UNL     1      32.665 -22.625 -18.091  0.00  0.00    -0.216 N 
ATOM     13  N   UNL     1      32.952 -21.476 -20.056  0.00  0.00    -0.312 N 
ATOM     14  C   UNL     1      33.546 -22.282 -19.102  0.00  0.00    +0.312 C 
ATOM     15  H   UNL     1      31.735 -22.302 -18.106  0.00  0.00    +0.172 HD
ATOM     16  H   UNL     1      33.474 -21.161 -20.830  0.00  0.00    +0.147 HD
ATOM     17  H   UNL     1      32.007 -21.214 -19.961  0.00  0.00    +0.147 HD
ENDBRANCH  10  12
ENDBRANCH   1  10
TORSDOF 4
ENDMDL
MODEL 3
REMARK VINA RESULT:      -7.1      6.254      8.546
REMARK  Name = 5447130
REMARK  4 active torsions:
REMARK  status: ('A' for Active; 'I' for Inactive)
REMARK    1  A    between atoms: N_1  and  C_2
REMARK    2  A    between atoms: N_1  and  N_4
REMARK    3  A    between atoms: C_2  and  C_11
REMARK    4  A    between atoms: C_13  and  N_17
REMARK                            x       y       z     vdW  Elec       q    Type
REMARK                         _______ _______ _______ _____ _____    ______ ____
ROOT
ATOM      1  C   UNL     1      35.806 -25.422 -15.168  0.00  0.00    +0.176 C 
ENDROOT
BRANCH   1   3
ATOM      2  O   UNL     1      38.176 -25.555 -14.950  0.00  0.00    -0.436 OA
ATOM      3  C   UNL     1      36.987 -25.501 -14.324  0.00  0.00    +0.144 C 
ATOM      4  C   UNL     1      37.105 -25.531 -12.975  0.00  0.00    +0.040 C 
ATOM      5  C   UNL     1      39.104 -25.623 -13.959  0.00  0.00    +0.289 C 
ATOM      6  C   UNL     1      38.495 -25.611 -12.725  0.00  0.00    +0.066 C 
BRANCH   5   9
ATOM      7  O   UNL     1      41.076 -24.621 -14.611  0.00  0.00    -0.123 OA
ATOM      8  O   UNL     1      40.992 -26.814 -14.540  0.00  0.00    -0.123 OA
ATOM      9  N   UNL     1      40.433 -25.688 -14.383  0.00  0.00    +0.093 N 
ENDBRANCH   5   9
ENDBRANCH   1   3
BRANCH   1  10
ATOM     10  N   UNL     1      35.429 -24.312 -15.715  0.00  0.00    -0.122 NA
BRANCH  10  12
ATOM     11  O   UNL     1      35.766 -22.403 -17.670  0.00  0.00    -0.252 OA
ATOM     12  N   UNL     1      36.335 -23.313 -15.612  0.00  0.00    -0.216 N 
ATOM     13  N   UNL     1      37.407 -21.438 -16.387  0.00  0.00    -0.312 N 
ATOM     14  C   UNL     1      36.440 -22.393 -16.641  0.00  0.00    +0.312 C 
ATOM     15  H   UNL     1      36.909 -23.240 -14.815  0.00  0.00    +0.172 HD
ATOM     16  H   UNL     1      37.581 -20.725 -17.044  0.00  0.00    +0.147 HD
ATOM     17  H   UNL     1      37.923 -21.471 -15.548  0.00  0.00    +0.147 HD
ENDBRANCH  10  12
ENDBRANCH   1  10
TORSDOF 4
ENDMDL
MODEL 4
REMARK VINA RESULT:      -7.1      7.014      8.056
REMARK  Name = 5447130
REMARK  4 active torsions:
REMARK  status: ('A' for Active; 'I' for Inactive)
REMARK    1  A    between atoms: N_1  and  C_2
REMARK    2  A    between atoms: N_1  and  N_4
REMARK    3  A    between atoms: C_2  and  C_11
REMARK    4  A    between atoms: C_13  and  N_17
REMARK                            x       y       z     vdW  Elec       q    Type
REMARK                         _______ _______ _______ _____ _____    ______ ____
ROOT
ATOM      1  C   UNL     1      37.322 -23.012 -15.428  0.00  0.00    +0.176 C 
ENDROOT
BRANCH   1   3
ATOM      2  O   UNL     1      36.815 -23.637 -13.185  0.00  0.00    -0.436 OA
ATOM      3  C   UNL     1      36.363 -23.481 -14.442  0.00  0.00    +0.144 C 
ATOM      4  C   UNL     1      35.053 -23.799 -14.569  0.00  0.00    +0.040 C 
ATOM      5  C   UNL     1      35.746 -24.076 -12.468  0.00  0.00    +0.289 C 
ATOM      6  C   UNL     1      34.638 -24.192 -13.275  0.00  0.00    +0.066 C 
BRANCH   5   9
ATOM      7  O   UNL     1      36.934 -23.706 -10.527  0.00  0.00    -0.123 OA
ATOM      8  O   UNL     1      35.259 -25.124 -10.472  0.00  0.00    -0.123 OA
ATOM      9  N   UNL     1      35.987 -24.309 -11.113  0.00  0.00    +0.093 N 
ENDBRANCH   5   9
ENDBRANCH   1   3
BRANCH   1  10
ATOM     10  N   UNL     1      38.526 -23.482 -15.490  0.00  0.00    -0.122 NA
BRANCH  10  12
ATOM     11  O   UNL     1      40.938 -24.588 -14.755  0.00  0.00    -0.252 OA
ATOM     12  N   UNL     1      38.642 -24.757 -15.052  0.00  0.00    -0.216 N 
ATOM     13  N   UNL     1      39.845 -26.550 -14.276  0.00  0.00    -0.312 N 
ATOM     14  C   UNL     1      39.893 -25.235 -14.702  0.00  0.00    +0.312 C 
ATOM     15  H   UNL     1      37.847 -25.334 -14.983  0.00  0.00    +0.172 HD
ATOM     16  H   UNL     1      40.671 -27.009 -13.998  0.00  0.00    +0.147 HD
ATOM     17  H   UNL     1      38.984 -27.029 -14.252  0.00  0.00    +0.147 HD
ENDBRANCH  10  12
ENDBRANCH   1  10
TORSDOF 4
ENDMDL
MODEL 5
REMARK VINA RESULT:      -7.1      4.823      6.776
REMARK  Name = 5447130
REMARK  4 active torsions:
REMARK  status: ('A' for Active; 'I' for Inactive)
REMARK    1  A    between atoms: N_1  and  C_2
REMARK    2  A    between atoms: N_1  and  N_4
REMARK    3  A    between atoms: C_2  and  C_11
REMARK    4  A    between atoms: C_13  and  N_17
REMARK                            x       y       z     vdW  Elec       q    Type
REMARK                         _______ _______ _______ _____ _____    ______ ____
ROOT
ATOM      1  C   UNL     1      35.792 -18.329 -21.290  0.00  0.00    +0.176 C 
ENDROOT
BRANCH   1   3
ATOM      2  O   UNL     1      35.364 -20.367 -20.129  0.00  0.00    -0.436 OA
ATOM      3  C   UNL     1      34.852 -19.332 -20.819  0.00  0.00    +0.144 C 
ATOM      4  C   UNL     1      33.507 -19.412 -20.957  0.00  0.00    +0.040 C 
ATOM      5  C   UNL     1      34.301 -21.150 -19.807  0.00  0.00    +0.289 C 
ATOM      6  C   UNL     1      33.136 -20.605 -20.294  0.00  0.00    +0.066 C 
BRANCH   5   9
ATOM      7  O   UNL     1      33.944 -23.365 -19.276  0.00  0.00    -0.123 OA
ATOM      8  O   UNL     1      35.531 -22.280 -18.216  0.00  0.00    -0.123 OA
ATOM      9  N   UNL     1      34.602 -22.301 -19.077  0.00  0.00    +0.093 N 
ENDBRANCH   5   9
ENDBRANCH   1   3
BRANCH   1  10
ATOM     10  N   UNL     1      36.267 -18.347 -22.494  0.00  0.00    -0.122 NA
BRANCH  10  12
ATOM     11  O   UNL     1      34.606 -18.949 -24.605  0.00  0.00    -0.252 OA
ATOM     12  N   UNL     1      35.744 -17.400 -23.305  0.00  0.00    -0.216 N 
ATOM     13  N   UNL     1      34.466 -16.707 -25.080  0.00  0.00    -0.312 N 
ATOM     14  C   UNL     1      34.917 -17.788 -24.345  0.00  0.00    +0.312 C 
ATOM     15  H   UNL     1      35.949 -16.448 -23.157  0.00  0.00    +0.172 HD
ATOM     16  H   UNL     1      33.868 -16.849 -25.850  0.00  0.00    +0.147 HD
ATOM     17  H   UNL     1      34.743 -15.794 -24.835  0.00  0.00    +0.147 HD
ENDBRANCH  10  12
ENDBRANCH   1  10
TORSDOF 4
ENDMDL
MODEL 6
REMARK VINA RESULT:      -7.0      4.755      7.751
REMARK  Name = 5447130
REMARK  4 active torsions:
REMARK  status: ('A' for Active; 'I' for Inactive)
REMARK    1  A    between atoms: N_1  and  C_2
REMARK    2  A    between atoms: N_1  and  N_4
REMARK    3  A    between atoms: C_2  and  C_11
REMARK    4  A    between atoms: C_13  and  N_17
REMARK                            x       y       z     vdW  Elec       q    Type
REMARK                         _______ _______ _______ _____ _____    ______ ____
ROOT
ATOM      1  C   UNL     1      36.808 -19.636 -20.597  0.00  0.00    +0.176 C 
ENDROOT
BRANCH   1   3
ATOM      2  O   UNL     1      35.498 -17.644 -20.606  0.00  0.00    -0.436 OA
ATOM      3  C   UNL     1      36.077 -18.617 -21.332  0.00  0.00    +0.144 C 
ATOM      4  C   UNL     1      35.869 -18.469 -22.663  0.00  0.00    +0.040 C 
ATOM      5  C   UNL     1      34.889 -16.831 -21.509  0.00  0.00    +0.289 C 
ATOM      6  C   UNL     1      35.088 -17.296 -22.788  0.00  0.00    +0.066 C 
BRANCH   5   9
ATOM      7  O   UNL     1      32.972 -15.592 -21.182  0.00  0.00    -0.123 OA
ATOM      8  O   UNL     1      34.841 -14.885 -20.272  0.00  0.00    -0.123 OA
ATOM      9  N   UNL     1      34.213 -15.735 -20.971  0.00  0.00    +0.093 N 
ENDBRANCH   5   9
ENDBRANCH   1   3
BRANCH   1  10
ATOM     10  N   UNL     1      36.233 -20.389 -19.716  0.00  0.00    -0.122 NA
BRANCH  10  12
ATOM     11  O   UNL     1      34.878 -22.662 -18.956  0.00  0.00    -0.252 OA
ATOM     12  N   UNL     1      34.903 -20.546 -19.910  0.00  0.00    -0.216 N 
ATOM     13  N   UNL     1      32.942 -21.728 -19.765  0.00  0.00    -0.312 N 
ATOM     14  C   UNL     1      34.299 -21.721 -19.498  0.00  0.00    +0.312 C 
ATOM     15  H   UNL     1      34.374 -19.834 -20.337  0.00  0.00    +0.172 HD
ATOM     16  H   UNL     1      32.395 -22.510 -19.520  0.00  0.00    +0.147 HD
ATOM     17  H   UNL     1      32.522 -20.952 -20.202  0.00  0.00    +0.147 HD
ENDBRANCH  10  12
ENDBRANCH   1  10
TORSDOF 4
ENDMDL
MODEL 7
REMARK VINA RESULT:      -7.0      4.651      6.731
REMARK  Name = 5447130
REMARK  4 active torsions:
REMARK  status: ('A' for Active; 'I' for Inactive)
REMARK    1  A    between atoms: N_1  and  C_2
REMARK    2  A    between atoms: N_1  and  N_4
REMARK    3  A    between atoms: C_2  and  C_11
REMARK    4  A    between atoms: C_13  and  N_17
REMARK                            x       y       z     vdW  Elec       q    Type
REMARK                         _______ _______ _______ _____ _____    ______ ____
ROOT
ATOM      1  C   UNL     1      36.800 -22.686 -15.569  0.00  0.00    +0.176 C 
ENDROOT
BRANCH   1   3
ATOM      2  O   UNL     1      35.252 -22.854 -17.375  0.00  0.00    -0.436 OA
ATOM      3  C   UNL     1      36.372 -22.282 -16.898  0.00  0.00    +0.144 C 
ATOM      4  C   UNL     1      36.919 -21.400 -17.769  0.00  0.00    +0.040 C 
ATOM      5  C   UNL     1      35.069 -22.318 -18.610  0.00  0.00    +0.289 C 
ATOM      6  C   UNL     1      36.068 -21.418 -18.899  0.00  0.00    +0.066 C 
BRANCH   5   9
ATOM      7  O   UNL     1      33.891 -23.981 -19.690  0.00  0.00    -0.123 OA
ATOM      8  O   UNL     1      32.987 -21.986 -19.545  0.00  0.00    -0.123 OA
ATOM      9  N   UNL     1      33.947 -22.776 -19.303  0.00  0.00    +0.093 N 
ENDBRANCH   5   9
ENDBRANCH   1   3
BRANCH   1  10
ATOM     10  N   UNL     1      37.963 -23.209 -15.355  0.00  0.00    -0.122 NA
BRANCH  10  12
ATOM     11  O   UNL     1      39.153 -24.555 -13.269  0.00  0.00    -0.252 OA
ATOM     12  N   UNL     1      37.950 -24.558 -15.253  0.00  0.00    -0.216 N 
ATOM     13  N   UNL     1      38.471 -26.535 -14.211  0.00  0.00    -0.312 N 
ATOM     14  C   UNL     1      38.573 -25.156 -14.171  0.00  0.00    +0.312 C 
ATOM     15  H   UNL     1      37.503 -25.105 -15.939  0.00  0.00    +0.172 HD
ATOM     16  H   UNL     1      38.874 -27.080 -13.496  0.00  0.00    +0.147 HD
ATOM     17  H   UNL     1      37.997 -26.972 -14.955  0.00  0.00    +0.147 HD
ENDBRANCH  10  12
ENDBRANCH   1  10
TORSDOF 4
ENDMDL
MODEL 8
REMARK VINA RESULT:      -6.9      4.040      7.316
REMARK  Name = 5447130
REMARK  4 active torsions:
REMARK  status: ('A' for Active; 'I' for Inactive)
REMARK    1  A    between atoms: N_1  and  C_2
REMARK    2  A    between atoms: N_1  and  N_4
REMARK    3  A    between atoms: C_2  and  C_11
REMARK    4  A    between atoms: C_13  and  N_17
REMARK                            x       y       z     vdW  Elec       q    Type
REMARK                         _______ _______ _______ _____ _____    ______ ____
ROOT
ATOM      1  C   UNL     1      32.745 -20.235 -20.494  0.00  0.00    +0.176 C 
ENDROOT
BRANCH   1   3
ATOM      2  O   UNL     1      33.749 -18.132 -20.996  0.00  0.00    -0.436 OA
ATOM      3  C   UNL     1      33.916 -19.461 -20.870  0.00  0.00    +0.144 C 
ATOM      4  C   UNL     1      35.187 -19.854 -21.124  0.00  0.00    +0.040 C 
ATOM      5  C   UNL     1      34.969 -17.646 -21.348  0.00  0.00    +0.289 C 
ATOM      6  C   UNL     1      35.887 -18.666 -21.439  0.00  0.00    +0.066 C 
BRANCH   5   9
ATOM      7  O   UNL     1      35.223 -15.793 -22.697  0.00  0.00    -0.123 OA
ATOM      8  O   UNL     1      34.903 -15.484 -20.547  0.00  0.00    -0.123 OA
ATOM      9  N   UNL     1      35.033 -16.264 -21.536  0.00  0.00    +0.093 N 
ENDBRANCH   5   9
ENDBRANCH   1   3
BRANCH   1  10
ATOM     10  N   UNL     1      32.810 -21.506 -20.260  0.00  0.00    -0.122 NA
BRANCH  10  12
ATOM     11  O   UNL     1      34.060 -23.771 -19.317  0.00  0.00    -0.252 OA
ATOM     12  N   UNL     1      32.856 -21.821 -18.946  0.00  0.00    -0.216 N 
ATOM     13  N   UNL     1      33.465 -23.161 -17.185  0.00  0.00    -0.312 N 
ATOM     14  C   UNL     1      33.505 -22.980 -18.556  0.00  0.00    +0.312 C 
ATOM     15  H   UNL     1      32.434 -21.235 -18.277  0.00  0.00    +0.172 HD
ATOM     16  H   UNL     1      33.892 -23.951 -16.779  0.00  0.00    +0.147 HD
ATOM     17  H   UNL     1      33.008 -22.501 -16.614  0.00  0.00    +0.147 HD
ENDBRANCH  10  12
ENDBRANCH   1  10
TORSDOF 4
ENDMDL
MODEL 9
REMARK VINA RESULT:      -6.9      6.790      9.315
REMARK  Name = 5447130
REMARK  4 active torsions:
REMARK  status: ('A' for Active; 'I' for Inactive)
REMARK    1  A    between atoms: N_1  and  C_2
REMARK    2  A    between atoms: N_1  and  N_4
REMARK    3  A    between atoms: C_2  and  C_11
REMARK    4  A    between atoms: C_13  and  N_17
REMARK                            x       y       z     vdW  Elec       q    Type
REMARK                         _______ _______ _______ _____ _____    ______ ____
ROOT
ATOM      1  C   UNL     1      36.006 -23.804 -14.961  0.00  0.00    +0.176 C 
ENDROOT
BRANCH   1   3
ATOM      2  O   UNL     1      38.242 -24.597 -14.728  0.00  0.00    -0.436 OA
ATOM      3  C   UNL     1      36.944 -24.912 -14.883  0.00  0.00    +0.144 C 
ATOM      4  C   UNL     1      36.734 -26.249 -14.941  0.00  0.00    +0.040 C 
ATOM      5  C   UNL     1      38.900 -25.786 -14.683  0.00  0.00    +0.289 C 
ATOM      6  C   UNL     1      38.017 -26.832 -14.811  0.00  0.00    +0.066 C 
BRANCH   5   9
ATOM      7  O   UNL     1      40.994 -26.748 -14.596  0.00  0.00    -0.123 OA
ATOM      8  O   UNL     1      40.829 -24.578 -14.306  0.00  0.00    -0.123 OA
ATOM      9  N   UNL     1      40.284 -25.701 -14.524  0.00  0.00    +0.093 N 
ENDBRANCH   5   9
ENDBRANCH   1   3
BRANCH   1  10
ATOM     10  N   UNL     1      35.319 -23.416 -13.936  0.00  0.00    -0.122 NA
BRANCH  10  12
ATOM     11  O   UNL     1      34.982 -24.852 -11.611  0.00  0.00    -0.252 OA
ATOM     12  N   UNL     1      36.061 -23.195 -12.828  0.00  0.00    -0.216 N 
ATOM     13  N   UNL     1      36.664 -23.616 -10.654  0.00  0.00    -0.312 N 
ATOM     14  C   UNL     1      35.827 -23.962 -11.699  0.00  0.00    +0.312 C 
ATOM     15  H   UNL     1      36.758 -22.499 -12.824  0.00  0.00    +0.172 HD
ATOM     16  H   UNL     1      36.598 -24.089  -9.792  0.00  0.00    +0.147 HD
ATOM     17  H   UNL     1      37.326 -22.896 -10.771  0.00  0.00    +0.147 HD
ENDBRANCH  10  12
ENDBRANCH   1  10
TORSDOF 4
ENDMDL
