MODEL 1
REMARK VINA RESULT:      -9.2      0.000      0.000
REMARK  Name = 25113127
REMARK  7 active torsions:
REMARK  status: ('A' for Active; 'I' for Inactive)
REMARK    1  A    between atoms: C_3  and  C_10
REMARK    2  A    between atoms: C_7  and  C_20
REMARK    3  A    between atoms: N_9  and  C_12
REMARK    4  A    between atoms: C_12  and  C_14
REMARK    5  A    between atoms: C_20  and  N_21
REMARK    6  A    between atoms: C_20  and  C_25
REMARK    7  A    between atoms: C_25  and  C_26
REMARK                            x       y       z     vdW  Elec       q    Type
REMARK                         _______ _______ _______ _____ _____    ______ ____
ROOT
ATOM      1  O   UNL     1      34.365 -17.852 -23.747  0.00  0.00    -0.277 OA
ATOM      2  N   UNL     1      34.213 -16.355 -21.988  0.00  0.00    -0.275 N 
ATOM      3  C   UNL     1      33.211 -15.488 -22.595  0.00  0.00    +0.152 C 
ATOM      4  C   UNL     1      32.691 -14.634 -21.445  0.00  0.00    +0.031 C 
ATOM      5  C   UNL     1      33.885 -14.552 -20.496  0.00  0.00    +0.024 C 
ATOM      6  C   UNL     1      34.532 -15.921 -20.631  0.00  0.00    +0.094 C 
ATOM      7  C   UNL     1      34.656 -17.519 -22.597  0.00  0.00    +0.205 C 
ENDROOT
BRANCH   3  10
ATOM      8  O   UNL     1      35.124 -14.736 -23.809  0.00  0.00    -0.273 OA
ATOM      9  N   UNL     1      33.041 -13.824 -24.310  0.00  0.00    -0.299 N 
ATOM     10  C   UNL     1      33.911 -14.661 -23.632  0.00  0.00    +0.241 C 
ATOM     11  H   UNL     1      32.085 -13.854 -24.076  0.00  0.00    +0.150 HD
BRANCH   9  12
ATOM     12  C   UNL     1      33.469 -12.909 -25.342  0.00  0.00    +0.116 C 
BRANCH  12  14
ATOM     13 CL   UNL     1      32.348  -9.101 -21.970  0.00  0.00    -0.082 Cl
ATOM     14  C   UNL     1      33.783 -11.547 -24.792  0.00  0.00    -0.002 C 
ATOM     15  C   UNL     1      33.009 -11.018 -23.757  0.00  0.00    +0.009 C 
ATOM     16  C   UNL     1      34.846 -10.812 -25.313  0.00  0.00    -0.003 C 
ATOM     17  C   UNL     1      33.300  -9.753 -23.246  0.00  0.00    +0.057 C 
ATOM     18  C   UNL     1      35.137  -9.547 -24.803  0.00  0.00    +0.001 C 
ATOM     19  C   UNL     1      34.364  -9.018 -23.769  0.00  0.00    +0.011 C 
ENDBRANCH  12  14
ENDBRANCH   9  12
ENDBRANCH   3  10
BRANCH   7  20
ATOM     20  C   UNL     1      35.560 -18.387 -21.757  0.00  0.00    +0.013 C 
BRANCH  20  21
ATOM     21  N   UNL     1      36.849 -18.375 -22.436  0.00  0.00    +0.387 N 
ATOM     22  H   UNL     1      36.775 -17.837 -23.299  0.00  0.00    -0.089 HD
ATOM     23  H   UNL     1      37.128 -19.332 -22.654  0.00  0.00    -0.089 HD
ATOM     24  H   UNL     1      37.548 -17.948 -21.827  0.00  0.00    -0.089 HD
ENDBRANCH  20  21
BRANCH  20  25
ATOM     25  C   UNL     1      35.019 -19.814 -21.671  0.00  0.00    -0.013 C 
BRANCH  25  26
ATOM     26  C   UNL     1      34.507 -20.230 -20.275  0.00  0.00    -0.002 C 
ATOM     27  C   UNL     1      35.304 -21.437 -19.772  0.00  0.00    -0.000 C 
ATOM     28  C   UNL     1      33.015 -20.564 -20.275  0.00  0.00    -0.000 C 
ENDBRANCH  25  26
ENDBRANCH  20  25
ENDBRANCH   7  20
TORSDOF 7
ENDMDL
MODEL 2
REMARK VINA RESULT:      -9.1      3.268      8.446
REMARK  Name = 25113127
REMARK  7 active torsions:
REMARK  status: ('A' for Active; 'I' for Inactive)
REMARK    1  A    between atoms: C_3  and  C_10
REMARK    2  A    between atoms: C_7  and  C_20
REMARK    3  A    between atoms: N_9  and  C_12
REMARK    4  A    between atoms: C_12  and  C_14
REMARK    5  A    between atoms: C_20  and  N_21
REMARK    6  A    between atoms: C_20  and  C_25
REMARK    7  A    between atoms: C_25  and  C_26
REMARK                            x       y       z     vdW  Elec       q    Type
REMARK                         _______ _______ _______ _____ _____    ______ ____
ROOT
ATOM      1  O   UNL     1      34.779 -15.490 -24.925  0.00  0.00    -0.277 OA
ATOM      2  N   UNL     1      33.819 -15.235 -22.834  0.00  0.00    -0.275 N 
ATOM      3  C   UNL     1      34.770 -16.069 -22.112  0.00  0.00    +0.152 C 
ATOM      4  C   UNL     1      34.535 -15.740 -20.642  0.00  0.00    +0.031 C 
ATOM      5  C   UNL     1      33.061 -15.344 -20.598  0.00  0.00    +0.024 C 
ATOM      6  C   UNL     1      32.852 -14.628 -21.924  0.00  0.00    +0.094 C 
ATOM      7  C   UNL     1      33.950 -14.956 -24.186  0.00  0.00    +0.205 C 
ENDROOT
BRANCH   3  10
ATOM      8  O   UNL     1      34.605 -17.973 -23.543  0.00  0.00    -0.273 OA
ATOM      9  N   UNL     1      33.902 -18.161 -21.331  0.00  0.00    -0.299 N 
ATOM     10  C   UNL     1      34.432 -17.497 -22.424  0.00  0.00    +0.241 C 
ATOM     11  H   UNL     1      33.812 -17.669 -20.483  0.00  0.00    +0.150 HD
BRANCH   9  12
ATOM     12  C   UNL     1      33.474 -19.540 -21.376  0.00  0.00    +0.116 C 
BRANCH  12  14
ATOM     13 CL   UNL     1      33.501 -23.205 -17.675  0.00  0.00    -0.082 Cl
ATOM     14  C   UNL     1      34.257 -20.402 -20.427  0.00  0.00    -0.002 C 
ATOM     15  C   UNL     1      33.592 -21.298 -19.589  0.00  0.00    +0.009 C 
ATOM     16  C   UNL     1      35.647 -20.308 -20.385  0.00  0.00    -0.003 C 
ATOM     17  C   UNL     1      34.319 -22.099 -18.708  0.00  0.00    +0.057 C 
ATOM     18  C   UNL     1      36.375 -21.108 -19.503  0.00  0.00    +0.001 C 
ATOM     19  C   UNL     1      35.710 -22.004 -18.666  0.00  0.00    +0.011 C 
ENDBRANCH  12  14
ENDBRANCH   9  12
ENDBRANCH   3  10
BRANCH   7  20
ATOM     20  C   UNL     1      32.983 -13.937 -24.736  0.00  0.00    +0.013 C 
BRANCH  20  21
ATOM     21  N   UNL     1      32.383 -14.565 -25.906  0.00  0.00    +0.387 N 
ATOM     22  H   UNL     1      31.849 -13.870 -26.428  0.00  0.00    -0.089 HD
ATOM     23  H   UNL     1      31.762 -15.317 -25.608  0.00  0.00    -0.089 HD
ATOM     24  H   UNL     1      33.118 -14.946 -26.501  0.00  0.00    -0.089 HD
ENDBRANCH  20  21
BRANCH  20  25
ATOM     25  C   UNL     1      33.711 -12.655 -25.137  0.00  0.00    -0.013 C 
BRANCH  25  26
ATOM     26  C   UNL     1      33.917 -11.641 -23.989  0.00  0.00    -0.002 C 
ATOM     27  C   UNL     1      32.588 -11.407 -23.265  0.00  0.00    -0.000 C 
ATOM     28  C   UNL     1      34.476 -10.306 -24.482  0.00  0.00    -0.000 C 
ENDBRANCH  25  26
ENDBRANCH  20  25
ENDBRANCH   7  20
TORSDOF 7
ENDMDL
MODEL 3
REMARK VINA RESULT:      -8.8      2.060      2.914
REMARK  Name = 25113127
REMARK  7 active torsions:
REMARK  status: ('A' for Active; 'I' for Inactive)
REMARK    1  A    between atoms: C_3  and  C_10
REMARK    2  A    between atoms: C_7  and  C_20
REMARK    3  A    between atoms: N_9  and  C_12
REMARK    4  A    between atoms: C_12  and  C_14
REMARK    5  A    between atoms: C_20  and  N_21
REMARK    6  A    between atoms: C_20  and  C_25
REMARK    7  A    between atoms: C_25  and  C_26
REMARK                            x       y       z     vdW  Elec       q    Type
REMARK                         _______ _______ _______ _____ _____    ______ ____
ROOT
ATOM      1  O   UNL     1      35.347 -17.563 -20.605  0.00  0.00    -0.277 OA
ATOM      2  N   UNL     1      34.777 -17.868 -22.827  0.00  0.00    -0.275 N 
ATOM      3  C   UNL     1      35.058 -16.505 -23.259  0.00  0.00    +0.152 C 
ATOM      4  C   UNL     1      35.101 -16.583 -24.781  0.00  0.00    +0.031 C 
ATOM      5  C   UNL     1      34.155 -17.738 -25.104  0.00  0.00    +0.024 C 
ATOM      6  C   UNL     1      34.384 -18.708 -23.955  0.00  0.00    +0.094 C 
ATOM      7  C   UNL     1      35.017 -18.303 -21.533  0.00  0.00    +0.205 C 
ENDROOT
BRANCH   3  10
ATOM      8  O   UNL     1      33.275 -15.936 -21.778  0.00  0.00    -0.273 OA
ATOM      9  N   UNL     1      33.723 -14.544 -23.590  0.00  0.00    -0.299 N 
ATOM     10  C   UNL     1      33.929 -15.645 -22.777  0.00  0.00    +0.241 C 
ATOM     11  H   UNL     1      34.316 -14.419 -24.367  0.00  0.00    +0.150 HD
BRANCH   9  12
ATOM     12  C   UNL     1      32.681 -13.572 -23.356  0.00  0.00    +0.116 C 
BRANCH  12  14
ATOM     13 CL   UNL     1      35.691 -10.342 -26.119  0.00  0.00    -0.082 Cl
ATOM     14  C   UNL     1      33.146 -12.171 -23.633  0.00  0.00    -0.002 C 
ATOM     15  C   UNL     1      34.093 -11.935 -24.631  0.00  0.00    +0.009 C 
ATOM     16  C   UNL     1      32.632 -11.107 -22.894  0.00  0.00    -0.003 C 
ATOM     17  C   UNL     1      34.525 -10.634 -24.888  0.00  0.00    +0.057 C 
ATOM     18  C   UNL     1      33.064  -9.805 -23.150  0.00  0.00    +0.001 C 
ATOM     19  C   UNL     1      34.010  -9.570 -24.148  0.00  0.00    +0.011 C 
ENDBRANCH  12  14
ENDBRANCH   9  12
ENDBRANCH   3  10
BRANCH   7  20
ATOM     20  C   UNL     1      34.837 -19.782 -21.301  0.00  0.00    +0.013 C 
BRANCH  20  21
ATOM     21  N   UNL     1      33.547 -19.916 -20.636  0.00  0.00    +0.387 N 
ATOM     22  H   UNL     1      33.191 -20.863 -20.771  0.00  0.00    -0.089 HD
ATOM     23  H   UNL     1      32.889 -19.245 -21.031  0.00  0.00    -0.089 HD
ATOM     24  H   UNL     1      33.660 -19.734 -19.638  0.00  0.00    -0.089 HD
ENDBRANCH  20  21
BRANCH  20  25
ATOM     25  C   UNL     1      35.951 -20.336 -20.414  0.00  0.00    -0.013 C 
BRANCH  25  26
ATOM     26  C   UNL     1      35.469 -21.223 -19.245  0.00  0.00    -0.002 C 
ATOM     27  C   UNL     1      36.646 -21.536 -18.317  0.00  0.00    -0.000 C 
ATOM     28  C   UNL     1      34.833 -22.528 -19.726  0.00  0.00    -0.000 C 
ENDBRANCH  25  26
ENDBRANCH  20  25
ENDBRANCH   7  20
TORSDOF 7
ENDMDL
MODEL 4
REMARK VINA RESULT:      -8.7      7.077     10.639
REMARK  Name = 25113127
REMARK  7 active torsions:
REMARK  status: ('A' for Active; 'I' for Inactive)
REMARK    1  A    between atoms: C_3  and  C_10
REMARK    2  A    between atoms: C_7  and  C_20
REMARK    3  A    between atoms: N_9  and  C_12
REMARK    4  A    between atoms: C_12  and  C_14
REMARK    5  A    between atoms: C_20  and  N_21
REMARK    6  A    between atoms: C_20  and  C_25
REMARK    7  A    between atoms: C_25  and  C_26
REMARK                            x       y       z     vdW  Elec       q    Type
REMARK                         _______ _______ _______ _____ _____    ______ ____
ROOT
ATOM      1  O   UNL     1      34.641 -25.237 -14.350  0.00  0.00    -0.277 OA
ATOM      2  N   UNL     1      36.246 -23.895 -15.341  0.00  0.00    -0.275 N 
ATOM      3  C   UNL     1      35.398 -22.722 -15.512  0.00  0.00    +0.152 C 
ATOM      4  C   UNL     1      36.367 -21.585 -15.816  0.00  0.00    +0.031 C 
ATOM      5  C   UNL     1      37.537 -22.289 -16.499  0.00  0.00    +0.024 C 
ATOM      6  C   UNL     1      37.614 -23.624 -15.773  0.00  0.00    +0.094 C 
ATOM      7  C   UNL     1      35.806 -25.043 -14.701  0.00  0.00    +0.205 C 
ENDROOT
BRANCH   3  10
ATOM      8  O   UNL     1      33.467 -23.675 -16.543  0.00  0.00    -0.273 OA
ATOM      9  N   UNL     1      34.946 -22.436 -17.847  0.00  0.00    -0.299 N 
ATOM     10  C   UNL     1      34.486 -23.000 -16.669  0.00  0.00    +0.241 C 
ATOM     11  H   UNL     1      35.781 -21.915 -17.822  0.00  0.00    +0.150 HD
BRANCH   9  12
ATOM     12  C   UNL     1      34.260 -22.577 -19.111  0.00  0.00    +0.116 C 
BRANCH  12  14
ATOM     13 CL   UNL     1      36.681 -18.669 -21.560  0.00  0.00    -0.082 Cl
ATOM     14  C   UNL     1      34.171 -21.273 -19.851  0.00  0.00    -0.002 C 
ATOM     15  C   UNL     1      35.333 -20.649 -20.308  0.00  0.00    +0.009 C 
ATOM     16  C   UNL     1      32.928 -20.686 -20.080  0.00  0.00    -0.003 C 
ATOM     17  C   UNL     1      35.250 -19.438 -20.995  0.00  0.00    +0.057 C 
ATOM     18  C   UNL     1      32.844 -19.474 -20.766  0.00  0.00    +0.001 C 
ATOM     19  C   UNL     1      34.005 -18.851 -21.224  0.00  0.00    +0.011 C 
ENDBRANCH  12  14
ENDBRANCH   9  12
ENDBRANCH   3  10
BRANCH   7  20
ATOM     20  C   UNL     1      36.861 -26.092 -14.453  0.00  0.00    +0.013 C 
BRANCH  20  21
ATOM     21  N   UNL     1      36.301 -27.334 -14.971  0.00  0.00    +0.387 N 
ATOM     22  H   UNL     1      35.330 -27.420 -14.673  0.00  0.00    -0.089 HD
ATOM     23  H   UNL     1      36.838 -28.124 -14.614  0.00  0.00    -0.089 HD
ATOM     24  H   UNL     1      36.345 -27.327 -15.990  0.00  0.00    -0.089 HD
ENDBRANCH  20  21
BRANCH  20  25
ATOM     25  C   UNL     1      37.158 -26.227 -12.960  0.00  0.00    -0.013 C 
BRANCH  25  26
ATOM     26  C   UNL     1      38.485 -25.582 -12.503  0.00  0.00    -0.002 C 
ATOM     27  C   UNL     1      38.232 -24.136 -12.067  0.00  0.00    -0.000 C 
ATOM     28  C   UNL     1      39.555 -25.610 -13.595  0.00  0.00    -0.000 C 
ENDBRANCH  25  26
ENDBRANCH  20  25
ENDBRANCH   7  20
TORSDOF 7
ENDMDL
MODEL 5
REMARK VINA RESULT:      -8.7      2.306      3.312
REMARK  Name = 25113127
REMARK  7 active torsions:
REMARK  status: ('A' for Active; 'I' for Inactive)
REMARK    1  A    between atoms: C_3  and  C_10
REMARK    2  A    between atoms: C_7  and  C_20
REMARK    3  A    between atoms: N_9  and  C_12
REMARK    4  A    between atoms: C_12  and  C_14
REMARK    5  A    between atoms: C_20  and  N_21
REMARK    6  A    between atoms: C_20  and  C_25
REMARK    7  A    between atoms: C_25  and  C_26
REMARK                            x       y       z     vdW  Elec       q    Type
REMARK                         _______ _______ _______ _____ _____    ______ ____
ROOT
ATOM      1  O   UNL     1      35.030 -15.743 -20.371  0.00  0.00    -0.277 OA
ATOM      2  N   UNL     1      34.523 -15.969 -22.619  0.00  0.00    -0.275 N 
ATOM      3  C   UNL     1      34.286 -14.555 -22.878  0.00  0.00    +0.152 C 
ATOM      4  C   UNL     1      34.298 -14.433 -24.398  0.00  0.00    +0.031 C 
ATOM      5  C   UNL     1      33.812 -15.803 -24.867  0.00  0.00    +0.024 C 
ATOM      6  C   UNL     1      34.413 -16.755 -23.844  0.00  0.00    +0.094 C 
ATOM      7  C   UNL     1      34.950 -16.437 -21.386  0.00  0.00    +0.205 C 
ENDROOT
BRANCH   3  10
ATOM      8  O   UNL     1      32.242 -15.065 -21.756  0.00  0.00    -0.273 OA
ATOM      9  N   UNL     1      32.614 -12.885 -22.486  0.00  0.00    -0.299 N 
ATOM     10  C   UNL     1      32.944 -14.217 -22.302  0.00  0.00    +0.241 C 
ATOM     11  H   UNL     1      33.263 -12.301 -22.941  0.00  0.00    +0.150 HD
BRANCH   9  12
ATOM     12  C   UNL     1      31.364 -12.312 -22.043  0.00  0.00    +0.116 C 
BRANCH  12  14
ATOM     13 CL   UNL     1      32.594  -7.262 -21.712  0.00  0.00    -0.082 Cl
ATOM     14  C   UNL     1      31.575 -11.095 -21.189  0.00  0.00    -0.002 C 
ATOM     15  C   UNL     1      31.944  -9.885 -21.778  0.00  0.00    +0.009 C 
ATOM     16  C   UNL     1      31.403 -11.173 -19.808  0.00  0.00    -0.003 C 
ATOM     17  C   UNL     1      32.140  -8.754 -20.986  0.00  0.00    +0.057 C 
ATOM     18  C   UNL     1      31.600 -10.043 -19.014  0.00  0.00    +0.001 C 
ATOM     19  C   UNL     1      31.968  -8.833 -19.604  0.00  0.00    +0.011 C 
ENDBRANCH  12  14
ENDBRANCH   9  12
ENDBRANCH   3  10
BRANCH   7  20
ATOM     20  C   UNL     1      35.315 -17.900 -21.339  0.00  0.00    +0.013 C 
BRANCH  20  21
ATOM     21  N   UNL     1      36.243 -18.104 -22.444  0.00  0.00    +0.387 N 
ATOM     22  H   UNL     1      37.022 -18.684 -22.131  0.00  0.00    -0.089 HD
ATOM     23  H   UNL     1      36.596 -17.203 -22.763  0.00  0.00    -0.089 HD
ATOM     24  H   UNL     1      35.758 -18.570 -23.211  0.00  0.00    -0.089 HD
ENDBRANCH  20  21
BRANCH  20  25
ATOM     25  C   UNL     1      34.077 -18.778 -21.516  0.00  0.00    -0.013 C 
BRANCH  25  26
ATOM     26  C   UNL     1      34.213 -20.211 -20.956  0.00  0.00    -0.002 C 
ATOM     27  C   UNL     1      33.028 -20.518 -20.035  0.00  0.00    -0.000 C 
ATOM     28  C   UNL     1      35.522 -20.419 -20.195  0.00  0.00    -0.000 C 
ENDBRANCH  25  26
ENDBRANCH  20  25
ENDBRANCH   7  20
TORSDOF 7
ENDMDL
MODEL 6
REMARK VINA RESULT:      -8.6      2.438      3.838
REMARK  Name = 25113127
REMARK  7 active torsions:
REMARK  status: ('A' for Active; 'I' for Inactive)
REMARK    1  A    between atoms: C_3  and  C_10
REMARK    2  A    between atoms: C_7  and  C_20
REMARK    3  A    between atoms: N_9  and  C_12
REMARK    4  A    between atoms: C_12  and  C_14
REMARK    5  A    between atoms: C_20  and  N_21
REMARK    6  A    between atoms: C_20  and  C_25
REMARK    7  A    between atoms: C_25  and  C_26
REMARK                            x       y       z     vdW  Elec       q    Type
REMARK                         _______ _______ _______ _____ _____    ______ ____
ROOT
ATOM      1  O   UNL     1      34.705 -14.504 -21.003  0.00  0.00    -0.277 OA
ATOM      2  N   UNL     1      33.887 -14.595 -23.166  0.00  0.00    -0.275 N 
ATOM      3  C   UNL     1      33.827 -13.155 -23.382  0.00  0.00    +0.152 C 
ATOM      4  C   UNL     1      33.661 -12.996 -24.889  0.00  0.00    +0.031 C 
ATOM      5  C   UNL     1      32.925 -14.269 -25.301  0.00  0.00    +0.024 C 
ATOM      6  C   UNL     1      33.507 -15.324 -24.373  0.00  0.00    +0.094 C 
ATOM      7  C   UNL     1      34.395 -15.153 -22.004  0.00  0.00    +0.205 C 
ENDROOT
BRANCH   3  10
ATOM      8  O   UNL     1      31.925 -13.387 -21.959  0.00  0.00    -0.273 OA
ATOM      9  N   UNL     1      32.441 -11.285 -22.818  0.00  0.00    -0.299 N 
ATOM     10  C   UNL     1      32.634 -12.643 -22.633  0.00  0.00    +0.241 C 
ATOM     11  H   UNL     1      33.080 -10.794 -23.384  0.00  0.00    +0.150 HD
BRANCH   9  12
ATOM     12  C   UNL     1      31.347 -10.554 -22.222  0.00  0.00    +0.116 C 
BRANCH  12  14
ATOM     13 CL   UNL     1      31.231  -5.850 -24.455  0.00  0.00    -0.082 Cl
ATOM     14  C   UNL     1      31.635  -9.083 -22.134  0.00  0.00    -0.002 C 
ATOM     15  C   UNL     1      31.335  -8.247 -23.211  0.00  0.00    +0.009 C 
ATOM     16  C   UNL     1      32.204  -8.552 -20.977  0.00  0.00    -0.003 C 
ATOM     17  C   UNL     1      31.603  -6.881 -23.129  0.00  0.00    +0.057 C 
ATOM     18  C   UNL     1      32.473  -7.186 -20.895  0.00  0.00    +0.001 C 
ATOM     19  C   UNL     1      32.172  -6.350 -21.971  0.00  0.00    +0.011 C 
ENDBRANCH  12  14
ENDBRANCH   9  12
ENDBRANCH   3  10
BRANCH   7  20
ATOM     20  C   UNL     1      34.546 -16.654 -22.016  0.00  0.00    +0.013 C 
BRANCH  20  21
ATOM     21  N   UNL     1      35.056 -17.003 -20.697  0.00  0.00    +0.387 N 
ATOM     22  H   UNL     1      36.064 -17.153 -20.750  0.00  0.00    -0.089 HD
ATOM     23  H   UNL     1      34.602 -17.855 -20.370  0.00  0.00    -0.089 HD
ATOM     24  H   UNL     1      34.860 -16.242 -20.045  0.00  0.00    -0.089 HD
ENDBRANCH  20  21
BRANCH  20  25
ATOM     25  C   UNL     1      35.530 -17.095 -23.099  0.00  0.00    -0.013 C 
BRANCH  25  26
ATOM     26  C   UNL     1      35.360 -18.555 -23.572  0.00  0.00    -0.002 C 
ATOM     27  C   UNL     1      34.504 -18.589 -24.842  0.00  0.00    -0.000 C 
ATOM     28  C   UNL     1      34.729 -19.447 -22.503  0.00  0.00    -0.000 C 
ENDBRANCH  25  26
ENDBRANCH  20  25
ENDBRANCH   7  20
TORSDOF 7
ENDMDL
MODEL 7
REMARK VINA RESULT:      -8.6      7.588     10.255
REMARK  Name = 25113127
REMARK  7 active torsions:
REMARK  status: ('A' for Active; 'I' for Inactive)
REMARK    1  A    between atoms: C_3  and  C_10
REMARK    2  A    between atoms: C_7  and  C_20
REMARK    3  A    between atoms: N_9  and  C_12
REMARK    4  A    between atoms: C_12  and  C_14
REMARK    5  A    between atoms: C_20  and  N_21
REMARK    6  A    between atoms: C_20  and  C_25
REMARK    7  A    between atoms: C_25  and  C_26
REMARK                            x       y       z     vdW  Elec       q    Type
REMARK                         _______ _______ _______ _____ _____    ______ ____
ROOT
ATOM      1  O   UNL     1      34.752 -23.743 -16.887  0.00  0.00    -0.277 OA
ATOM      2  N   UNL     1      32.996 -23.490 -15.400  0.00  0.00    -0.275 N 
ATOM      3  C   UNL     1      31.941 -23.903 -16.317  0.00  0.00    +0.152 C 
ATOM      4  C   UNL     1      30.733 -24.164 -15.425  0.00  0.00    +0.031 C 
ATOM      5  C   UNL     1      30.951 -23.217 -14.246  0.00  0.00    +0.024 C 
ATOM      6  C   UNL     1      32.461 -23.225 -14.067  0.00  0.00    +0.094 C 
ATOM      7  C   UNL     1      34.337 -23.515 -15.749  0.00  0.00    +0.205 C 
ENDROOT
BRANCH   3  10
ATOM      8  O   UNL     1      30.688 -22.071 -17.195  0.00  0.00    -0.273 OA
ATOM      9  N   UNL     1      32.725 -22.619 -18.180  0.00  0.00    -0.299 N 
ATOM     10  C   UNL     1      31.702 -22.761 -17.259  0.00  0.00    +0.241 C 
ATOM     11  H   UNL     1      33.490 -23.237 -18.131  0.00  0.00    +0.150 HD
BRANCH   9  12
ATOM     12  C   UNL     1      32.724 -21.608 -19.212  0.00  0.00    +0.116 C 
BRANCH  12  14
ATOM     13 CL   UNL     1      35.835 -18.508 -22.012  0.00  0.00    -0.082 Cl
ATOM     14  C   UNL     1      34.115 -21.176 -19.578  0.00  0.00    -0.002 C 
ATOM     15  C   UNL     1      34.306 -20.161 -20.517  0.00  0.00    +0.009 C 
ATOM     16  C   UNL     1      35.215 -21.789 -18.979  0.00  0.00    -0.003 C 
ATOM     17  C   UNL     1      35.598 -19.760 -20.856  0.00  0.00    +0.057 C 
ATOM     18  C   UNL     1      36.507 -21.388 -19.319  0.00  0.00    +0.001 C 
ATOM     19  C   UNL     1      36.699 -20.374 -20.257  0.00  0.00    +0.011 C 
ENDBRANCH  12  14
ENDBRANCH   9  12
ENDBRANCH   3  10
BRANCH   7  20
ATOM     20  C   UNL     1      35.305 -23.226 -14.629  0.00  0.00    +0.013 C 
BRANCH  20  21
ATOM     21  N   UNL     1      36.441 -22.565 -15.259  0.00  0.00    +0.387 N 
ATOM     22  H   UNL     1      37.245 -23.194 -15.255  0.00  0.00    -0.089 HD
ATOM     23  H   UNL     1      36.670 -21.716 -14.743  0.00  0.00    -0.089 HD
ATOM     24  H   UNL     1      36.202 -22.324 -16.221  0.00  0.00    -0.089 HD
ENDBRANCH  20  21
BRANCH  20  25
ATOM     25  C   UNL     1      35.754 -24.518 -13.948  0.00  0.00    -0.013 C 
BRANCH  25  26
ATOM     26  C   UNL     1      37.022 -25.162 -14.551  0.00  0.00    -0.002 C 
ATOM     27  C   UNL     1      36.667 -26.515 -15.174  0.00  0.00    -0.000 C 
ATOM     28  C   UNL     1      38.132 -25.348 -13.516  0.00  0.00    -0.000 C 
ENDBRANCH  25  26
ENDBRANCH  20  25
ENDBRANCH   7  20
TORSDOF 7
ENDMDL
MODEL 8
REMARK VINA RESULT:      -8.5      7.374     10.725
REMARK  Name = 25113127
REMARK  7 active torsions:
REMARK  status: ('A' for Active; 'I' for Inactive)
REMARK    1  A    between atoms: C_3  and  C_10
REMARK    2  A    between atoms: C_7  and  C_20
REMARK    3  A    between atoms: N_9  and  C_12
REMARK    4  A    between atoms: C_12  and  C_14
REMARK    5  A    between atoms: C_20  and  N_21
REMARK    6  A    between atoms: C_20  and  C_25
REMARK    7  A    between atoms: C_25  and  C_26
REMARK                            x       y       z     vdW  Elec       q    Type
REMARK                         _______ _______ _______ _____ _____    ______ ____
ROOT
ATOM      1  O   UNL     1      30.456 -22.165 -17.126  0.00  0.00    -0.277 OA
ATOM      2  N   UNL     1      31.147 -23.568 -15.419  0.00  0.00    -0.275 N 
ATOM      3  C   UNL     1      32.462 -22.969 -15.234  0.00  0.00    +0.152 C 
ATOM      4  C   UNL     1      32.949 -23.510 -13.895  0.00  0.00    +0.031 C 
ATOM      5  C   UNL     1      32.260 -24.869 -13.790  0.00  0.00    +0.024 C 
ATOM      6  C   UNL     1      30.908 -24.626 -14.442  0.00  0.00    +0.094 C 
ATOM      7  C   UNL     1      30.218 -23.061 -16.314  0.00  0.00    +0.205 C 
ENDROOT
BRANCH   3  10
ATOM      8  O   UNL     1      34.078 -24.397 -16.258  0.00  0.00    -0.273 OA
ATOM      9  N   UNL     1      33.173 -22.647 -17.499  0.00  0.00    -0.299 N 
ATOM     10  C   UNL     1      33.324 -23.434 -16.370  0.00  0.00    +0.241 C 
ATOM     11  H   UNL     1      32.534 -21.898 -17.466  0.00  0.00    +0.150 HD
BRANCH   9  12
ATOM     12  C   UNL     1      33.908 -22.871 -18.722  0.00  0.00    +0.116 C 
BRANCH  12  14
ATOM     13 CL   UNL     1      37.038 -19.341 -20.930  0.00  0.00    -0.082 Cl
ATOM     14  C   UNL     1      34.058 -21.611 -19.526  0.00  0.00    -0.002 C 
ATOM     15  C   UNL     1      35.330 -21.118 -19.820  0.00  0.00    +0.009 C 
ATOM     16  C   UNL     1      32.927 -20.934 -19.979  0.00  0.00    -0.003 C 
ATOM     17  C   UNL     1      35.470 -19.948 -20.566  0.00  0.00    +0.057 C 
ATOM     18  C   UNL     1      33.066 -19.764 -20.725  0.00  0.00    +0.001 C 
ATOM     19  C   UNL     1      34.337 -19.271 -21.019  0.00  0.00    +0.011 C 
ENDBRANCH  12  14
ENDBRANCH   9  12
ENDBRANCH   3  10
BRANCH   7  20
ATOM     20  C   UNL     1      28.848 -23.689 -16.253  0.00  0.00    +0.013 C 
BRANCH  20  21
ATOM     21  N   UNL     1      29.059 -25.106 -16.519  0.00  0.00    +0.387 N 
ATOM     22  H   UNL     1      28.426 -25.413 -17.257  0.00  0.00    -0.089 HD
ATOM     23  H   UNL     1      28.877 -25.642 -15.670  0.00  0.00    -0.089 HD
ATOM     24  H   UNL     1      30.024 -25.256 -16.814  0.00  0.00    -0.089 HD
ENDBRANCH  20  21
BRANCH  20  25
ATOM     25  C   UNL     1      27.922 -23.085 -17.309  0.00  0.00    -0.013 C 
BRANCH  25  26
ATOM     26  C   UNL     1      27.157 -21.822 -16.853  0.00  0.00    -0.002 C 
ATOM     27  C   UNL     1      26.422 -22.111 -15.541  0.00  0.00    -0.000 C 
ATOM     28  C   UNL     1      26.160 -21.333 -17.904  0.00  0.00    -0.000 C 
ENDBRANCH  25  26
ENDBRANCH  20  25
ENDBRANCH   7  20
TORSDOF 7
ENDMDL
MODEL 9
REMARK VINA RESULT:      -8.5      3.525      8.647
REMARK  Name = 25113127
REMARK  7 active torsions:
REMARK  status: ('A' for Active; 'I' for Inactive)
REMARK    1  A    between atoms: C_3  and  C_10
REMARK    2  A    between atoms: C_7  and  C_20
REMARK    3  A    between atoms: N_9  and  C_12
REMARK    4  A    between atoms: C_12  and  C_14
REMARK    5  A    between atoms: C_20  and  N_21
REMARK    6  A    between atoms: C_20  and  C_25
REMARK    7  A    between atoms: C_25  and  C_26
REMARK                            x       y       z     vdW  Elec       q    Type
REMARK                         _______ _______ _______ _____ _____    ______ ____
ROOT
ATOM      1  O   UNL     1      31.106 -11.034 -21.003  0.00  0.00    -0.277 OA
ATOM      2  N   UNL     1      32.534 -11.543 -22.752  0.00  0.00    -0.275 N 
ATOM      3  C   UNL     1      32.141 -12.940 -22.886  0.00  0.00    +0.152 C 
ATOM      4  C   UNL     1      32.701 -13.371 -24.237  0.00  0.00    +0.031 C 
ATOM      5  C   UNL     1      33.931 -12.483 -24.411  0.00  0.00    +0.024 C 
ATOM      6  C   UNL     1      33.504 -11.168 -23.777  0.00  0.00    +0.094 C 
ATOM      7  C   UNL     1      31.922 -10.681 -21.856  0.00  0.00    +0.205 C 
ENDROOT
BRANCH   3  10
ATOM      8  O   UNL     1      32.404 -13.545 -20.592  0.00  0.00    -0.273 OA
ATOM      9  N   UNL     1      33.809 -14.507 -22.181  0.00  0.00    -0.299 N 
ATOM     10  C   UNL     1      32.777 -13.689 -21.754  0.00  0.00    +0.241 C 
ATOM     11  H   UNL     1      34.015 -14.537 -23.143  0.00  0.00    +0.150 HD
BRANCH   9  12
ATOM     12  C   UNL     1      34.597 -15.318 -21.282  0.00  0.00    +0.116 C 
BRANCH  12  14
ATOM     13 CL   UNL     1      33.297 -20.304 -20.518  0.00  0.00    -0.082 Cl
ATOM     14  C   UNL     1      34.671 -16.749 -21.734  0.00  0.00    -0.002 C 
ATOM     15  C   UNL     1      34.025 -17.746 -21.001  0.00  0.00    +0.009 C 
ATOM     16  C   UNL     1      35.384 -17.081 -22.885  0.00  0.00    -0.003 C 
ATOM     17  C   UNL     1      34.094 -19.074 -21.420  0.00  0.00    +0.057 C 
ATOM     18  C   UNL     1      35.453 -18.409 -23.304  0.00  0.00    +0.001 C 
ATOM     19  C   UNL     1      34.808 -19.406 -22.572  0.00  0.00    +0.011 C 
ENDBRANCH  12  14
ENDBRANCH   9  12
ENDBRANCH   3  10
BRANCH   7  20
ATOM     20  C   UNL     1      32.327  -9.232 -21.969  0.00  0.00    +0.013 C 
BRANCH  20  21
ATOM     21  N   UNL     1      32.188  -8.684 -20.626  0.00  0.00    +0.387 N 
ATOM     22  H   UNL     1      32.397  -7.686 -20.642  0.00  0.00    -0.089 HD
ATOM     23  H   UNL     1      32.836  -9.158 -19.997  0.00  0.00    -0.089 HD
ATOM     24  H   UNL     1      31.232  -8.826 -20.299  0.00  0.00    -0.089 HD
ENDBRANCH  20  21
BRANCH  20  25
ATOM     25  C   UNL     1      31.416  -8.485 -22.943  0.00  0.00    -0.013 C 
BRANCH  25  26
ATOM     26  C   UNL     1      32.084  -7.303 -23.679  0.00  0.00    -0.002 C 
ATOM     27  C   UNL     1      33.608  -7.438 -23.592  0.00  0.00    -0.000 C 
ATOM     28  C   UNL     1      31.656  -5.947 -23.118  0.00  0.00    -0.000 C 
ENDBRANCH  25  26
ENDBRANCH  20  25
ENDBRANCH   7  20
TORSDOF 7
ENDMDL
