MODEL 1
REMARK VINA RESULT:      -7.8      0.000      0.000
REMARK  Name = 5287901
REMARK  5 active torsions:
REMARK  status: ('A' for Active; 'I' for Inactive)
REMARK    1  A    between atoms: C_4  and  C_7
REMARK    2  A    between atoms: C_5  and  C_11
REMARK    3  A    between atoms: C_11  and  CA_12
REMARK    4  A    between atoms: CA_12  and  N_13
REMARK    5  A    between atoms: CA_12  and  C_19
REMARK                            x       y       z     vdW  Elec       q    Type
REMARK                         _______ _______ _______ _____ _____    ______ ____
ROOT
ATOM      1  O   UNL     1      34.544 -18.493 -24.282  0.00  0.00    -0.348 OA
ATOM      2  O   UNL     1      33.900 -15.655 -26.251  0.00  0.00    -0.219 OA
ATOM      3  N   UNL     1      34.219 -17.911 -25.501  0.00  0.00    -0.001 NA
ATOM      4  C   UNL     1      34.689 -17.499 -23.412  0.00  0.00    +0.160 C 
ATOM      5  C   UNL     1      34.493 -16.293 -23.921  0.00  0.00    +0.095 C 
ATOM      6  C   UNL     1      34.194 -16.597 -25.260  0.00  0.00    +0.188 C 
ENDROOT
BRANCH   4   7
ATOM      7  C   UNL     1      35.056 -17.967 -21.994  0.00  0.00    +0.054 C 
ATOM      8  C   UNL     1      34.117 -19.114 -21.565  0.00  0.00    +0.008 C 
ATOM      9  C   UNL     1      34.944 -16.859 -20.922  0.00  0.00    +0.008 C 
ATOM     10  C   UNL     1      36.516 -18.472 -21.976  0.00  0.00    +0.008 C 
ENDBRANCH   4   7
BRANCH   5  11
ATOM     11  C   UNL     1      34.569 -14.977 -23.261  0.00  0.00    +0.030 C 
BRANCH  11  12
ATOM     12  CA  UNL     1      33.393 -14.034 -23.604  0.00  0.00    +0.046 C 
BRANCH  12  13
ATOM     13  N   UNL     1      33.951 -12.727 -24.073  0.00  0.00    +0.389 N 
ATOM     14  H1  UNL     1      33.533 -12.482 -24.971  0.00  0.00    -0.088 HD
ATOM     15  H2  UNL     1      34.962 -12.808 -24.178  0.00  0.00    -0.088 HD
ATOM     16  H3  UNL     1      33.737 -12.001 -23.389  0.00  0.00    -0.088 HD
ENDBRANCH  12  13
BRANCH  12  19
ATOM     17  O   UNL     1      32.241 -14.911 -21.737  0.00  0.00    -0.248 OA
ATOM     18  OXT UNL     1      31.986 -12.695 -22.240  0.00  0.00    -0.248 OA
ATOM     19  C   UNL     1      32.447 -13.859 -22.407  0.00  0.00    +0.345 C 
ENDBRANCH  12  19
ENDBRANCH  11  12
ENDBRANCH   5  11
TORSDOF 5
ENDMDL
MODEL 2
REMARK VINA RESULT:      -7.7     12.155     13.930
REMARK  Name = 5287901
REMARK  5 active torsions:
REMARK  status: ('A' for Active; 'I' for Inactive)
REMARK    1  A    between atoms: C_4  and  C_7
REMARK    2  A    between atoms: C_5  and  C_11
REMARK    3  A    between atoms: C_11  and  CA_12
REMARK    4  A    between atoms: CA_12  and  N_13
REMARK    5  A    between atoms: CA_12  and  C_19
REMARK                            x       y       z     vdW  Elec       q    Type
REMARK                         _______ _______ _______ _____ _____    ______ ____
ROOT
ATOM      1  O   UNL     1      35.495 -23.537 -12.133  0.00  0.00    -0.348 OA
ATOM      2  O   UNL     1      38.973 -23.343 -11.669  0.00  0.00    -0.219 OA
ATOM      3  N   UNL     1      36.600 -23.319 -11.319  0.00  0.00    -0.001 NA
ATOM      4  C   UNL     1      35.964 -23.809 -13.346  0.00  0.00    +0.160 C 
ATOM      5  C   UNL     1      37.285 -23.797 -13.438  0.00  0.00    +0.095 C 
ATOM      6  C   UNL     1      37.657 -23.480 -12.120  0.00  0.00    +0.188 C 
ENDROOT
BRANCH   4   7
ATOM      7  C   UNL     1      34.866 -24.076 -14.388  0.00  0.00    +0.054 C 
ATOM      8  C   UNL     1      35.167 -25.394 -15.133  0.00  0.00    +0.008 C 
ATOM      9  C   UNL     1      34.735 -22.968 -15.456  0.00  0.00    +0.008 C 
ATOM     10  C   UNL     1      33.498 -24.193 -13.682  0.00  0.00    +0.008 C 
ENDBRANCH   4   7
BRANCH   5  11
ATOM     11  C   UNL     1      38.142 -24.048 -14.611  0.00  0.00    +0.030 C 
BRANCH  11  12
ATOM     12  CA  UNL     1      38.781 -25.456 -14.631  0.00  0.00    +0.046 C 
BRANCH  12  13
ATOM     13  N   UNL     1      38.513 -26.119 -13.316  0.00  0.00    +0.389 N 
ATOM     14  H1  UNL     1      37.511 -26.278 -13.213  0.00  0.00    -0.088 HD
ATOM     15  H2  UNL     1      38.843 -25.520 -12.560  0.00  0.00    -0.088 HD
ATOM     16  H3  UNL     1      39.005 -27.012 -13.280  0.00  0.00    -0.088 HD
ENDBRANCH  12  13
BRANCH  12  19
ATOM     17  O   UNL     1      40.661 -26.137 -15.889  0.00  0.00    -0.248 OA
ATOM     18  OXT UNL     1      40.957 -24.600 -14.222  0.00  0.00    -0.248 OA
ATOM     19  C   UNL     1      40.283 -25.387 -14.944  0.00  0.00    +0.345 C 
ENDBRANCH  12  19
ENDBRANCH  11  12
ENDBRANCH   5  11
TORSDOF 5
ENDMDL
MODEL 3
REMARK VINA RESULT:      -7.6     11.794     13.523
REMARK  Name = 5287901
REMARK  5 active torsions:
REMARK  status: ('A' for Active; 'I' for Inactive)
REMARK    1  A    between atoms: C_4  and  C_7
REMARK    2  A    between atoms: C_5  and  C_11
REMARK    3  A    between atoms: C_11  and  CA_12
REMARK    4  A    between atoms: CA_12  and  N_13
REMARK    5  A    between atoms: CA_12  and  C_19
REMARK                            x       y       z     vdW  Elec       q    Type
REMARK                         _______ _______ _______ _____ _____    ______ ____
ROOT
ATOM      1  O   UNL     1      35.639 -26.050 -15.853  0.00  0.00    -0.348 OA
ATOM      2  O   UNL     1      38.778 -27.150 -14.721  0.00  0.00    -0.219 OA
ATOM      3  N   UNL     1      36.645 -27.007 -15.808  0.00  0.00    -0.001 NA
ATOM      4  C   UNL     1      36.044 -25.036 -15.096  0.00  0.00    +0.160 C 
ATOM      5  C   UNL     1      37.232 -25.209 -14.539  0.00  0.00    +0.095 C 
ATOM      6  C   UNL     1      37.586 -26.483 -15.019  0.00  0.00    +0.188 C 
ENDROOT
BRANCH   4   7
ATOM      7  C   UNL     1      35.040 -23.874 -15.028  0.00  0.00    +0.054 C 
ATOM      8  C   UNL     1      34.281 -23.922 -13.685  0.00  0.00    +0.008 C 
ATOM      9  C   UNL     1      33.981 -23.898 -16.153  0.00  0.00    +0.008 C 
ATOM     10  C   UNL     1      35.792 -22.530 -15.139  0.00  0.00    +0.008 C 
ENDBRANCH   4   7
BRANCH   5  11
ATOM     11  C   UNL     1      37.988 -24.309 -13.649  0.00  0.00    +0.030 C 
BRANCH  11  12
ATOM     12  CA  UNL     1      37.911 -24.693 -12.154  0.00  0.00    +0.046 C 
BRANCH  12  13
ATOM     13  N   UNL     1      37.285 -26.048 -12.042  0.00  0.00    +0.389 N 
ATOM     14  H1  UNL     1      37.848 -26.633 -11.425  0.00  0.00    -0.088 HD
ATOM     15  H2  UNL     1      37.236 -26.477 -12.966  0.00  0.00    -0.088 HD
ATOM     16  H3  UNL     1      36.343 -25.958 -11.660  0.00  0.00    -0.088 HD
ENDBRANCH  12  13
BRANCH  12  19
ATOM     17  O   UNL     1      37.354 -22.444 -11.697  0.00  0.00    -0.248 OA
ATOM     18  OXT UNL     1      36.406 -24.087 -10.420  0.00  0.00    -0.248 OA
ATOM     19  C   UNL     1      37.144 -23.638 -11.342  0.00  0.00    +0.345 C 
ENDBRANCH  12  19
ENDBRANCH  11  12
ENDBRANCH   5  11
TORSDOF 5
ENDMDL
MODEL 4
REMARK VINA RESULT:      -7.4      1.974      3.660
REMARK  Name = 5287901
REMARK  5 active torsions:
REMARK  status: ('A' for Active; 'I' for Inactive)
REMARK    1  A    between atoms: C_4  and  C_7
REMARK    2  A    between atoms: C_5  and  C_11
REMARK    3  A    between atoms: C_11  and  CA_12
REMARK    4  A    between atoms: CA_12  and  N_13
REMARK    5  A    between atoms: CA_12  and  C_19
REMARK                            x       y       z     vdW  Elec       q    Type
REMARK                         _______ _______ _______ _____ _____    ______ ____
ROOT
ATOM      1  O   UNL     1      35.332 -16.693 -20.238  0.00  0.00    -0.348 OA
ATOM      2  O   UNL     1      33.589 -13.841 -21.324  0.00  0.00    -0.219 OA
ATOM      3  N   UNL     1      34.906 -15.384 -20.045  0.00  0.00    -0.001 NA
ATOM      4  C   UNL     1      34.851 -17.079 -21.415  0.00  0.00    +0.160 C 
ATOM      5  C   UNL     1      34.137 -16.159 -22.044  0.00  0.00    +0.095 C 
ATOM      6  C   UNL     1      34.195 -15.087 -21.136  0.00  0.00    +0.188 C 
ENDROOT
BRANCH   4   7
ATOM      7  C   UNL     1      35.227 -18.521 -21.794  0.00  0.00    +0.054 C 
ATOM      8  C   UNL     1      36.449 -18.974 -20.967  0.00  0.00    +0.008 C 
ATOM      9  C   UNL     1      35.592 -18.700 -23.284  0.00  0.00    +0.008 C 
ATOM     10  C   UNL     1      34.038 -19.462 -21.500  0.00  0.00    +0.008 C 
ENDBRANCH   4   7
BRANCH   5  11
ATOM     11  C   UNL     1      33.458 -16.233 -23.350  0.00  0.00    +0.030 C 
BRANCH  11  12
ATOM     12  CA  UNL     1      33.936 -15.172 -24.368  0.00  0.00    +0.046 C 
BRANCH  12  13
ATOM     13  N   UNL     1      33.006 -14.001 -24.307  0.00  0.00    +0.389 N 
ATOM     14  H1  UNL     1      33.549 -13.138 -24.274  0.00  0.00    -0.088 HD
ATOM     15  H2  UNL     1      32.426 -14.071 -23.471  0.00  0.00    -0.088 HD
ATOM     16  H3  UNL     1      32.411 -13.997 -25.135  0.00  0.00    -0.088 HD
ENDBRANCH  12  13
BRANCH  12  19
ATOM     17  O   UNL     1      34.761 -16.784 -25.885  0.00  0.00    -0.248 OA
ATOM     18  OXT UNL     1      33.382 -15.141 -26.676  0.00  0.00    -0.248 OA
ATOM     19  C   UNL     1      34.032 -15.757 -25.785  0.00  0.00    +0.345 C 
ENDBRANCH  12  19
ENDBRANCH  11  12
ENDBRANCH   5  11
TORSDOF 5
ENDMDL
MODEL 5
REMARK VINA RESULT:      -7.4      9.095     11.562
REMARK  Name = 5287901
REMARK  5 active torsions:
REMARK  status: ('A' for Active; 'I' for Inactive)
REMARK    1  A    between atoms: C_4  and  C_7
REMARK    2  A    between atoms: C_5  and  C_11
REMARK    3  A    between atoms: C_11  and  CA_12
REMARK    4  A    between atoms: CA_12  and  N_13
REMARK    5  A    between atoms: CA_12  and  C_19
REMARK                            x       y       z     vdW  Elec       q    Type
REMARK                         _______ _______ _______ _____ _____    ______ ____
ROOT
ATOM      1  O   UNL     1      31.654 -22.974 -17.442  0.00  0.00    -0.348 OA
ATOM      2  O   UNL     1      35.091 -22.698 -18.117  0.00  0.00    -0.219 OA
ATOM      3  N   UNL     1      32.703 -22.765 -18.329  0.00  0.00    -0.001 NA
ATOM      4  C   UNL     1      32.200 -23.170 -16.247  0.00  0.00    +0.160 C 
ATOM      5  C   UNL     1      33.522 -23.115 -16.233  0.00  0.00    +0.095 C 
ATOM      6  C   UNL     1      33.808 -22.853 -17.584  0.00  0.00    +0.188 C 
ENDROOT
BRANCH   4   7
ATOM      7  C   UNL     1      31.172 -23.423 -15.132  0.00  0.00    +0.054 C 
ATOM      8  C   UNL     1      29.803 -22.840 -15.545  0.00  0.00    +0.008 C 
ATOM      9  C   UNL     1      31.550 -22.783 -13.777  0.00  0.00    +0.008 C 
ATOM     10  C   UNL     1      31.027 -24.941 -14.894  0.00  0.00    +0.008 C 
ENDBRANCH   4   7
BRANCH   5  11
ATOM     11  C   UNL     1      34.453 -23.283 -15.102  0.00  0.00    +0.030 C 
BRANCH  11  12
ATOM     12  CA  UNL     1      34.691 -24.756 -14.699  0.00  0.00    +0.046 C 
BRANCH  12  13
ATOM     13  N   UNL     1      34.701 -24.846 -13.205  0.00  0.00    +0.389 N 
ATOM     14  H1  UNL     1      33.860 -25.328 -12.888  0.00  0.00    -0.088 HD
ATOM     15  H2  UNL     1      34.725 -23.906 -12.809  0.00  0.00    -0.088 HD
ATOM     16  H3  UNL     1      35.526 -25.363 -12.901  0.00  0.00    -0.088 HD
ENDBRANCH  12  13
BRANCH  12  19
ATOM     17  O   UNL     1      36.912 -24.451 -15.445  0.00  0.00    -0.248 OA
ATOM     18  OXT UNL     1      35.973 -26.528 -15.623  0.00  0.00    -0.248 OA
ATOM     19  C   UNL     1      35.988 -25.303 -15.315  0.00  0.00    +0.345 C 
ENDBRANCH  12  19
ENDBRANCH  11  12
ENDBRANCH   5  11
TORSDOF 5
ENDMDL
MODEL 6
REMARK VINA RESULT:      -7.4      8.763     11.036
REMARK  Name = 5287901
REMARK  5 active torsions:
REMARK  status: ('A' for Active; 'I' for Inactive)
REMARK    1  A    between atoms: C_4  and  C_7
REMARK    2  A    between atoms: C_5  and  C_11
REMARK    3  A    between atoms: C_11  and  CA_12
REMARK    4  A    between atoms: CA_12  and  N_13
REMARK    5  A    between atoms: CA_12  and  C_19
REMARK                            x       y       z     vdW  Elec       q    Type
REMARK                         _______ _______ _______ _____ _____    ______ ____
ROOT
ATOM      1  O   UNL     1      31.546 -22.424 -17.603  0.00  0.00    -0.348 OA
ATOM      2  O   UNL     1      34.894 -22.798 -18.603  0.00  0.00    -0.219 OA
ATOM      3  N   UNL     1      32.563 -22.237 -18.531  0.00  0.00    -0.001 NA
ATOM      4  C   UNL     1      32.087 -23.062 -16.570  0.00  0.00    +0.160 C 
ATOM      5  C   UNL     1      33.377 -23.328 -16.705  0.00  0.00    +0.095 C 
ATOM      6  C   UNL     1      33.646 -22.784 -17.973  0.00  0.00    +0.188 C 
ENDROOT
BRANCH   4   7
ATOM      7  C   UNL     1      31.092 -23.358 -15.436  0.00  0.00    +0.054 C 
ATOM      8  C   UNL     1      31.605 -22.738 -14.120  0.00  0.00    +0.008 C 
ATOM      9  C   UNL     1      30.871 -24.865 -15.177  0.00  0.00    +0.008 C 
ATOM     10  C   UNL     1      29.715 -22.750 -15.782  0.00  0.00    +0.008 C 
ENDBRANCH   4   7
BRANCH   5  11
ATOM     11  C   UNL     1      34.292 -24.014 -15.774  0.00  0.00    +0.030 C 
BRANCH  11  12
ATOM     12  CA  UNL     1      35.293 -23.070 -15.069  0.00  0.00    +0.046 C 
BRANCH  12  13
ATOM     13  N   UNL     1      36.526 -22.969 -15.911  0.00  0.00    +0.389 N 
ATOM     14  H1  UNL     1      37.039 -22.124 -15.662  0.00  0.00    -0.088 HD
ATOM     15  H2  UNL     1      36.263 -22.930 -16.896  0.00  0.00    -0.088 HD
ATOM     16  H3  UNL     1      37.116 -23.785 -15.749  0.00  0.00    -0.088 HD
ENDBRANCH  12  13
BRANCH  12  19
ATOM     17  O   UNL     1      36.731 -23.180 -13.199  0.00  0.00    -0.248 OA
ATOM     18  OXT UNL     1      34.716 -24.255 -13.094  0.00  0.00    -0.248 OA
ATOM     19  C   UNL     1      35.608 -23.549 -13.644  0.00  0.00    +0.345 C 
ENDBRANCH  12  19
ENDBRANCH  11  12
ENDBRANCH   5  11
TORSDOF 5
ENDMDL
MODEL 7
REMARK VINA RESULT:      -7.3      2.051      4.410
REMARK  Name = 5287901
REMARK  5 active torsions:
REMARK  status: ('A' for Active; 'I' for Inactive)
REMARK    1  A    between atoms: C_4  and  C_7
REMARK    2  A    between atoms: C_5  and  C_11
REMARK    3  A    between atoms: C_11  and  CA_12
REMARK    4  A    between atoms: CA_12  and  N_13
REMARK    5  A    between atoms: CA_12  and  C_19
REMARK                            x       y       z     vdW  Elec       q    Type
REMARK                         _______ _______ _______ _____ _____    ______ ____
ROOT
ATOM      1  O   UNL     1      32.673 -14.387 -23.864  0.00  0.00    -0.348 OA
ATOM      2  O   UNL     1      34.620 -16.437 -25.950  0.00  0.00    -0.219 OA
ATOM      3  N   UNL     1      33.021 -14.850 -25.127  0.00  0.00    -0.001 NA
ATOM      4  C   UNL     1      33.451 -15.026 -22.997  0.00  0.00    +0.160 C 
ATOM      5  C   UNL     1      34.298 -15.881 -23.547  0.00  0.00    +0.095 C 
ATOM      6  C   UNL     1      33.994 -15.740 -24.913  0.00  0.00    +0.188 C 
ENDROOT
BRANCH   4   7
ATOM      7  C   UNL     1      33.197 -14.634 -21.532  0.00  0.00    +0.054 C 
ATOM      8  C   UNL     1      32.419 -13.302 -21.478  0.00  0.00    +0.008 C 
ATOM      9  C   UNL     1      34.487 -14.444 -20.703  0.00  0.00    +0.008 C 
ATOM     10  C   UNL     1      32.367 -15.735 -20.836  0.00  0.00    +0.008 C 
ENDBRANCH   4   7
BRANCH   5  11
ATOM     11  C   UNL     1      35.298 -16.752 -22.904  0.00  0.00    +0.030 C 
BRANCH  11  12
ATOM     12  CA  UNL     1      34.686 -17.873 -22.033  0.00  0.00    +0.046 C 
BRANCH  12  13
ATOM     13  N   UNL     1      35.358 -17.858 -20.696  0.00  0.00    +0.389 N 
ATOM     14  H1  UNL     1      36.364 -17.967 -20.820  0.00  0.00    -0.088 HD
ATOM     15  H2  UNL     1      35.000 -18.626 -20.127  0.00  0.00    -0.088 HD
ATOM     16  H3  UNL     1      35.166 -16.972 -20.228  0.00  0.00    -0.088 HD
ENDBRANCH  12  13
BRANCH  12  19
ATOM     17  O   UNL     1      34.921 -20.221 -21.927  0.00  0.00    -0.248 OA
ATOM     18  OXT UNL     1      34.770 -19.228 -23.981  0.00  0.00    -0.248 OA
ATOM     19  C   UNL     1      34.802 -19.243 -22.718  0.00  0.00    +0.345 C 
ENDBRANCH  12  19
ENDBRANCH  11  12
ENDBRANCH   5  11
TORSDOF 5
ENDMDL
MODEL 8
REMARK VINA RESULT:      -7.2     11.611     13.732
REMARK  Name = 5287901
REMARK  5 active torsions:
REMARK  status: ('A' for Active; 'I' for Inactive)
REMARK    1  A    between atoms: C_4  and  C_7
REMARK    2  A    between atoms: C_5  and  C_11
REMARK    3  A    between atoms: C_11  and  CA_12
REMARK    4  A    between atoms: CA_12  and  N_13
REMARK    5  A    between atoms: CA_12  and  C_19
REMARK                            x       y       z     vdW  Elec       q    Type
REMARK                         _______ _______ _______ _____ _____    ______ ____
ROOT
ATOM      1  O   UNL     1      34.541 -24.174 -12.545  0.00  0.00    -0.348 OA
ATOM      2  O   UNL     1      37.307 -26.173 -11.708  0.00  0.00    -0.219 OA
ATOM      3  N   UNL     1      35.287 -24.883 -11.611  0.00  0.00    -0.001 NA
ATOM      4  C   UNL     1      35.168 -24.302 -13.709  0.00  0.00    +0.160 C 
ATOM      5  C   UNL     1      36.271 -25.031 -13.660  0.00  0.00    +0.095 C 
ATOM      6  C   UNL     1      36.315 -25.386 -12.300  0.00  0.00    +0.188 C 
ENDROOT
BRANCH   4   7
ATOM      7  C   UNL     1      34.473 -23.570 -14.869  0.00  0.00    +0.054 C 
ATOM      8  C   UNL     1      33.090 -23.063 -14.410  0.00  0.00    +0.008 C 
ATOM      9  C   UNL     1      34.246 -24.451 -16.117  0.00  0.00    +0.008 C 
ATOM     10  C   UNL     1      35.333 -22.366 -15.312  0.00  0.00    +0.008 C 
ENDBRANCH   4   7
BRANCH   5  11
ATOM     11  C   UNL     1      37.210 -25.380 -14.742  0.00  0.00    +0.030 C 
BRANCH  11  12
ATOM     12  CA  UNL     1      38.542 -24.597 -14.694  0.00  0.00    +0.046 C 
BRANCH  12  13
ATOM     13  N   UNL     1      38.600 -23.683 -15.878  0.00  0.00    +0.389 N 
ATOM     14  H1  UNL     1      38.158 -22.794 -15.642  0.00  0.00    -0.088 HD
ATOM     15  H2  UNL     1      38.107 -24.110 -16.662  0.00  0.00    -0.088 HD
ATOM     16  H3  UNL     1      39.573 -23.521 -16.136  0.00  0.00    -0.088 HD
ENDBRANCH  12  13
BRANCH  12  19
ATOM     17  O   UNL     1      40.874 -24.969 -14.655  0.00  0.00    -0.248 OA
ATOM     18  OXT UNL     1      39.476 -26.777 -14.600  0.00  0.00    -0.248 OA
ATOM     19  C   UNL     1      39.749 -25.545 -14.642  0.00  0.00    +0.345 C 
ENDBRANCH  12  19
ENDBRANCH  11  12
ENDBRANCH   5  11
TORSDOF 5
ENDMDL
MODEL 9
REMARK VINA RESULT:      -7.2      2.685      5.106
REMARK  Name = 5287901
REMARK  5 active torsions:
REMARK  status: ('A' for Active; 'I' for Inactive)
REMARK    1  A    between atoms: C_4  and  C_7
REMARK    2  A    between atoms: C_5  and  C_11
REMARK    3  A    between atoms: C_11  and  CA_12
REMARK    4  A    between atoms: CA_12  and  N_13
REMARK    5  A    between atoms: CA_12  and  C_19
REMARK                            x       y       z     vdW  Elec       q    Type
REMARK                         _______ _______ _______ _____ _____    ______ ____
ROOT
ATOM      1  O   UNL     1      33.911 -15.890 -23.839  0.00  0.00    -0.348 OA
ATOM      2  O   UNL     1      35.535 -18.995 -24.099  0.00  0.00    -0.219 OA
ATOM      3  N   UNL     1      34.488 -16.897 -24.603  0.00  0.00    -0.001 NA
ATOM      4  C   UNL     1      34.013 -16.270 -22.570  0.00  0.00    +0.160 C 
ATOM      5  C   UNL     1      34.604 -17.441 -22.394  0.00  0.00    +0.095 C 
ATOM      6  C   UNL     1      34.895 -17.812 -23.719  0.00  0.00    +0.188 C 
ENDROOT
BRANCH   4   7
ATOM      7  C   UNL     1      33.416 -15.263 -21.572  0.00  0.00    +0.054 C 
ATOM      8  C   UNL     1      34.529 -14.725 -20.648  0.00  0.00    +0.008 C 
ATOM      9  C   UNL     1      32.317 -15.860 -20.665  0.00  0.00    +0.008 C 
ATOM     10  C   UNL     1      32.781 -14.085 -22.342  0.00  0.00    +0.008 C 
ENDBRANCH   4   7
BRANCH   5  11
ATOM     11  C   UNL     1      34.885 -18.169 -21.143  0.00  0.00    +0.030 C 
BRANCH  11  12
ATOM     12  CA  UNL     1      34.335 -19.613 -21.120  0.00  0.00    +0.046 C 
BRANCH  12  13
ATOM     13  N   UNL     1      32.895 -19.568 -20.714  0.00  0.00    +0.389 N 
ATOM     14  H1  UNL     1      32.504 -20.509 -20.745  0.00  0.00    -0.088 HD
ATOM     15  H2  UNL     1      32.380 -18.963 -21.354  0.00  0.00    -0.088 HD
ATOM     16  H3  UNL     1      32.821 -19.200 -19.765  0.00  0.00    -0.088 HD
ENDBRANCH  12  13
BRANCH  12  19
ATOM     17  O   UNL     1      36.347 -20.117 -19.989  0.00  0.00    -0.248 OA
ATOM     18  OXT UNL     1      34.574 -21.542 -19.757  0.00  0.00    -0.248 OA
ATOM     19  C   UNL     1      35.165 -20.515 -20.194  0.00  0.00    +0.345 C 
ENDBRANCH  12  19
ENDBRANCH  11  12
ENDBRANCH   5  11
TORSDOF 5
ENDMDL
