MODEL 1
REMARK VINA RESULT:      -9.7      0.000      0.000
REMARK  Name = 6337614
REMARK  1 active torsions:
REMARK  status: ('A' for Active; 'I' for Inactive)
REMARK    1  A    between atoms: N_2  and  C_17
REMARK                            x       y       z     vdW  Elec       q    Type
REMARK                         _______ _______ _______ _____ _____    ______ ____
ROOT
ATOM      1  O   UNL     1      31.067 -10.816 -20.322  0.00  0.00    -0.270 OA
ATOM      2  N   UNL     1      32.052 -10.240 -22.350  0.00  0.00    -0.279 N 
ATOM      3  C   UNL     1      32.649 -12.060 -23.893  0.00  0.00    +0.042 C 
ATOM      4  C   UNL     1      32.950 -10.638 -23.432  0.00  0.00    +0.098 C 
ATOM      5  C   UNL     1      32.683 -12.985 -22.699  0.00  0.00    -0.020 C 
ATOM      6  C   UNL     1      33.612 -12.496 -25.003  0.00  0.00    +0.006 C 
ATOM      7  C   UNL     1      31.720 -11.121 -21.318  0.00  0.00    +0.249 C 
ATOM      8  C   UNL     1      32.202 -12.522 -21.462  0.00  0.00    +0.049 C 
ATOM      9  C   UNL     1      33.394 -13.971 -25.326  0.00  0.00    +0.005 C 
ATOM     10  C   UNL     1      33.129 -14.314 -22.821  0.00  0.00    -0.026 C 
ATOM     11  C   UNL     1      33.709 -14.840 -24.110  0.00  0.00    +0.026 C 
ATOM     12  C   UNL     1      32.166 -13.376 -20.355  0.00  0.00    +0.004 C 
ATOM     13  C   UNL     1      33.100 -15.154 -21.697  0.00  0.00    -0.005 C 
ATOM     14  C   UNL     1      32.616 -14.689 -20.476  0.00  0.00    -0.000 C 
ENDROOT
BRANCH   2  17
ATOM     15  N   UNL     1      32.112  -6.935 -23.842  0.00  0.00    +0.388 N 
ATOM     16  C   UNL     1      32.744  -7.993 -21.551  0.00  0.00    +0.012 C 
ATOM     17  C   UNL     1      31.678  -8.837 -22.278  0.00  0.00    +0.055 C 
ATOM     18  C   UNL     1      31.424  -8.236 -23.676  0.00  0.00    -0.057 C 
ATOM     19  C   UNL     1      33.979  -7.849 -22.457  0.00  0.00    -0.021 C 
ATOM     20  C   UNL     1      32.154  -6.585 -21.366  0.00  0.00    -0.021 C 
ATOM     21  C   UNL     1      33.571  -7.167 -23.774  0.00  0.00    -0.077 C 
ATOM     22  C   UNL     1      31.721  -6.034 -22.736  0.00  0.00    -0.077 C 
ATOM     23  H   UNL     1      31.859  -6.515 -24.736  0.00  0.00    -0.080 HD
ENDBRANCH   2  17
TORSDOF 1
ENDMDL
MODEL 2
REMARK VINA RESULT:      -9.6     13.450     16.507
REMARK  Name = 6337614
REMARK  1 active torsions:
REMARK  status: ('A' for Active; 'I' for Inactive)
REMARK    1  A    between atoms: N_2  and  C_17
REMARK                            x       y       z     vdW  Elec       q    Type
REMARK                         _______ _______ _______ _____ _____    ______ ____
ROOT
ATOM      1  O   UNL     1      34.568 -23.974 -12.066  0.00  0.00    -0.270 OA
ATOM      2  N   UNL     1      35.477 -24.034 -14.207  0.00  0.00    -0.279 N 
ATOM      3  C   UNL     1      34.124 -23.134 -16.053  0.00  0.00    +0.042 C 
ATOM      4  C   UNL     1      35.222 -24.110 -15.644  0.00  0.00    +0.098 C 
ATOM      5  C   UNL     1      32.901 -23.379 -15.202  0.00  0.00    -0.020 C 
ATOM      6  C   UNL     1      33.826 -23.235 -17.554  0.00  0.00    +0.006 C 
ATOM      7  C   UNL     1      34.432 -23.926 -13.286  0.00  0.00    +0.249 C 
ATOM      8  C   UNL     1      33.068 -23.736 -13.852  0.00  0.00    +0.049 C 
ATOM      9  C   UNL     1      32.618 -22.370 -17.899  0.00  0.00    +0.005 C 
ATOM     10  C   UNL     1      31.605 -23.197 -15.719  0.00  0.00    -0.026 C 
ATOM     11  C   UNL     1      31.371 -22.873 -17.174  0.00  0.00    +0.026 C 
ATOM     12  C   UNL     1      31.953 -23.911 -13.026  0.00  0.00    +0.004 C 
ATOM     13  C   UNL     1      30.497 -23.390 -14.881  0.00  0.00    -0.005 C 
ATOM     14  C   UNL     1      30.672 -23.738 -13.542  0.00  0.00    -0.000 C 
ENDROOT
BRANCH   2  17
ATOM     15  N   UNL     1      38.778 -25.365 -14.905  0.00  0.00    +0.388 N 
ATOM     16  C   UNL     1      36.976 -25.640 -13.049  0.00  0.00    +0.012 C 
ATOM     17  C   UNL     1      36.839 -24.279 -13.761  0.00  0.00    +0.055 C 
ATOM     18  C   UNL     1      37.848 -24.211 -14.924  0.00  0.00    -0.057 C 
ATOM     19  C   UNL     1      36.878 -26.767 -14.092  0.00  0.00    -0.021 C 
ATOM     20  C   UNL     1      38.394 -25.695 -12.456  0.00  0.00    -0.021 C 
ATOM     21  C   UNL     1      37.996 -26.598 -15.134  0.00  0.00    -0.077 C 
ATOM     22  C   UNL     1      39.421 -25.448 -13.575  0.00  0.00    -0.077 C 
ATOM     23  H   UNL     1      39.490 -25.254 -15.627  0.00  0.00    -0.080 HD
ENDBRANCH   2  17
TORSDOF 1
ENDMDL
MODEL 3
REMARK VINA RESULT:      -9.6     12.282     14.562
REMARK  Name = 6337614
REMARK  1 active torsions:
REMARK  status: ('A' for Active; 'I' for Inactive)
REMARK    1  A    between atoms: N_2  and  C_17
REMARK                            x       y       z     vdW  Elec       q    Type
REMARK                         _______ _______ _______ _____ _____    ______ ____
ROOT
ATOM      1  O   UNL     1      34.284 -24.585 -14.502  0.00  0.00    -0.270 OA
ATOM      2  N   UNL     1      32.806 -23.765 -16.101  0.00  0.00    -0.279 N 
ATOM      3  C   UNL     1      33.756 -22.794 -18.152  0.00  0.00    +0.042 C 
ATOM      4  C   UNL     1      32.579 -22.809 -17.183  0.00  0.00    +0.098 C 
ATOM      5  C   UNL     1      35.030 -22.551 -17.378  0.00  0.00    -0.020 C 
ATOM      6  C   UNL     1      33.540 -21.766 -19.268  0.00  0.00    +0.006 C 
ATOM      7  C   UNL     1      34.055 -23.889 -15.489  0.00  0.00    +0.249 C 
ATOM      8  C   UNL     1      35.171 -23.113 -16.097  0.00  0.00    +0.049 C 
ATOM      9  C   UNL     1      34.800 -21.659 -20.121  0.00  0.00    +0.005 C 
ATOM     10  C   UNL     1      36.097 -21.825 -17.941  0.00  0.00    -0.026 C 
ATOM     11  C   UNL     1      35.974 -21.152 -19.286  0.00  0.00    +0.026 C 
ATOM     12  C   UNL     1      36.363 -22.953 -15.383  0.00  0.00    +0.004 C 
ATOM     13  C   UNL     1      37.281 -21.661 -17.206  0.00  0.00    -0.005 C 
ATOM     14  C   UNL     1      37.414 -22.227 -15.939  0.00  0.00    -0.000 C 
ENDROOT
BRANCH   2  17
ATOM     15  N   UNL     1      29.201 -23.914 -15.733  0.00  0.00    +0.388 N 
ATOM     16  C   UNL     1      31.269 -23.898 -14.155  0.00  0.00    +0.012 C 
ATOM     17  C   UNL     1      31.639 -24.436 -15.551  0.00  0.00    +0.055 C 
ATOM     18  C   UNL     1      30.415 -24.317 -16.481  0.00  0.00    -0.057 C 
ATOM     19  C   UNL     1      30.668 -22.489 -14.300  0.00  0.00    -0.021 C 
ATOM     20  C   UNL     1      30.159 -24.807 -13.603  0.00  0.00    -0.021 C 
ATOM     21  C   UNL     1      29.417 -22.555 -15.191  0.00  0.00    -0.077 C 
ATOM     22  C   UNL     1      28.993 -24.849 -14.606  0.00  0.00    -0.077 C 
ATOM     23  H   UNL     1      28.388 -23.929 -16.349  0.00  0.00    -0.080 HD
ENDBRANCH   2  17
TORSDOF 1
ENDMDL
MODEL 4
REMARK VINA RESULT:      -9.5      8.335     11.699
REMARK  Name = 6337614
REMARK  1 active torsions:
REMARK  status: ('A' for Active; 'I' for Inactive)
REMARK    1  A    between atoms: N_2  and  C_17
REMARK                            x       y       z     vdW  Elec       q    Type
REMARK                         _______ _______ _______ _____ _____    ______ ____
ROOT
ATOM      1  O   UNL     1      33.156 -21.932 -20.310  0.00  0.00    -0.270 OA
ATOM      2  N   UNL     1      35.272 -21.104 -19.805  0.00  0.00    -0.279 N 
ATOM      3  C   UNL     1      36.439 -22.049 -17.857  0.00  0.00    +0.042 C 
ATOM      4  C   UNL     1      36.267 -20.838 -18.770  0.00  0.00    +0.098 C 
ATOM      5  C   UNL     1      35.089 -22.456 -17.317  0.00  0.00    -0.020 C 
ATOM      6  C   UNL     1      37.455 -21.763 -16.746  0.00  0.00    +0.006 C 
ATOM      7  C   UNL     1      34.083 -21.779 -19.518  0.00  0.00    +0.249 C 
ATOM      8  C   UNL     1      33.958 -22.345 -18.146  0.00  0.00    +0.049 C 
ATOM      9  C   UNL     1      37.482 -22.926 -15.760  0.00  0.00    +0.005 C 
ATOM     10  C   UNL     1      34.955 -22.999 -16.026  0.00  0.00    -0.026 C 
ATOM     11  C   UNL     1      36.125 -23.084 -15.077  0.00  0.00    +0.026 C 
ATOM     12  C   UNL     1      32.706 -22.770 -17.692  0.00  0.00    +0.004 C 
ATOM     13  C   UNL     1      33.689 -23.408 -15.580  0.00  0.00    -0.005 C 
ATOM     14  C   UNL     1      32.575 -23.300 -16.410  0.00  0.00    -0.000 C 
ENDROOT
BRANCH   2  17
ATOM     15  N   UNL     1      36.212 -18.154 -21.694  0.00  0.00    +0.388 N 
ATOM     16  C   UNL     1      34.184 -19.781 -21.605  0.00  0.00    +0.012 C 
ATOM     17  C   UNL     1      35.470 -20.465 -21.096  0.00  0.00    +0.055 C 
ATOM     18  C   UNL     1      36.613 -19.431 -21.059  0.00  0.00    -0.057 C 
ATOM     19  C   UNL     1      33.921 -18.517 -20.769  0.00  0.00    -0.021 C 
ATOM     20  C   UNL     1      34.460 -19.320 -23.046  0.00  0.00    -0.021 C 
ATOM     21  C   UNL     1      35.117 -17.560 -20.898  0.00  0.00    -0.077 C 
ATOM     22  C   UNL     1      35.713 -18.427 -23.060  0.00  0.00    -0.077 C 
ATOM     23  H   UNL     1      37.008 -17.518 -21.738  0.00  0.00    -0.080 HD
ENDBRANCH   2  17
TORSDOF 1
ENDMDL
MODEL 5
REMARK VINA RESULT:      -8.7     12.478     15.738
REMARK  Name = 6337614
REMARK  1 active torsions:
REMARK  status: ('A' for Active; 'I' for Inactive)
REMARK    1  A    between atoms: N_2  and  C_17
REMARK                            x       y       z     vdW  Elec       q    Type
REMARK                         _______ _______ _______ _____ _____    ______ ____
ROOT
ATOM      1  O   UNL     1      37.511 -22.778 -16.808  0.00  0.00    -0.270 OA
ATOM      2  N   UNL     1      36.086 -23.065 -14.990  0.00  0.00    -0.279 N 
ATOM      3  C   UNL     1      33.713 -23.515 -15.453  0.00  0.00    +0.042 C 
ATOM      4  C   UNL     1      34.727 -22.942 -14.469  0.00  0.00    +0.098 C 
ATOM      5  C   UNL     1      33.911 -22.865 -16.802  0.00  0.00    -0.020 C 
ATOM      6  C   UNL     1      32.282 -23.355 -14.927  0.00  0.00    +0.006 C 
ATOM      7  C   UNL     1      36.378 -22.807 -16.332  0.00  0.00    +0.249 C 
ATOM      8  C   UNL     1      35.215 -22.553 -17.226  0.00  0.00    +0.049 C 
ATOM      9  C   UNL     1      31.287 -23.785 -16.000  0.00  0.00    +0.005 C 
ATOM     10  C   UNL     1      32.823 -22.625 -17.662  0.00  0.00    -0.026 C 
ATOM     11  C   UNL     1      31.401 -22.887 -17.231  0.00  0.00    +0.026 C 
ATOM     12  C   UNL     1      35.433 -22.006 -18.494  0.00  0.00    +0.004 C 
ATOM     13  C   UNL     1      33.057 -22.062 -18.925  0.00  0.00    -0.005 C 
ATOM     14  C   UNL     1      34.353 -21.762 -19.340  0.00  0.00    -0.000 C 
ENDROOT
BRANCH   2  17
ATOM     15  N   UNL     1      38.212 -25.361 -13.155  0.00  0.00    +0.388 N 
ATOM     16  C   UNL     1      36.613 -23.389 -12.585  0.00  0.00    +0.012 C 
ATOM     17  C   UNL     1      37.153 -23.269 -14.024  0.00  0.00    +0.055 C 
ATOM     18  C   UNL     1      37.999 -24.515 -14.353  0.00  0.00    -0.057 C 
ATOM     19  C   UNL     1      35.904 -24.746 -12.423  0.00  0.00    -0.021 C 
ATOM     20  C   UNL     1      37.831 -23.402 -11.647  0.00  0.00    -0.021 C 
ATOM     21  C   UNL     1      36.900 -25.881 -12.712  0.00  0.00    -0.077 C 
ATOM     22  C   UNL     1      38.785 -24.532 -12.072  0.00  0.00    -0.077 C 
ATOM     23  H   UNL     1      38.846 -26.129 -13.375  0.00  0.00    -0.080 HD
ENDBRANCH   2  17
TORSDOF 1
ENDMDL
MODEL 6
REMARK VINA RESULT:      -8.7     13.472     16.436
REMARK  Name = 6337614
REMARK  1 active torsions:
REMARK  status: ('A' for Active; 'I' for Inactive)
REMARK    1  A    between atoms: N_2  and  C_17
REMARK                            x       y       z     vdW  Elec       q    Type
REMARK                         _______ _______ _______ _____ _____    ______ ____
ROOT
ATOM      1  O   UNL     1      36.011 -24.175 -16.132  0.00  0.00    -0.270 OA
ATOM      2  N   UNL     1      34.902 -24.467 -14.107  0.00  0.00    -0.279 N 
ATOM      3  C   UNL     1      32.443 -24.516 -14.142  0.00  0.00    +0.042 C 
ATOM      4  C   UNL     1      33.695 -24.213 -13.325  0.00  0.00    +0.098 C 
ATOM      5  C   UNL     1      32.503 -23.747 -15.441  0.00  0.00    -0.020 C 
ATOM      6  C   UNL     1      31.173 -24.216 -13.339  0.00  0.00    +0.006 C 
ATOM      7  C   UNL     1      34.991 -24.097 -15.451  0.00  0.00    +0.249 C 
ATOM      8  C   UNL     1      33.745 -23.576 -16.078  0.00  0.00    +0.049 C 
ATOM      9  C   UNL     1      29.948 -24.370 -14.234  0.00  0.00    +0.005 C 
ATOM     10  C   UNL     1      31.334 -23.254 -16.050  0.00  0.00    -0.026 C 
ATOM     11  C   UNL     1      29.987 -23.359 -15.379  0.00  0.00    +0.026 C 
ATOM     12  C   UNL     1      33.821 -22.920 -17.311  0.00  0.00    +0.004 C 
ATOM     13  C   UNL     1      31.429 -22.586 -17.280  0.00  0.00    -0.005 C 
ATOM     14  C   UNL     1      32.663 -22.426 -17.907  0.00  0.00    -0.000 C 
ENDROOT
BRANCH   2  17
ATOM     15  N   UNL     1      37.049 -24.231 -11.193  0.00  0.00    +0.388 N 
ATOM     16  C   UNL     1      37.343 -24.147 -13.776  0.00  0.00    +0.012 C 
ATOM     17  C   UNL     1      36.075 -24.934 -13.386  0.00  0.00    +0.055 C 
ATOM     18  C   UNL     1      35.881 -24.856 -11.858  0.00  0.00    -0.057 C 
ATOM     19  C   UNL     1      37.263 -22.732 -13.179  0.00  0.00    -0.021 C 
ATOM     20  C   UNL     1      38.534 -24.853 -13.106  0.00  0.00    -0.021 C 
ATOM     21  C   UNL     1      37.149 -22.828 -11.649  0.00  0.00    -0.077 C 
ATOM     22  C   UNL     1      38.278 -24.950 -11.592  0.00  0.00    -0.077 C 
ATOM     23  H   UNL     1      36.938 -24.270 -10.180  0.00  0.00    -0.080 HD
ENDBRANCH   2  17
TORSDOF 1
ENDMDL
MODEL 7
REMARK VINA RESULT:      -8.7     13.409     16.640
REMARK  Name = 6337614
REMARK  1 active torsions:
REMARK  status: ('A' for Active; 'I' for Inactive)
REMARK    1  A    between atoms: N_2  and  C_17
REMARK                            x       y       z     vdW  Elec       q    Type
REMARK                         _______ _______ _______ _____ _____    ______ ____
ROOT
ATOM      1  O   UNL     1      36.205 -23.428 -16.518  0.00  0.00    -0.270 OA
ATOM      2  N   UNL     1      35.450 -23.996 -14.391  0.00  0.00    -0.279 N 
ATOM      3  C   UNL     1      33.073 -24.575 -14.134  0.00  0.00    +0.042 C 
ATOM      4  C   UNL     1      34.326 -24.026 -13.458  0.00  0.00    +0.098 C 
ATOM      5  C   UNL     1      32.803 -23.785 -15.392  0.00  0.00    -0.020 C 
ATOM      6  C   UNL     1      31.881 -24.575 -13.170  0.00  0.00    +0.006 C 
ATOM      7  C   UNL     1      35.286 -23.587 -15.717  0.00  0.00    +0.249 C 
ATOM      8  C   UNL     1      33.888 -23.336 -16.165  0.00  0.00    +0.049 C 
ATOM      9  C   UNL     1      30.613 -24.972 -13.919  0.00  0.00    +0.005 C 
ATOM     10  C   UNL     1      31.488 -23.545 -15.832  0.00  0.00    -0.026 C 
ATOM     11  C   UNL     1      30.291 -23.953 -15.011  0.00  0.00    +0.026 C 
ATOM     12  C   UNL     1      33.666 -22.654 -17.365  0.00  0.00    +0.004 C 
ATOM     13  C   UNL     1      31.281 -22.847 -17.031  0.00  0.00    -0.005 C 
ATOM     14  C   UNL     1      32.363 -22.411 -17.794  0.00  0.00    -0.000 C 
ENDROOT
BRANCH   2  17
ATOM     15  N   UNL     1      38.809 -25.298 -14.809  0.00  0.00    +0.388 N 
ATOM     16  C   UNL     1      36.878 -25.552 -13.085  0.00  0.00    +0.012 C 
ATOM     17  C   UNL     1      36.777 -24.211 -13.838  0.00  0.00    +0.055 C 
ATOM     18  C   UNL     1      37.869 -24.158 -14.925  0.00  0.00    -0.057 C 
ATOM     19  C   UNL     1      36.871 -26.706 -14.103  0.00  0.00    -0.021 C 
ATOM     20  C   UNL     1      38.248 -25.575 -12.387  0.00  0.00    -0.021 C 
ATOM     21  C   UNL     1      38.060 -26.547 -15.064  0.00  0.00    -0.077 C 
ATOM     22  C   UNL     1      39.352 -25.340 -13.433  0.00  0.00    -0.077 C 
ATOM     23  H   UNL     1      39.571 -25.194 -15.478  0.00  0.00    -0.080 HD
ENDBRANCH   2  17
TORSDOF 1
ENDMDL
MODEL 8
REMARK VINA RESULT:      -8.6     12.699     14.813
REMARK  Name = 6337614
REMARK  1 active torsions:
REMARK  status: ('A' for Active; 'I' for Inactive)
REMARK    1  A    between atoms: N_2  and  C_17
REMARK                            x       y       z     vdW  Elec       q    Type
REMARK                         _______ _______ _______ _____ _____    ______ ____
ROOT
ATOM      1  O   UNL     1      32.298 -22.348 -18.357  0.00  0.00    -0.270 OA
ATOM      2  N   UNL     1      32.555 -23.606 -16.416  0.00  0.00    -0.279 N 
ATOM      3  C   UNL     1      34.609 -23.284 -15.103  0.00  0.00    +0.042 C 
ATOM      4  C   UNL     1      33.481 -24.239 -15.481  0.00  0.00    +0.098 C 
ATOM      5  C   UNL     1      35.266 -22.772 -16.362  0.00  0.00    -0.020 C 
ATOM      6  C   UNL     1      35.605 -23.956 -14.150  0.00  0.00    +0.006 C 
ATOM      7  C   UNL     1      33.012 -22.812 -17.470  0.00  0.00    +0.249 C 
ATOM      8  C   UNL     1      34.472 -22.521 -17.495  0.00  0.00    +0.049 C 
ATOM      9  C   UNL     1      36.801 -23.037 -13.923  0.00  0.00    +0.005 C 
ATOM     10  C   UNL     1      36.644 -22.486 -16.400  0.00  0.00    -0.026 C 
ATOM     11  C   UNL     1      37.549 -22.793 -15.233  0.00  0.00    +0.026 C 
ATOM     12  C   UNL     1      35.045 -21.991 -18.655  0.00  0.00    +0.004 C 
ATOM     13  C   UNL     1      37.206 -21.968 -17.576  0.00  0.00    -0.005 C 
ATOM     14  C   UNL     1      36.410 -21.716 -18.692  0.00  0.00    -0.000 C 
ENDROOT
BRANCH   2  17
ATOM     15  N   UNL     1      29.127 -22.711 -15.637  0.00  0.00    +0.388 N 
ATOM     16  C   UNL     1      30.802 -24.579 -14.949  0.00  0.00    +0.012 C 
ATOM     17  C   UNL     1      31.156 -23.996 -16.332  0.00  0.00    +0.055 C 
ATOM     18  C   UNL     1      30.210 -22.818 -16.643  0.00  0.00    -0.057 C 
ATOM     19  C   UNL     1      30.779 -23.442 -13.913  0.00  0.00    -0.021 C 
ATOM     20  C   UNL     1      29.369 -25.129 -15.047  0.00  0.00    -0.021 C 
ATOM     21  C   UNL     1      29.736 -22.391 -14.328  0.00  0.00    -0.077 C 
ATOM     22  C   UNL     1      28.430 -24.012 -15.534  0.00  0.00    -0.077 C 
ATOM     23  H   UNL     1      28.465 -21.985 -15.910  0.00  0.00    -0.080 HD
ENDBRANCH   2  17
TORSDOF 1
ENDMDL
MODEL 9
REMARK VINA RESULT:      -8.5      1.653      3.156
REMARK  Name = 6337614
REMARK  1 active torsions:
REMARK  status: ('A' for Active; 'I' for Inactive)
REMARK    1  A    between atoms: N_2  and  C_17
REMARK                            x       y       z     vdW  Elec       q    Type
REMARK                         _______ _______ _______ _____ _____    ______ ____
ROOT
ATOM      1  O   UNL     1      34.068 -11.205 -25.471  0.00  0.00    -0.270 OA
ATOM      2  N   UNL     1      32.831 -10.830 -23.536  0.00  0.00    -0.279 N 
ATOM      3  C   UNL     1      32.841 -12.582 -21.810  0.00  0.00    +0.042 C 
ATOM      4  C   UNL     1      32.077 -11.418 -22.431  0.00  0.00    +0.098 C 
ATOM      5  C   UNL     1      33.207 -13.569 -22.894  0.00  0.00    -0.020 C 
ATOM      6  C   UNL     1      32.038 -13.227 -20.675  0.00  0.00    +0.006 C 
ATOM      7  C   UNL     1      33.514 -11.627 -24.458  0.00  0.00    +0.249 C 
ATOM      8  C   UNL     1      33.559 -13.086 -24.167  0.00  0.00    +0.049 C 
ATOM      9  C   UNL     1      32.752 -14.483 -20.186  0.00  0.00    +0.005 C 
ATOM     10  C   UNL     1      33.261 -14.950 -22.633  0.00  0.00    -0.026 C 
ATOM     11  C   UNL     1      32.837 -15.522 -21.303  0.00  0.00    +0.026 C 
ATOM     12  C   UNL     1      33.959 -13.973 -25.171  0.00  0.00    +0.004 C 
ATOM     13  C   UNL     1      33.651 -15.828 -23.655  0.00  0.00    -0.005 C 
ATOM     14  C   UNL     1      34.003 -15.341 -24.913  0.00  0.00    -0.000 C 
ENDROOT
BRANCH   2  17
ATOM     15  N   UNL     1      33.675  -7.436 -22.573  0.00  0.00    +0.388 N 
ATOM     16  C   UNL     1      31.502  -8.815 -22.954  0.00  0.00    +0.012 C 
ATOM     17  C   UNL     1      32.680  -9.401 -23.757  0.00  0.00    +0.055 C 
ATOM     18  C   UNL     1      33.966  -8.625 -23.409  0.00  0.00    -0.057 C 
ATOM     19  C   UNL     1      31.878  -8.770 -21.463  0.00  0.00    -0.021 C 
ATOM     20  C   UNL     1      31.322  -7.359 -23.418  0.00  0.00    -0.021 C 
ATOM     21  C   UNL     1      33.132  -7.899 -21.278  0.00  0.00    -0.077 C 
ATOM     22  C   UNL     1      32.653  -6.606 -23.249  0.00  0.00    -0.077 C 
ATOM     23  H   UNL     1      34.524  -6.891 -22.430  0.00  0.00    -0.080 HD
ENDBRANCH   2  17
TORSDOF 1
ENDMDL
