MODEL 1
REMARK VINA RESULT:      -9.9      0.000      0.000
REMARK  Name = 6919051
REMARK  3 active torsions:
REMARK  status: ('A' for Active; 'I' for Inactive)
REMARK    1  A    between atoms: N_3  and  C_24
REMARK    2  A    between atoms: C_4  and  N_13
REMARK    3  A    between atoms: C_12  and  C_23
REMARK                            x       y       z     vdW  Elec       q    Type
REMARK                         _______ _______ _______ _____ _____    ______ ____
ROOT
ATOM      1  F   UNL     1      32.356 -15.664 -21.221  0.00  0.00    -0.203 F 
ATOM      2  O   UNL     1      30.968 -10.831 -21.133  0.00  0.00    -0.286 OA
ATOM      3  N   UNL     1      33.569 -11.134 -24.259  0.00  0.00    -0.286 N 
ATOM      4  C   UNL     1      33.543 -14.684 -23.026  0.00  0.00    +0.077 C 
ATOM      5  C   UNL     1      33.853 -13.556 -23.793  0.00  0.00    +0.032 C 
ATOM      6  C   UNL     1      33.284 -12.300 -23.511  0.00  0.00    +0.056 C 
ATOM      7  C   UNL     1      32.656 -14.586 -21.960  0.00  0.00    +0.153 C 
ATOM      8  C   UNL     1      32.386 -12.228 -22.421  0.00  0.00    +0.055 C 
ATOM      9  C   UNL     1      32.075 -13.359 -21.653  0.00  0.00    +0.035 C 
ATOM     10  C   UNL     1      31.749 -10.931 -22.070  0.00  0.00    +0.204 C 
ATOM     11  C   UNL     1      32.964  -9.940 -23.911  0.00  0.00    +0.075 C 
ATOM     12  C   UNL     1      32.104  -9.760 -22.906  0.00  0.00    +0.133 C 
ENDROOT
BRANCH   4  13
ATOM     13  N   UNL     1      34.129 -15.916 -23.337  0.00  0.00    -0.310 N 
ATOM     14  N   UNL     1      35.455 -18.298 -24.058  0.00  0.00    +0.386 N 
ATOM     15  C   UNL     1      35.108 -16.506 -22.414  0.00  0.00    +0.068 C 
ATOM     16  C   UNL     1      34.296 -16.252 -24.759  0.00  0.00    +0.068 C 
ATOM     17  C   UNL     1      35.198 -18.012 -22.618  0.00  0.00    -0.060 C 
ATOM     18  C   UNL     1      34.387 -17.759 -24.948  0.00  0.00    -0.060 C 
ATOM     19  H   UNL     1      35.509 -19.309 -24.186  0.00  0.00    -0.084 HD
ATOM     20  H   UNL     1      36.331 -17.842 -24.313  0.00  0.00    -0.084 HD
ENDBRANCH   4  13
BRANCH  12  23
ATOM     21  O   UNL     1      30.704  -7.983 -23.531  0.00  0.00    -0.240 OA
ATOM     22  O   UNL     1      31.960  -7.795 -21.629  0.00  0.00    -0.240 OA
ATOM     23  C   UNL     1      31.535  -8.381 -22.666  0.00  0.00    +0.392 C 
ENDBRANCH  12  23
BRANCH   3  24
ATOM     24  C   UNL     1      34.501 -11.226 -25.381  0.00  0.00    +0.096 C 
ATOM     25  C   UNL     1      35.458 -10.054 -25.405  0.00  0.00    +0.024 C 
ENDBRANCH   3  24
TORSDOF 3
ENDMDL
MODEL 2
REMARK VINA RESULT:      -8.9      2.420      3.991
REMARK  Name = 6919051
REMARK  3 active torsions:
REMARK  status: ('A' for Active; 'I' for Inactive)
REMARK    1  A    between atoms: N_3  and  C_24
REMARK    2  A    between atoms: C_4  and  N_13
REMARK    3  A    between atoms: C_12  and  C_23
REMARK                            x       y       z     vdW  Elec       q    Type
REMARK                         _______ _______ _______ _____ _____    ______ ____
ROOT
ATOM      1  F   UNL     1      34.894 -11.543 -25.800  0.00  0.00    -0.203 F 
ATOM      2  O   UNL     1      33.613  -7.242 -23.532  0.00  0.00    -0.286 OA
ATOM      3  N   UNL     1      31.810 -10.176 -21.346  0.00  0.00    -0.286 N 
ATOM      4  C   UNL     1      33.535 -12.227 -23.981  0.00  0.00    +0.077 C 
ATOM      5  C   UNL     1      32.761 -11.895 -22.864  0.00  0.00    +0.032 C 
ATOM      6  C   UNL     1      32.584 -10.556 -22.467  0.00  0.00    +0.056 C 
ATOM      7  C   UNL     1      34.151 -11.230 -24.728  0.00  0.00    +0.153 C 
ATOM      8  C   UNL     1      33.222  -9.563 -23.245  0.00  0.00    +0.055 C 
ATOM      9  C   UNL     1      33.998  -9.896 -24.364  0.00  0.00    +0.035 C 
ATOM     10  C   UNL     1      33.076  -8.128 -22.880  0.00  0.00    +0.204 C 
ATOM     11  C   UNL     1      31.691  -8.834 -21.028  0.00  0.00    +0.075 C 
ATOM     12  C   UNL     1      32.248  -7.818 -21.691  0.00  0.00    +0.133 C 
ENDROOT
BRANCH   4  13
ATOM     13  N   UNL     1      33.687 -13.569 -24.344  0.00  0.00    -0.310 N 
ATOM     14  N   UNL     1      33.861 -16.322 -24.934  0.00  0.00    +0.386 N 
ATOM     15  C   UNL     1      32.822 -14.142 -25.384  0.00  0.00    +0.068 C 
ATOM     16  C   UNL     1      34.165 -14.504 -23.314  0.00  0.00    +0.068 C 
ATOM     17  C   UNL     1      33.473 -15.367 -26.011  0.00  0.00    -0.060 C 
ATOM     18  C   UNL     1      34.812 -15.724 -23.954  0.00  0.00    -0.060 C 
ATOM     19  H   UNL     1      34.300 -17.137 -25.362  0.00  0.00    -0.084 HD
ATOM     20  H   UNL     1      33.013 -16.578 -24.427  0.00  0.00    -0.084 HD
ENDBRANCH   4  13
BRANCH  12  23
ATOM     21  O   UNL     1      32.585  -6.110 -20.117  0.00  0.00    -0.240 OA
ATOM     22  O   UNL     1      31.270  -5.699 -21.943  0.00  0.00    -0.240 OA
ATOM     23  C   UNL     1      32.012  -6.407 -21.204  0.00  0.00    +0.392 C 
ENDBRANCH  12  23
BRANCH   3  24
ATOM     24  C   UNL     1      31.157 -11.215 -20.553  0.00  0.00    +0.096 C 
ATOM     25  C   UNL     1      31.329 -10.972 -19.069  0.00  0.00    +0.024 C 
ENDBRANCH   3  24
TORSDOF 3
ENDMDL
MODEL 3
REMARK VINA RESULT:      -8.9      3.259      7.014
REMARK  Name = 6919051
REMARK  3 active torsions:
REMARK  status: ('A' for Active; 'I' for Inactive)
REMARK    1  A    between atoms: N_3  and  C_24
REMARK    2  A    between atoms: C_4  and  N_13
REMARK    3  A    between atoms: C_12  and  C_23
REMARK                            x       y       z     vdW  Elec       q    Type
REMARK                         _______ _______ _______ _____ _____    ______ ____
ROOT
ATOM      1  F   UNL     1      30.934 -10.333 -20.217  0.00  0.00    -0.203 F 
ATOM      2  O   UNL     1      32.290 -14.748 -22.207  0.00  0.00    -0.286 OA
ATOM      3  N   UNL     1      33.749 -11.932 -24.771  0.00  0.00    -0.286 N 
ATOM      4  C   UNL     1      32.111  -9.745 -22.191  0.00  0.00    +0.077 C 
ATOM      5  C   UNL     1      32.817 -10.135 -23.333  0.00  0.00    +0.032 C 
ATOM      6  C   UNL     1      33.042 -11.493 -23.627  0.00  0.00    +0.056 C 
ATOM      7  C   UNL     1      31.612 -10.702 -21.313  0.00  0.00    +0.153 C 
ATOM      8  C   UNL     1      32.523 -12.444 -22.719  0.00  0.00    +0.055 C 
ATOM      9  C   UNL     1      31.816 -12.054 -21.574  0.00  0.00    +0.035 C 
ATOM     10  C   UNL     1      32.726 -13.897 -22.971  0.00  0.00    +0.204 C 
ATOM     11  C   UNL     1      33.923 -13.288 -24.982  0.00  0.00    +0.075 C 
ATOM     12  C   UNL     1      33.478 -14.268 -24.192  0.00  0.00    +0.133 C 
ENDROOT
BRANCH   4  13
ATOM     13  N   UNL     1      31.908  -8.385 -21.932  0.00  0.00    -0.310 N 
ATOM     14  N   UNL     1      31.689  -5.612 -21.467  0.00  0.00    +0.386 N 
ATOM     15  C   UNL     1      31.415  -7.509 -23.003  0.00  0.00    +0.068 C 
ATOM     16  C   UNL     1      32.764  -7.749 -20.919  0.00  0.00    +0.068 C 
ATOM     17  C   UNL     1      30.750  -6.270 -22.420  0.00  0.00    -0.060 C 
ATOM     18  C   UNL     1      32.089  -6.510 -20.347  0.00  0.00    -0.060 C 
ATOM     19  H   UNL     1      31.234  -4.786 -21.078  0.00  0.00    -0.084 HD
ATOM     20  H   UNL     1      32.533  -5.365 -21.984  0.00  0.00    -0.084 HD
ENDBRANCH   4  13
BRANCH  12  23
ATOM     21  O   UNL     1      34.289 -16.408 -23.670  0.00  0.00    -0.240 OA
ATOM     22  O   UNL     1      33.429 -16.020 -25.754  0.00  0.00    -0.240 OA
ATOM     23  C   UNL     1      33.759 -15.703 -24.575  0.00  0.00    +0.392 C 
ENDBRANCH  12  23
BRANCH   3  24
ATOM     24  C   UNL     1      34.277 -10.935 -25.700  0.00  0.00    +0.096 C 
ATOM     25  C   UNL     1      35.582 -10.349 -25.203  0.00  0.00    +0.024 C 
ENDBRANCH   3  24
TORSDOF 3
ENDMDL
MODEL 4
REMARK VINA RESULT:      -8.8      1.839      2.417
REMARK  Name = 6919051
REMARK  3 active torsions:
REMARK  status: ('A' for Active; 'I' for Inactive)
REMARK    1  A    between atoms: N_3  and  C_24
REMARK    2  A    between atoms: C_4  and  N_13
REMARK    3  A    between atoms: C_12  and  C_23
REMARK                            x       y       z     vdW  Elec       q    Type
REMARK                         _______ _______ _______ _____ _____    ______ ____
ROOT
ATOM      1  F   UNL     1      31.768 -14.215 -21.751  0.00  0.00    -0.203 F 
ATOM      2  O   UNL     1      31.273  -9.618 -19.774  0.00  0.00    -0.286 OA
ATOM      3  N   UNL     1      33.497  -9.089 -23.152  0.00  0.00    -0.286 N 
ATOM      4  C   UNL     1      32.948 -12.806 -23.251  0.00  0.00    +0.077 C 
ATOM      5  C   UNL     1      33.386 -11.526 -23.610  0.00  0.00    +0.032 C 
ATOM      6  C   UNL     1      33.075 -10.400 -22.826  0.00  0.00    +0.056 C 
ATOM      7  C   UNL     1      32.189 -12.990 -22.101  0.00  0.00    +0.153 C 
ATOM      8  C   UNL     1      32.303 -10.616 -21.662  0.00  0.00    +0.055 C 
ATOM      9  C   UNL     1      31.864 -11.898 -21.302  0.00  0.00    +0.035 C 
ATOM     10  C   UNL     1      31.939  -9.468 -20.789  0.00  0.00    +0.204 C 
ATOM     11  C   UNL     1      33.146  -8.039 -22.323  0.00  0.00    +0.075 C 
ATOM     12  C   UNL     1      32.422  -8.130 -21.204  0.00  0.00    +0.133 C 
ENDROOT
BRANCH   4  13
ATOM     13  N   UNL     1      33.276 -13.902 -24.056  0.00  0.00    -0.310 N 
ATOM     14  N   UNL     1      34.076 -15.996 -25.768  0.00  0.00    +0.386 N 
ATOM     15  C   UNL     1      34.321 -14.837 -23.616  0.00  0.00    +0.068 C 
ATOM     16  C   UNL     1      33.111 -13.754 -25.509  0.00  0.00    +0.068 C 
ATOM     17  C   UNL     1      34.150 -16.190 -24.292  0.00  0.00    -0.060 C 
ATOM     18  C   UNL     1      32.944 -15.114 -26.172  0.00  0.00    -0.060 C 
ATOM     19  H   UNL     1      33.956 -16.907 -26.212  0.00  0.00    -0.084 HD
ATOM     20  H   UNL     1      34.941 -15.546 -26.066  0.00  0.00    -0.084 HD
ENDBRANCH   4  13
BRANCH  12  23
ATOM     21  O   UNL     1      31.273  -6.101 -20.931  0.00  0.00    -0.240 OA
ATOM     22  O   UNL     1      32.780  -6.751 -19.338  0.00  0.00    -0.240 OA
ATOM     23  C   UNL     1      32.130  -6.874 -20.416  0.00  0.00    +0.392 C 
ENDBRANCH  12  23
BRANCH   3  24
ATOM     24  C   UNL     1      34.296  -8.884 -24.358  0.00  0.00    +0.096 C 
ATOM     25  C   UNL     1      34.662  -7.426 -24.539  0.00  0.00    +0.024 C 
ENDBRANCH   3  24
TORSDOF 3
ENDMDL
MODEL 5
REMARK VINA RESULT:      -8.6      9.296     12.677
REMARK  Name = 6919051
REMARK  3 active torsions:
REMARK  status: ('A' for Active; 'I' for Inactive)
REMARK    1  A    between atoms: N_3  and  C_24
REMARK    2  A    between atoms: C_4  and  N_13
REMARK    3  A    between atoms: C_12  and  C_23
REMARK                            x       y       z     vdW  Elec       q    Type
REMARK                         _______ _______ _______ _____ _____    ______ ____
ROOT
ATOM      1  F   UNL     1      38.648 -22.801 -15.796  0.00  0.00    -0.203 F 
ATOM      2  O   UNL     1      36.311 -20.507 -19.612  0.00  0.00    -0.286 OA
ATOM      3  N   UNL     1      33.432 -22.754 -17.798  0.00  0.00    -0.286 N 
ATOM      4  C   UNL     1      36.407 -23.564 -15.650  0.00  0.00    +0.077 C 
ATOM      5  C   UNL     1      35.098 -23.559 -16.144  0.00  0.00    +0.032 C 
ATOM      6  C   UNL     1      34.742 -22.788 -17.266  0.00  0.00    +0.056 C 
ATOM      7  C   UNL     1      37.391 -22.799 -16.265  0.00  0.00    +0.153 C 
ATOM      8  C   UNL     1      35.762 -22.020 -17.872  0.00  0.00    +0.055 C 
ATOM      9  C   UNL     1      37.074 -22.025 -17.377  0.00  0.00    +0.035 C 
ATOM     10  C   UNL     1      35.453 -21.183 -19.062  0.00  0.00    +0.204 C 
ATOM     11  C   UNL     1      33.171 -21.968 -18.906  0.00  0.00    +0.075 C 
ATOM     12  C   UNL     1      34.056 -21.206 -19.554  0.00  0.00    +0.133 C 
ENDROOT
BRANCH   4  13
ATOM     13  N   UNL     1      36.723 -24.343 -14.531  0.00  0.00    -0.310 N 
ATOM     14  N   UNL     1      37.553 -25.885 -12.320  0.00  0.00    +0.386 N 
ATOM     15  C   UNL     1      36.902 -23.695 -13.225  0.00  0.00    +0.068 C 
ATOM     16  C   UNL     1      37.496 -25.574 -14.754  0.00  0.00    +0.068 C 
ATOM     17  C   UNL     1      36.684 -24.694 -12.096  0.00  0.00    -0.060 C 
ATOM     18  C   UNL     1      37.271 -26.562 -13.618  0.00  0.00    -0.060 C 
ATOM     19  H   UNL     1      37.398 -26.550 -11.563  0.00  0.00    -0.084 HD
ATOM     20  H   UNL     1      38.521 -25.563 -12.342  0.00  0.00    -0.084 HD
ENDBRANCH   4  13
BRANCH  12  23
ATOM     21  O   UNL     1      32.350 -20.211 -20.823  0.00  0.00    -0.240 OA
ATOM     22  O   UNL     1      34.517 -20.031 -21.534  0.00  0.00    -0.240 OA
ATOM     23  C   UNL     1      33.596 -20.406 -20.751  0.00  0.00    +0.392 C 
ENDBRANCH  12  23
BRANCH   3  24
ATOM     24  C   UNL     1      32.389 -23.555 -17.161  0.00  0.00    +0.096 C 
ATOM     25  C   UNL     1      31.284 -22.685 -16.602  0.00  0.00    +0.024 C 
ENDBRANCH   3  24
TORSDOF 3
ENDMDL
MODEL 6
REMARK VINA RESULT:      -8.6      3.934      7.396
REMARK  Name = 6919051
REMARK  3 active torsions:
REMARK  status: ('A' for Active; 'I' for Inactive)
REMARK    1  A    between atoms: N_3  and  C_24
REMARK    2  A    between atoms: C_4  and  N_13
REMARK    3  A    between atoms: C_12  and  C_23
REMARK                            x       y       z     vdW  Elec       q    Type
REMARK                         _______ _______ _______ _____ _____    ______ ____
ROOT
ATOM      1  F   UNL     1      33.330 -11.872 -26.330  0.00  0.00    -0.203 F 
ATOM      2  O   UNL     1      34.307 -16.790 -25.960  0.00  0.00    -0.286 OA
ATOM      3  N   UNL     1      34.231 -15.429 -22.117  0.00  0.00    -0.286 N 
ATOM      4  C   UNL     1      33.520 -12.254 -23.997  0.00  0.00    +0.077 C 
ATOM      5  C   UNL     1      33.744 -13.136 -22.935  0.00  0.00    +0.032 C 
ATOM      6  C   UNL     1      33.999 -14.502 -23.159  0.00  0.00    +0.056 C 
ATOM      7  C   UNL     1      33.544 -12.714 -25.309  0.00  0.00    +0.153 C 
ATOM      8  C   UNL     1      34.018 -14.943 -24.503  0.00  0.00    +0.055 C 
ATOM      9  C   UNL     1      33.793 -14.058 -25.567  0.00  0.00    +0.035 C 
ATOM     10  C   UNL     1      34.281 -16.374 -24.810  0.00  0.00    +0.204 C 
ATOM     11  C   UNL     1      34.474 -16.755 -22.429  0.00  0.00    +0.075 C 
ATOM     12  C   UNL     1      34.514 -17.276 -23.658  0.00  0.00    +0.133 C 
ENDROOT
BRANCH   4  13
ATOM     13  N   UNL     1      33.269 -10.902 -23.734  0.00  0.00    -0.310 N 
ATOM     14  N   UNL     1      32.817  -8.213 -23.013  0.00  0.00    +0.386 N 
ATOM     15  C   UNL     1      34.355  -9.923 -23.878  0.00  0.00    +0.068 C 
ATOM     16  C   UNL     1      32.238 -10.582 -22.736  0.00  0.00    +0.068 C 
ATOM     17  C   UNL     1      33.792  -8.526 -24.097  0.00  0.00    -0.060 C 
ATOM     18  C   UNL     1      31.685  -9.182 -22.965  0.00  0.00    -0.060 C 
ATOM     19  H   UNL     1      32.442  -7.278 -23.170  0.00  0.00    -0.084 HD
ATOM     20  H   UNL     1      33.313  -8.272 -22.123  0.00  0.00    -0.084 HD
ENDBRANCH   4  13
BRANCH  12  23
ATOM     21  O   UNL     1      34.462 -19.246 -24.933  0.00  0.00    -0.240 OA
ATOM     22  O   UNL     1      35.327 -19.312 -22.816  0.00  0.00    -0.240 OA
ATOM     23  C   UNL     1      34.794 -18.753 -23.818  0.00  0.00    +0.392 C 
ENDBRANCH  12  23
BRANCH   3  24
ATOM     24  C   UNL     1      34.209 -14.956 -20.734  0.00  0.00    +0.096 C 
ATOM     25  C   UNL     1      32.815 -15.021 -20.147  0.00  0.00    +0.024 C 
ENDBRANCH   3  24
TORSDOF 3
ENDMDL
MODEL 7
REMARK VINA RESULT:      -8.4     12.650     14.346
REMARK  Name = 6919051
REMARK  3 active torsions:
REMARK  status: ('A' for Active; 'I' for Inactive)
REMARK    1  A    between atoms: N_3  and  C_24
REMARK    2  A    between atoms: C_4  and  N_13
REMARK    3  A    between atoms: C_12  and  C_23
REMARK                            x       y       z     vdW  Elec       q    Type
REMARK                         _______ _______ _______ _____ _____    ______ ____
ROOT
ATOM      1  F   UNL     1      36.130 -23.125 -16.436  0.00  0.00    -0.203 F 
ATOM      2  O   UNL     1      31.410 -22.255 -17.933  0.00  0.00    -0.286 OA
ATOM      3  N   UNL     1      31.053 -24.220 -14.377  0.00  0.00    -0.286 N 
ATOM      4  C   UNL     1      34.792 -24.064 -14.718  0.00  0.00    +0.077 C 
ATOM      5  C   UNL     1      33.526 -24.343 -14.194  0.00  0.00    +0.032 C 
ATOM      6  C   UNL     1      32.353 -23.958 -14.869  0.00  0.00    +0.056 C 
ATOM      7  C   UNL     1      34.919 -23.394 -15.929  0.00  0.00    +0.153 C 
ATOM      8  C   UNL     1      32.510 -23.279 -16.100  0.00  0.00    +0.055 C 
ATOM      9  C   UNL     1      33.780 -22.999 -16.624  0.00  0.00    +0.035 C 
ATOM     10  C   UNL     1      31.311 -22.844 -16.865  0.00  0.00    +0.204 C 
ATOM     11  C   UNL     1      29.954 -23.805 -15.109  0.00  0.00    +0.075 C 
ATOM     12  C   UNL     1      29.988 -23.159 -16.277  0.00  0.00    +0.133 C 
ENDROOT
BRANCH   4  13
ATOM     13  N   UNL     1      35.936 -24.462 -14.016  0.00  0.00    -0.310 N 
ATOM     14  N   UNL     1      38.346 -25.230 -12.768  0.00  0.00    +0.386 N 
ATOM     15  C   UNL     1      36.723 -23.460 -13.286  0.00  0.00    +0.068 C 
ATOM     16  C   UNL     1      36.680 -25.622 -14.528  0.00  0.00    +0.068 C 
ATOM     17  C   UNL     1      37.542 -24.118 -12.184  0.00  0.00    -0.060 C 
ATOM     18  C   UNL     1      37.497 -26.269 -13.418  0.00  0.00    -0.060 C 
ATOM     19  H   UNL     1      38.887 -25.669 -12.023  0.00  0.00    -0.084 HD
ATOM     20  H   UNL     1      38.952 -24.832 -13.485  0.00  0.00    -0.084 HD
ENDBRANCH   4  13
BRANCH  12  23
ATOM     21  O   UNL     1      28.158 -21.709 -16.522  0.00  0.00    -0.240 OA
ATOM     22  O   UNL     1      28.284 -23.578 -17.836  0.00  0.00    -0.240 OA
ATOM     23  C   UNL     1      28.685 -22.779 -16.942  0.00  0.00    +0.392 C 
ENDBRANCH  12  23
BRANCH   3  24
ATOM     24  C   UNL     1      30.909 -24.924 -13.105  0.00  0.00    +0.096 C 
ATOM     25  C   UNL     1      30.258 -24.048 -12.056  0.00  0.00    +0.024 C 
ENDBRANCH   3  24
TORSDOF 3
ENDMDL
MODEL 8
REMARK VINA RESULT:      -8.2      3.269      6.910
REMARK  Name = 6919051
REMARK  3 active torsions:
REMARK  status: ('A' for Active; 'I' for Inactive)
REMARK    1  A    between atoms: N_3  and  C_24
REMARK    2  A    between atoms: C_4  and  N_13
REMARK    3  A    between atoms: C_12  and  C_23
REMARK                            x       y       z     vdW  Elec       q    Type
REMARK                         _______ _______ _______ _____ _____    ______ ____
ROOT
ATOM      1  F   UNL     1      30.866 -10.399 -20.180  0.00  0.00    -0.203 F 
ATOM      2  O   UNL     1      32.159 -14.775 -22.293  0.00  0.00    -0.286 OA
ATOM      3  N   UNL     1      33.878 -11.913 -24.636  0.00  0.00    -0.286 N 
ATOM      4  C   UNL     1      32.180  -9.775 -22.054  0.00  0.00    +0.077 C 
ATOM      5  C   UNL     1      32.936 -10.144 -23.172  0.00  0.00    +0.032 C 
ATOM      6  C   UNL     1      33.123 -11.495 -23.515  0.00  0.00    +0.056 C 
ATOM      7  C   UNL     1      31.592 -10.747 -21.252  0.00  0.00    +0.153 C 
ATOM      8  C   UNL     1      32.514 -12.463 -22.683  0.00  0.00    +0.055 C 
ATOM      9  C   UNL     1      31.757 -12.093 -21.563  0.00  0.00    +0.035 C 
ATOM     10  C   UNL     1      32.672 -13.910 -22.990  0.00  0.00    +0.204 C 
ATOM     11  C   UNL     1      34.009 -13.265 -24.899  0.00  0.00    +0.075 C 
ATOM     12  C   UNL     1      33.480 -14.259 -24.182  0.00  0.00    +0.133 C 
ENDROOT
BRANCH   4  13
ATOM     13  N   UNL     1      32.017  -8.420 -21.744  0.00  0.00    -0.310 N 
ATOM     14  N   UNL     1      31.491  -5.724 -21.101  0.00  0.00    +0.386 N 
ATOM     15  C   UNL     1      32.083  -7.985 -20.342  0.00  0.00    +0.068 C 
ATOM     16  C   UNL     1      31.164  -7.616 -22.631  0.00  0.00    +0.068 C 
ATOM     17  C   UNL     1      32.438  -6.506 -20.255  0.00  0.00    -0.060 C 
ATOM     18  C   UNL     1      31.526  -6.141 -22.533  0.00  0.00    -0.060 C 
ATOM     19  H   UNL     1      31.739  -4.736 -21.041  0.00  0.00    -0.084 HD
ATOM     20  H   UNL     1      30.549  -5.895 -20.752  0.00  0.00    -0.084 HD
ENDBRANCH   4  13
BRANCH  12  23
ATOM     21  O   UNL     1      33.354 -15.964 -25.792  0.00  0.00    -0.240 OA
ATOM     22  O   UNL     1      34.272 -16.426 -23.747  0.00  0.00    -0.240 OA
ATOM     23  C   UNL     1      33.725 -15.686 -24.615  0.00  0.00    +0.392 C 
ENDBRANCH  12  23
BRANCH   3  24
ATOM     24  C   UNL     1      34.499 -10.900 -25.486  0.00  0.00    +0.096 C 
ATOM     25  C   UNL     1      34.981 -11.491 -26.793  0.00  0.00    +0.024 C 
ENDBRANCH   3  24
TORSDOF 3
ENDMDL
MODEL 9
REMARK VINA RESULT:      -8.1     10.202     13.943
REMARK  Name = 6919051
REMARK  3 active torsions:
REMARK  status: ('A' for Active; 'I' for Inactive)
REMARK    1  A    between atoms: N_3  and  C_24
REMARK    2  A    between atoms: C_4  and  N_13
REMARK    3  A    between atoms: C_12  and  C_23
REMARK                            x       y       z     vdW  Elec       q    Type
REMARK                         _______ _______ _______ _____ _____    ______ ____
ROOT
ATOM      1  F   UNL     1      37.591 -21.423 -18.063  0.00  0.00    -0.203 F 
ATOM      2  O   UNL     1      37.917 -23.849 -13.670  0.00  0.00    -0.286 OA
ATOM      3  N   UNL     1      33.964 -23.976 -14.665  0.00  0.00    -0.286 N 
ATOM      4  C   UNL     1      35.361 -22.077 -17.592  0.00  0.00    +0.077 C 
ATOM      5  C   UNL     1      34.444 -22.714 -16.749  0.00  0.00    +0.032 C 
ATOM      6  C   UNL     1      34.855 -23.322 -15.548  0.00  0.00    +0.056 C 
ATOM      7  C   UNL     1      36.709 -22.033 -17.258  0.00  0.00    +0.153 C 
ATOM      8  C   UNL     1      36.232 -23.261 -15.231  0.00  0.00    +0.055 C 
ATOM      9  C   UNL     1      37.150 -22.623 -16.077  0.00  0.00    +0.035 C 
ATOM     10  C   UNL     1      36.732 -23.884 -13.977  0.00  0.00    +0.204 C 
ATOM     11  C   UNL     1      34.455 -24.546 -13.505  0.00  0.00    +0.075 C 
ATOM     12  C   UNL     1      35.731 -24.548 -13.110  0.00  0.00    +0.133 C 
ENDROOT
BRANCH   4  13
ATOM     13  N   UNL     1      34.914 -21.485 -18.779  0.00  0.00    -0.310 N 
ATOM     14  N   UNL     1      34.067 -20.458 -21.266  0.00  0.00    +0.386 N 
ATOM     15  C   UNL     1      33.517 -21.664 -19.197  0.00  0.00    +0.068 C 
ATOM     16  C   UNL     1      35.894 -21.301 -19.860  0.00  0.00    +0.068 C 
ATOM     17  C   UNL     1      33.092 -20.548 -20.142  0.00  0.00    -0.060 C 
ATOM     18  C   UNL     1      35.456 -20.185 -20.797  0.00  0.00    -0.060 C 
ATOM     19  H   UNL     1      33.778 -19.706 -21.891  0.00  0.00    -0.084 HD
ATOM     20  H   UNL     1      34.073 -21.359 -21.744  0.00  0.00    -0.084 HD
ENDBRANCH   4  13
BRANCH  12  23
ATOM     21  O   UNL     1      36.974 -26.125 -11.894  0.00  0.00    -0.240 OA
ATOM     22  O   UNL     1      35.473 -24.798 -10.790  0.00  0.00    -0.240 OA
ATOM     23  C   UNL     1      36.094 -25.222 -11.807  0.00  0.00    +0.392 C 
ENDBRANCH  12  23
BRANCH   3  24
ATOM     24  C   UNL     1      32.544 -24.028 -15.007  0.00  0.00    +0.096 C 
ATOM     25  C   UNL     1      31.744 -23.017 -14.213  0.00  0.00    +0.024 C 
ENDBRANCH   3  24
TORSDOF 3
ENDMDL
