MODEL 1
REMARK VINA RESULT:      -3.5      0.000      0.000
REMARK  Name = 10442
REMARK  4 active torsions:
REMARK  status: ('A' for Active; 'I' for Inactive)
REMARK    1  A    between atoms: C_1  and  C_2
REMARK    2  A    between atoms: C_1  and  C_5
REMARK    3  A    between atoms: C_2  and  O_3
REMARK    4  A    between atoms: C_5  and  O_6
REMARK                            x       y       z     vdW  Elec       q    Type
REMARK                         _______ _______ _______ _____ _____    ______ ____
ROOT
ATOM      1  C   UNL     1      38.890 -25.296 -14.355  0.00  0.00    +0.063 C 
ENDROOT
BRANCH   1   2
ATOM      2  C   UNL     1      40.307 -25.761 -14.653  0.00  0.00    +0.140 C 
BRANCH   2   3
ATOM      3  O   UNL     1      40.439 -25.966 -16.053  0.00  0.00    -0.382 OA
ATOM      4  H   UNL     1      40.223 -26.887 -16.267  0.00  0.00    +0.210 HD
ENDBRANCH   2   3
ENDBRANCH   1   2
BRANCH   1   5
ATOM      5  C   UNL     1      37.885 -26.433 -14.460  0.00  0.00    +0.140 C 
BRANCH   5   6
ATOM      6  O   UNL     1      37.460 -26.577 -15.809  0.00  0.00    -0.382 OA
ATOM      7  H   UNL     1      36.796 -27.281 -15.865  0.00  0.00    +0.210 HD
ENDBRANCH   5   6
ENDBRANCH   1   5
TORSDOF 4
ENDMDL
MODEL 2
REMARK VINA RESULT:      -3.5      0.103      2.490
REMARK  Name = 10442
REMARK  4 active torsions:
REMARK  status: ('A' for Active; 'I' for Inactive)
REMARK    1  A    between atoms: C_1  and  C_2
REMARK    2  A    between atoms: C_1  and  C_5
REMARK    3  A    between atoms: C_2  and  O_3
REMARK    4  A    between atoms: C_5  and  O_6
REMARK                            x       y       z     vdW  Elec       q    Type
REMARK                         _______ _______ _______ _____ _____    ______ ____
ROOT
ATOM      1  C   UNL     1      38.938 -25.391 -14.240  0.00  0.00    +0.063 C 
ENDROOT
BRANCH   1   2
ATOM      2  C   UNL     1      37.878 -26.468 -14.408  0.00  0.00    +0.140 C 
BRANCH   2   3
ATOM      3  O   UNL     1      37.512 -26.542 -15.778  0.00  0.00    -0.382 OA
ATOM      4  H   UNL     1      38.068 -27.198 -16.226  0.00  0.00    +0.210 HD
ENDBRANCH   2   3
ENDBRANCH   1   2
BRANCH   1   5
ATOM      5  C   UNL     1      40.323 -25.893 -14.619  0.00  0.00    +0.140 C 
BRANCH   5   6
ATOM      6  O   UNL     1      40.436 -25.972 -16.034  0.00  0.00    -0.382 OA
ATOM      7  H   UNL     1      41.353 -25.794 -16.295  0.00  0.00    +0.210 HD
ENDBRANCH   5   6
ENDBRANCH   1   5
TORSDOF 4
ENDMDL
MODEL 3
REMARK VINA RESULT:      -3.4     11.326     11.863
REMARK  Name = 10442
REMARK  4 active torsions:
REMARK  status: ('A' for Active; 'I' for Inactive)
REMARK    1  A    between atoms: C_1  and  C_2
REMARK    2  A    between atoms: C_1  and  C_5
REMARK    3  A    between atoms: C_2  and  O_3
REMARK    4  A    between atoms: C_5  and  O_6
REMARK                            x       y       z     vdW  Elec       q    Type
REMARK                         _______ _______ _______ _____ _____    ______ ____
ROOT
ATOM      1  C   UNL     1      41.508 -14.063 -15.383  0.00  0.00    +0.063 C 
ENDROOT
BRANCH   1   2
ATOM      2  C   UNL     1      41.250 -15.514 -15.755  0.00  0.00    +0.140 C 
BRANCH   2   3
ATOM      3  O   UNL     1      40.081 -15.961 -15.083  0.00  0.00    -0.382 OA
ATOM      4  H   UNL     1      39.319 -15.888 -15.677  0.00  0.00    +0.210 HD
ENDBRANCH   2   3
ENDBRANCH   1   2
BRANCH   1   5
ATOM      5  C   UNL     1      40.463 -13.530 -14.414  0.00  0.00    +0.140 C 
BRANCH   5   6
ATOM      6  O   UNL     1      40.961 -13.599 -13.084  0.00  0.00    -0.382 OA
ATOM      7  H   UNL     1      41.749 -14.164 -13.063  0.00  0.00    +0.210 HD
ENDBRANCH   5   6
ENDBRANCH   1   5
TORSDOF 4
ENDMDL
MODEL 4
REMARK VINA RESULT:      -3.4      1.518      2.473
REMARK  Name = 10442
REMARK  4 active torsions:
REMARK  status: ('A' for Active; 'I' for Inactive)
REMARK    1  A    between atoms: C_1  and  C_2
REMARK    2  A    between atoms: C_1  and  C_5
REMARK    3  A    between atoms: C_2  and  O_3
REMARK    4  A    between atoms: C_5  and  O_6
REMARK                            x       y       z     vdW  Elec       q    Type
REMARK                         _______ _______ _______ _____ _____    ______ ____
ROOT
ATOM      1  C   UNL     1      39.044 -25.631 -14.085  0.00  0.00    +0.063 C 
ENDROOT
BRANCH   1   2
ATOM      2  C   UNL     1      38.049 -24.749 -14.823  0.00  0.00    +0.140 C 
BRANCH   2   3
ATOM      3  O   UNL     1      38.765 -23.795 -15.594  0.00  0.00    -0.382 OA
ATOM      4  H   UNL     1      39.247 -23.196 -15.002  0.00  0.00    +0.210 HD
ENDBRANCH   2   3
ENDBRANCH   1   2
BRANCH   1   5
ATOM      5  C   UNL     1      40.438 -25.542 -14.685  0.00  0.00    +0.140 C 
BRANCH   5   6
ATOM      6  O   UNL     1      40.402 -25.944 -16.049  0.00  0.00    -0.382 OA
ATOM      7  H   UNL     1      40.663 -26.875 -16.117  0.00  0.00    +0.210 HD
ENDBRANCH   5   6
ENDBRANCH   1   5
TORSDOF 4
ENDMDL
MODEL 5
REMARK VINA RESULT:      -3.2     11.389     12.297
REMARK  Name = 10442
REMARK  4 active torsions:
REMARK  status: ('A' for Active; 'I' for Inactive)
REMARK    1  A    between atoms: C_1  and  C_2
REMARK    2  A    between atoms: C_1  and  C_5
REMARK    3  A    between atoms: C_2  and  O_3
REMARK    4  A    between atoms: C_5  and  O_6
REMARK                            x       y       z     vdW  Elec       q    Type
REMARK                         _______ _______ _______ _____ _____    ______ ____
ROOT
ATOM      1  C   UNL     1      27.736 -22.529 -15.825  0.00  0.00    +0.063 C 
ENDROOT
BRANCH   1   2
ATOM      2  C   UNL     1      28.521 -23.287 -16.884  0.00  0.00    +0.140 C 
BRANCH   2   3
ATOM      3  O   UNL     1      27.618 -24.069 -17.653  0.00  0.00    -0.382 OA
ATOM      4  H   UNL     1      27.884 -25.000 -17.615  0.00  0.00    +0.210 HD
ENDBRANCH   2   3
ENDBRANCH   1   2
BRANCH   1   5
ATOM      5  C   UNL     1      26.461 -21.919 -16.389  0.00  0.00    +0.140 C 
BRANCH   5   6
ATOM      6  O   UNL     1      26.760 -21.185 -17.569  0.00  0.00    -0.382 OA
ATOM      7  H   UNL     1      26.041 -20.562 -17.752  0.00  0.00    +0.210 HD
ENDBRANCH   5   6
ENDBRANCH   1   5
TORSDOF 4
ENDMDL
MODEL 6
REMARK VINA RESULT:      -3.2     11.043     11.677
REMARK  Name = 10442
REMARK  4 active torsions:
REMARK  status: ('A' for Active; 'I' for Inactive)
REMARK    1  A    between atoms: C_1  and  C_2
REMARK    2  A    between atoms: C_1  and  C_5
REMARK    3  A    between atoms: C_2  and  O_3
REMARK    4  A    between atoms: C_5  and  O_6
REMARK                            x       y       z     vdW  Elec       q    Type
REMARK                         _______ _______ _______ _____ _____    ______ ____
ROOT
ATOM      1  C   UNL     1      40.946 -15.246 -15.017  0.00  0.00    +0.063 C 
ENDROOT
BRANCH   1   2
ATOM      2  C   UNL     1      40.915 -13.757 -14.712  0.00  0.00    +0.140 C 
BRANCH   2   3
ATOM      3  O   UNL     1      40.814 -13.577 -13.307  0.00  0.00    -0.382 OA
ATOM      4  H   UNL     1      41.563 -14.011 -12.871  0.00  0.00    +0.210 HD
ENDBRANCH   2   3
ENDBRANCH   1   2
BRANCH   1   5
ATOM      5  C   UNL     1      41.652 -15.544 -16.331  0.00  0.00    +0.140 C 
BRANCH   5   6
ATOM      6  O   UNL     1      42.821 -16.314 -16.084  0.00  0.00    -0.382 OA
ATOM      7  H   UNL     1      42.670 -17.230 -16.366  0.00  0.00    +0.210 HD
ENDBRANCH   5   6
ENDBRANCH   1   5
TORSDOF 4
ENDMDL
MODEL 7
REMARK VINA RESULT:      -3.2      4.770      4.939
REMARK  Name = 10442
REMARK  4 active torsions:
REMARK  status: ('A' for Active; 'I' for Inactive)
REMARK    1  A    between atoms: C_1  and  C_2
REMARK    2  A    between atoms: C_1  and  C_5
REMARK    3  A    between atoms: C_2  and  O_3
REMARK    4  A    between atoms: C_5  and  O_6
REMARK                            x       y       z     vdW  Elec       q    Type
REMARK                         _______ _______ _______ _____ _____    ______ ____
ROOT
ATOM      1  C   UNL     1      36.946 -24.946 -12.175  0.00  0.00    +0.063 C 
ENDROOT
BRANCH   1   2
ATOM      2  C   UNL     1      37.954 -23.833 -11.932  0.00  0.00    +0.140 C 
BRANCH   2   3
ATOM      3  O   UNL     1      37.374 -22.869 -11.066  0.00  0.00    -0.382 OA
ATOM      4  H   UNL     1      36.708 -23.296 -10.506  0.00  0.00    +0.210 HD
ENDBRANCH   2   3
ENDBRANCH   1   2
BRANCH   1   5
ATOM      5  C   UNL     1      35.550 -24.558 -11.714  0.00  0.00    +0.140 C 
BRANCH   5   6
ATOM      6  O   UNL     1      35.332 -25.027 -10.390  0.00  0.00    -0.382 OA
ATOM      7  H   UNL     1      35.635 -24.358  -9.757  0.00  0.00    +0.210 HD
ENDBRANCH   5   6
ENDBRANCH   1   5
TORSDOF 4
ENDMDL
MODEL 8
REMARK VINA RESULT:      -3.2      2.195      2.914
REMARK  Name = 10442
REMARK  4 active torsions:
REMARK  status: ('A' for Active; 'I' for Inactive)
REMARK    1  A    between atoms: C_1  and  C_2
REMARK    2  A    between atoms: C_1  and  C_5
REMARK    3  A    between atoms: C_2  and  O_3
REMARK    4  A    between atoms: C_5  and  O_6
REMARK                            x       y       z     vdW  Elec       q    Type
REMARK                         _______ _______ _______ _____ _____    ______ ____
ROOT
ATOM      1  C   UNL     1      37.945 -26.392 -14.336  0.00  0.00    +0.063 C 
ENDROOT
BRANCH   1   2
ATOM      2  C   UNL     1      37.742 -25.746 -12.975  0.00  0.00    +0.140 C 
BRANCH   2   3
ATOM      3  O   UNL     1      36.871 -26.562 -12.205  0.00  0.00    -0.382 OA
ATOM      4  H   UNL     1      37.395 -27.152 -11.640  0.00  0.00    +0.210 HD
ENDBRANCH   2   3
ENDBRANCH   1   2
BRANCH   1   5
ATOM      5  C   UNL     1      36.652 -26.459 -15.133  0.00  0.00    +0.140 C 
BRANCH   5   6
ATOM      6  O   UNL     1      36.833 -27.284 -16.277  0.00  0.00    -0.382 OA
ATOM      7  H   UNL     1      37.069 -26.732 -17.038  0.00  0.00    +0.210 HD
ENDBRANCH   5   6
ENDBRANCH   1   5
TORSDOF 4
ENDMDL
MODEL 9
REMARK VINA RESULT:      -3.2     10.615     10.834
REMARK  Name = 10442
REMARK  4 active torsions:
REMARK  status: ('A' for Active; 'I' for Inactive)
REMARK    1  A    between atoms: C_1  and  C_2
REMARK    2  A    between atoms: C_1  and  C_5
REMARK    3  A    between atoms: C_2  and  O_3
REMARK    4  A    between atoms: C_5  and  O_6
REMARK                            x       y       z     vdW  Elec       q    Type
REMARK                         _______ _______ _______ _____ _____    ______ ____
ROOT
ATOM      1  C   UNL     1      41.317 -14.875 -16.913  0.00  0.00    +0.063 C 
ENDROOT
BRANCH   1   2
ATOM      2  C   UNL     1      42.281 -16.001 -17.251  0.00  0.00    +0.140 C 
BRANCH   2   3
ATOM      3  O   UNL     1      42.797 -16.541 -16.043  0.00  0.00    -0.382 OA
ATOM      4  H   UNL     1      42.085 -16.985 -15.557  0.00  0.00    +0.210 HD
ENDBRANCH   2   3
ENDBRANCH   1   2
BRANCH   1   5
ATOM      5  C   UNL     1      40.968 -14.848 -15.433  0.00  0.00    +0.140 C 
BRANCH   5   6
ATOM      6  O   UNL     1      40.091 -15.924 -15.126  0.00  0.00    -0.382 OA
ATOM      7  H   UNL     1      39.445 -15.635 -14.464  0.00  0.00    +0.210 HD
ENDBRANCH   5   6
ENDBRANCH   1   5
TORSDOF 4
ENDMDL
