MODEL 1
REMARK VINA RESULT:      -6.6      0.000      0.000
REMARK  Name = 10313
REMARK  2 active torsions:
REMARK  status: ('A' for Active; 'I' for Inactive)
REMARK    1  A    between atoms: C_1  and  C_9
REMARK    2  A    between atoms: N_8  and  O_11
REMARK                            x       y       z     vdW  Elec       q    Type
REMARK                         _______ _______ _______ _____ _____    ______ ____
ROOT
ATOM      1  C   UNL     1      34.940 -18.791 -21.081  0.00  0.00    +0.055 C 
ATOM      2  C   UNL     1      36.024 -19.575 -20.684  0.00  0.00    +0.005 C 
ATOM      3  C   UNL     1      33.638 -19.245 -20.873  0.00  0.00    +0.005 C 
ATOM      4  C   UNL     1      35.805 -20.815 -20.082  0.00  0.00    +0.000 C 
ATOM      5  C   UNL     1      33.419 -20.484 -20.271  0.00  0.00    +0.000 C 
ATOM      6  C   UNL     1      34.503 -21.269 -19.875  0.00  0.00    +0.000 C 
ENDROOT
BRANCH   1   9
ATOM      7  O   UNL     1      34.967 -16.443 -21.083  0.00  0.00    -0.268 OA
ATOM      8  N   UNL     1      35.603 -17.505 -23.027  0.00  0.00    -0.193 N 
ATOM      9  C   UNL     1      35.169 -17.500 -21.709  0.00  0.00    +0.268 C 
ATOM     10  H   UNL     1      35.760 -18.346 -23.515  0.00  0.00    +0.183 HD
BRANCH   8  11
ATOM     11  O   UNL     1      35.808 -16.257 -23.632  0.00  0.00    -0.295 OA
ATOM     12  H   UNL     1      36.305 -15.682 -23.028  0.00  0.00    +0.241 HD
ENDBRANCH   8  11
ENDBRANCH   1   9
TORSDOF 2
ENDMDL
MODEL 2
REMARK VINA RESULT:      -6.6      0.104      1.531
REMARK  Name = 10313
REMARK  2 active torsions:
REMARK  status: ('A' for Active; 'I' for Inactive)
REMARK    1  A    between atoms: C_1  and  C_9
REMARK    2  A    between atoms: N_8  and  O_11
REMARK                            x       y       z     vdW  Elec       q    Type
REMARK                         _______ _______ _______ _____ _____    ______ ____
ROOT
ATOM      1  C   UNL     1      34.891 -18.853 -21.054  0.00  0.00    +0.055 C 
ATOM      2  C   UNL     1      33.575 -19.269 -20.855  0.00  0.00    +0.005 C 
ATOM      3  C   UNL     1      35.948 -19.672 -20.658  0.00  0.00    +0.005 C 
ATOM      4  C   UNL     1      33.316 -20.503 -20.257  0.00  0.00    +0.000 C 
ATOM      5  C   UNL     1      35.690 -20.906 -20.062  0.00  0.00    +0.000 C 
ATOM      6  C   UNL     1      34.373 -21.322 -19.861  0.00  0.00    +0.000 C 
ENDROOT
BRANCH   1   9
ATOM      7  O   UNL     1      35.013 -16.508 -21.039  0.00  0.00    -0.268 OA
ATOM      8  N   UNL     1      35.571 -17.579 -23.002  0.00  0.00    -0.193 N 
ATOM      9  C   UNL     1      35.161 -17.567 -21.676  0.00  0.00    +0.268 C 
ATOM     10  H   UNL     1      35.685 -18.421 -23.500  0.00  0.00    +0.183 HD
BRANCH   8  11
ATOM     11  O   UNL     1      35.816 -16.334 -23.601  0.00  0.00    -0.295 OA
ATOM     12  H   UNL     1      35.055 -16.082 -24.147  0.00  0.00    +0.241 HD
ENDBRANCH   8  11
ENDBRANCH   1   9
TORSDOF 2
ENDMDL
MODEL 3
REMARK VINA RESULT:      -6.6      3.976      5.054
REMARK  Name = 10313
REMARK  2 active torsions:
REMARK  status: ('A' for Active; 'I' for Inactive)
REMARK    1  A    between atoms: C_1  and  C_9
REMARK    2  A    between atoms: N_8  and  O_11
REMARK                            x       y       z     vdW  Elec       q    Type
REMARK                         _______ _______ _______ _____ _____    ______ ____
ROOT
ATOM      1  C   UNL     1      34.920 -20.863 -19.945  0.00  0.00    +0.055 C 
ATOM      2  C   UNL     1      33.759 -20.258 -20.428  0.00  0.00    +0.005 C 
ATOM      3  C   UNL     1      36.167 -20.311 -20.236  0.00  0.00    +0.005 C 
ATOM      4  C   UNL     1      33.847 -19.102 -21.205  0.00  0.00    +0.000 C 
ATOM      5  C   UNL     1      36.255 -19.155 -21.011  0.00  0.00    +0.000 C 
ATOM      6  C   UNL     1      35.094 -18.550 -21.496  0.00  0.00    +0.000 C 
ENDROOT
BRANCH   1   9
ATOM      7  O   UNL     1      35.688 -22.323 -18.273  0.00  0.00    -0.268 OA
ATOM      8  N   UNL     1      33.757 -22.916 -19.384  0.00  0.00    -0.193 N 
ATOM      9  C   UNL     1      34.828 -22.069 -19.137  0.00  0.00    +0.268 C 
ATOM     10  H   UNL     1      33.082 -22.708 -20.069  0.00  0.00    +0.183 HD
BRANCH   8  11
ATOM     11  O   UNL     1      33.682 -24.084 -18.611  0.00  0.00    -0.295 OA
ATOM     12  H   UNL     1      32.895 -24.591 -18.864  0.00  0.00    +0.241 HD
ENDBRANCH   8  11
ENDBRANCH   1   9
TORSDOF 2
ENDMDL
MODEL 4
REMARK VINA RESULT:      -6.6      4.474      5.305
REMARK  Name = 10313
REMARK  2 active torsions:
REMARK  status: ('A' for Active; 'I' for Inactive)
REMARK    1  A    between atoms: C_1  and  C_9
REMARK    2  A    between atoms: N_8  and  O_11
REMARK                            x       y       z     vdW  Elec       q    Type
REMARK                         _______ _______ _______ _____ _____    ______ ____
ROOT
ATOM      1  C   UNL     1      34.211 -21.464 -19.619  0.00  0.00    +0.055 C 
ATOM      2  C   UNL     1      35.408 -20.924 -20.090  0.00  0.00    +0.005 C 
ATOM      3  C   UNL     1      33.000 -20.839 -19.915  0.00  0.00    +0.005 C 
ATOM      4  C   UNL     1      35.393 -19.758 -20.857  0.00  0.00    +0.000 C 
ATOM      5  C   UNL     1      32.985 -19.675 -20.682  0.00  0.00    +0.000 C 
ATOM      6  C   UNL     1      34.182 -19.134 -21.153  0.00  0.00    +0.000 C 
ENDROOT
BRANCH   1   9
ATOM      7  O   UNL     1      33.868 -23.766 -19.307  0.00  0.00    -0.268 OA
ATOM      8  N   UNL     1      34.642 -22.562 -17.500  0.00  0.00    -0.193 N 
ATOM      9  C   UNL     1      34.226 -22.678 -18.819  0.00  0.00    +0.268 C 
ATOM     10  H   UNL     1      34.924 -21.698 -17.122  0.00  0.00    +0.183 HD
BRANCH   8  11
ATOM     11  O   UNL     1      34.641 -23.734 -16.730  0.00  0.00    -0.295 OA
ATOM     12  H   UNL     1      35.047 -24.455 -17.237  0.00  0.00    +0.241 HD
ENDBRANCH   8  11
ENDBRANCH   1   9
TORSDOF 2
ENDMDL
MODEL 5
REMARK VINA RESULT:      -6.4      8.864      9.724
REMARK  Name = 10313
REMARK  2 active torsions:
REMARK  status: ('A' for Active; 'I' for Inactive)
REMARK    1  A    between atoms: C_1  and  C_9
REMARK    2  A    between atoms: N_8  and  O_11
REMARK                            x       y       z     vdW  Elec       q    Type
REMARK                         _______ _______ _______ _____ _____    ______ ____
ROOT
ATOM      1  C   UNL     1      29.096 -23.586 -15.932  0.00  0.00    +0.055 C 
ATOM      2  C   UNL     1      30.273 -22.860 -16.111  0.00  0.00    +0.005 C 
ATOM      3  C   UNL     1      29.096 -24.728 -15.132  0.00  0.00    +0.005 C 
ATOM      4  C   UNL     1      31.451 -23.277 -15.491  0.00  0.00    +0.000 C 
ATOM      5  C   UNL     1      30.273 -25.145 -14.511  0.00  0.00    +0.000 C 
ATOM      6  C   UNL     1      31.451 -24.419 -14.690  0.00  0.00    +0.000 C 
ENDROOT
BRANCH   1   9
ATOM      7  O   UNL     1      27.593 -23.523 -17.735  0.00  0.00    -0.268 OA
ATOM      8  N   UNL     1      27.039 -22.305 -15.859  0.00  0.00    -0.193 N 
ATOM      9  C   UNL     1      27.868 -23.152 -16.580  0.00  0.00    +0.268 C 
ATOM     10  H   UNL     1      27.264 -22.015 -14.946  0.00  0.00    +0.183 HD
BRANCH   8  11
ATOM     11  O   UNL     1      25.863 -21.878 -16.494  0.00  0.00    -0.295 OA
ATOM     12  H   UNL     1      25.527 -21.082 -16.054  0.00  0.00    +0.241 HD
ENDBRANCH   8  11
ENDBRANCH   1   9
TORSDOF 2
ENDMDL
MODEL 6
REMARK VINA RESULT:      -6.2      2.941      4.321
REMARK  Name = 10313
REMARK  2 active torsions:
REMARK  status: ('A' for Active; 'I' for Inactive)
REMARK    1  A    between atoms: C_1  and  C_9
REMARK    2  A    between atoms: N_8  and  O_11
REMARK                            x       y       z     vdW  Elec       q    Type
REMARK                         _______ _______ _______ _____ _____    ______ ____
ROOT
ATOM      1  C   UNL     1      34.516 -18.938 -21.599  0.00  0.00    +0.055 C 
ATOM      2  C   UNL     1      34.637 -17.588 -21.270  0.00  0.00    +0.005 C 
ATOM      3  C   UNL     1      34.688 -19.352 -22.919  0.00  0.00    +0.005 C 
ATOM      4  C   UNL     1      34.927 -16.652 -22.263  0.00  0.00    +0.000 C 
ATOM      5  C   UNL     1      34.979 -18.417 -23.912  0.00  0.00    +0.000 C 
ATOM      6  C   UNL     1      35.098 -17.066 -23.583  0.00  0.00    +0.000 C 
ENDROOT
BRANCH   1   9
ATOM      7  O   UNL     1      35.125 -20.449 -19.907  0.00  0.00    -0.268 OA
ATOM      8  N   UNL     1      32.876 -20.224 -20.359  0.00  0.00    -0.193 N 
ATOM      9  C   UNL     1      34.213 -19.914 -20.564  0.00  0.00    +0.268 C 
ATOM     10  H   UNL     1      32.161 -19.797 -20.884  0.00  0.00    +0.183 HD
BRANCH   8  11
ATOM     11  O   UNL     1      32.591 -21.177 -19.370  0.00  0.00    -0.295 OA
ATOM     12  H   UNL     1      32.045 -20.772 -18.678  0.00  0.00    +0.241 HD
ENDBRANCH   8  11
ENDBRANCH   1   9
TORSDOF 2
ENDMDL
MODEL 7
REMARK VINA RESULT:      -6.2      2.863      3.797
REMARK  Name = 10313
REMARK  2 active torsions:
REMARK  status: ('A' for Active; 'I' for Inactive)
REMARK    1  A    between atoms: C_1  and  C_9
REMARK    2  A    between atoms: N_8  and  O_11
REMARK                            x       y       z     vdW  Elec       q    Type
REMARK                         _______ _______ _______ _____ _____    ______ ____
ROOT
ATOM      1  C   UNL     1      34.698 -17.113 -23.665  0.00  0.00    +0.055 C 
ATOM      2  C   UNL     1      34.653 -16.144 -22.663  0.00  0.00    +0.005 C 
ATOM      3  C   UNL     1      34.978 -18.440 -23.341  0.00  0.00    +0.005 C 
ATOM      4  C   UNL     1      34.890 -16.503 -21.335  0.00  0.00    +0.000 C 
ATOM      5  C   UNL     1      35.214 -18.799 -22.014  0.00  0.00    +0.000 C 
ATOM      6  C   UNL     1      35.170 -17.830 -21.011  0.00  0.00    +0.000 C 
ENDROOT
BRANCH   1   9
ATOM      7  O   UNL     1      34.913 -17.419 -25.984  0.00  0.00    -0.268 OA
ATOM      8  N   UNL     1      33.700 -15.593 -25.270  0.00  0.00    -0.193 N 
ATOM      9  C   UNL     1      34.452 -16.739 -25.049  0.00  0.00    +0.268 C 
ATOM     10  H   UNL     1      33.339 -15.061 -24.525  0.00  0.00    +0.183 HD
BRANCH   8  11
ATOM     11  O   UNL     1      33.478 -15.230 -26.606  0.00  0.00    -0.295 OA
ATOM     12  H   UNL     1      32.923 -14.435 -26.638  0.00  0.00    +0.241 HD
ENDBRANCH   8  11
ENDBRANCH   1   9
TORSDOF 2
ENDMDL
MODEL 8
REMARK VINA RESULT:      -6.2      3.028      4.012
REMARK  Name = 10313
REMARK  2 active torsions:
REMARK  status: ('A' for Active; 'I' for Inactive)
REMARK    1  A    between atoms: C_1  and  C_9
REMARK    2  A    between atoms: N_8  and  O_11
REMARK                            x       y       z     vdW  Elec       q    Type
REMARK                         _______ _______ _______ _____ _____    ______ ____
ROOT
ATOM      1  C   UNL     1      34.602 -16.695 -23.672  0.00  0.00    +0.055 C 
ATOM      2  C   UNL     1      34.991 -17.954 -23.214  0.00  0.00    +0.005 C 
ATOM      3  C   UNL     1      34.437 -15.645 -22.769  0.00  0.00    +0.005 C 
ATOM      4  C   UNL     1      35.213 -18.163 -21.852  0.00  0.00    +0.000 C 
ATOM      5  C   UNL     1      34.659 -15.854 -21.408  0.00  0.00    +0.000 C 
ATOM      6  C   UNL     1      35.048 -17.113 -20.949  0.00  0.00    +0.000 C 
ENDROOT
BRANCH   1   9
ATOM      7  O   UNL     1      34.861 -17.244 -25.940  0.00  0.00    -0.268 OA
ATOM      8  N   UNL     1      33.598 -15.381 -25.445  0.00  0.00    -0.193 N 
ATOM      9  C   UNL     1      34.371 -16.478 -25.091  0.00  0.00    +0.268 C 
ATOM     10  H   UNL     1      33.214 -14.779 -24.766  0.00  0.00    +0.183 HD
BRANCH   8  11
ATOM     11  O   UNL     1      33.390 -15.168 -26.815  0.00  0.00    -0.295 OA
ATOM     12  H   UNL     1      33.667 -14.268 -27.050  0.00  0.00    +0.241 HD
ENDBRANCH   8  11
ENDBRANCH   1   9
TORSDOF 2
ENDMDL
MODEL 9
REMARK VINA RESULT:      -6.1      2.757      4.282
REMARK  Name = 10313
REMARK  2 active torsions:
REMARK  status: ('A' for Active; 'I' for Inactive)
REMARK    1  A    between atoms: C_1  and  C_9
REMARK    2  A    between atoms: N_8  and  O_11
REMARK                            x       y       z     vdW  Elec       q    Type
REMARK                         _______ _______ _______ _____ _____    ______ ____
ROOT
ATOM      1  C   UNL     1      35.054 -18.518 -22.484  0.00  0.00    +0.055 C 
ATOM      2  C   UNL     1      34.741 -19.140 -23.692  0.00  0.00    +0.005 C 
ATOM      3  C   UNL     1      35.187 -17.131 -22.427  0.00  0.00    +0.005 C 
ATOM      4  C   UNL     1      34.564 -18.374 -24.845  0.00  0.00    +0.000 C 
ATOM      5  C   UNL     1      35.009 -16.366 -23.579  0.00  0.00    +0.000 C 
ATOM      6  C   UNL     1      34.697 -16.987 -24.788  0.00  0.00    +0.000 C 
ENDROOT
BRANCH   1   9
ATOM      7  O   UNL     1      34.309 -20.008 -20.828  0.00  0.00    -0.268 OA
ATOM      8  N   UNL     1      36.483 -19.259 -20.670  0.00  0.00    -0.193 N 
ATOM      9  C   UNL     1      35.239 -19.317 -21.283  0.00  0.00    +0.268 C 
ATOM     10  H   UNL     1      37.213 -18.709 -21.035  0.00  0.00    +0.183 HD
BRANCH   8  11
ATOM     11  O   UNL     1      36.651 -20.020 -19.504  0.00  0.00    -0.295 OA
ATOM     12  H   UNL     1      36.551 -19.448 -18.726  0.00  0.00    +0.241 HD
ENDBRANCH   8  11
ENDBRANCH   1   9
TORSDOF 2
ENDMDL
