MODEL 1
REMARK VINA RESULT:     -12.3      0.000      0.000
REMARK  Name = 447735
REMARK  4 active torsions:
REMARK  status: ('A' for Active; 'I' for Inactive)
REMARK    1  A    between atoms: N_2  and  C_13
REMARK    2  A    between atoms: C_3  and  C_18
REMARK    3  A    between atoms: C_7  and  C_15
REMARK    4  A    between atoms: C_26  and  C_30
REMARK                            x       y       z     vdW  Elec       q    Type
REMARK                         _______ _______ _______ _____ _____    ______ ____
ROOT
ATOM      1  O   UNL     1      32.684 -21.069 -20.435  0.00  0.00    -0.270 OA
ATOM      2  N   UNL     1      34.863 -20.212 -20.652  0.00  0.00    -0.280 N 
ATOM      3  C   UNL     1      33.850 -20.984 -20.067  0.00  0.00    +0.249 C 
ATOM      4  H   UNL     1      35.747 -20.264 -20.223  0.00  0.00    +0.155 HD
ENDROOT
BRANCH   2  13
ATOM      5  N   UNL     1      34.233 -14.923 -23.600  0.00  0.00    -0.274 NA
ATOM      6  C   UNL     1      34.370 -17.207 -22.732  0.00  0.00    +0.010 C 
ATOM      7  C   UNL     1      34.019 -15.766 -22.645  0.00  0.00    +0.053 C 
ATOM      8  C   UNL     1      34.601 -17.724 -24.013  0.00  0.00    -0.019 C 
ATOM      9  C   UNL     1      34.466 -16.811 -25.194  0.00  0.00    +0.053 C 
ATOM     10  C   UNL     1      34.919 -15.410 -24.802  0.00  0.00    +0.130 C 
ATOM     11  C   UNL     1      34.460 -18.031 -21.608  0.00  0.00    +0.016 C 
ATOM     12  C   UNL     1      34.897 -19.082 -24.166  0.00  0.00    -0.003 C 
ATOM     13  C   UNL     1      34.772 -19.382 -21.769  0.00  0.00    +0.051 C 
ATOM     14  C   UNL     1      34.986 -19.906 -23.044  0.00  0.00    +0.014 C 
BRANCH   7  15
ATOM     15  C   UNL     1      33.370 -15.251 -21.383  0.00  0.00    +0.040 C 
ATOM     16  C   UNL     1      34.456 -14.751 -20.448  0.00  0.00    +0.006 C 
ATOM     17  C   UNL     1      32.379 -14.158 -21.742  0.00  0.00    +0.006 C 
ENDBRANCH   7  15
ENDBRANCH   2  13
BRANCH   3  18
ATOM     18  C   UNL     1      34.251 -21.750 -18.857  0.00  0.00    +0.054 C 
ATOM     19  C   UNL     1      35.941 -22.356 -17.257  0.00  0.00    +0.000 C 
ATOM     20  C   UNL     1      34.998 -23.179 -16.598  0.00  0.00    +0.000 C 
ATOM     21  C   UNL     1      35.547 -21.638 -18.399  0.00  0.00    +0.005 C 
ATOM     22  C   UNL     1      33.315 -22.543 -18.235  0.00  0.00    +0.005 C 
ATOM     23  C   UNL     1      33.688 -23.263 -17.099  0.00  0.00    +0.000 C 
ATOM     24  C   UNL     1      35.393 -23.897 -15.457  0.00  0.00    +0.003 C 
ATOM     25  C   UNL     1      37.250 -22.273 -16.755  0.00  0.00    +0.000 C 
ATOM     26  C   UNL     1      36.698 -23.803 -14.972  0.00  0.00    +0.031 C 
ATOM     27  C   UNL     1      37.625 -22.992 -15.620  0.00  0.00    +0.003 C 
BRANCH  26  30
ATOM     28  N   UNL     1      36.340 -25.634 -13.334  0.00  0.00    -0.343 N 
ATOM     29  N   UNL     1      38.176 -24.203 -13.120  0.00  0.00    -0.285 NA
ATOM     30  C   UNL     1      37.090 -24.551 -13.789  0.00  0.00    +0.117 C 
ATOM     31  H   UNL     1      36.625 -26.126 -12.530  0.00  0.00    +0.144 HD
ATOM     32  H   UNL     1      35.526 -25.906 -13.816  0.00  0.00    +0.144 HD
ATOM     33  H   UNL     1      38.443 -24.708 -12.318  0.00  0.00    +0.188 HD
ENDBRANCH  26  30
ENDBRANCH   3  18
TORSDOF 4
ENDMDL
MODEL 2
REMARK VINA RESULT:     -11.9      0.780      1.617
REMARK  Name = 447735
REMARK  4 active torsions:
REMARK  status: ('A' for Active; 'I' for Inactive)
REMARK    1  A    between atoms: N_2  and  C_13
REMARK    2  A    between atoms: C_3  and  C_18
REMARK    3  A    between atoms: C_7  and  C_15
REMARK    4  A    between atoms: C_26  and  C_30
REMARK                            x       y       z     vdW  Elec       q    Type
REMARK                         _______ _______ _______ _____ _____    ______ ____
ROOT
ATOM      1  O   UNL     1      33.403 -21.425 -20.113  0.00  0.00    -0.270 OA
ATOM      2  N   UNL     1      35.373 -20.171 -20.393  0.00  0.00    -0.280 N 
ATOM      3  C   UNL     1      34.533 -21.103 -19.766  0.00  0.00    +0.249 C 
ATOM      4  H   UNL     1      36.254 -20.036 -19.976  0.00  0.00    +0.155 HD
ENDROOT
BRANCH   2  13
ATOM      5  N   UNL     1      34.082 -15.115 -23.528  0.00  0.00    -0.274 NA
ATOM      6  C   UNL     1      34.465 -17.331 -22.562  0.00  0.00    +0.010 C 
ATOM      7  C   UNL     1      34.023 -15.914 -22.514  0.00  0.00    +0.053 C 
ATOM      8  C   UNL     1      34.604 -17.906 -23.832  0.00  0.00    -0.019 C 
ATOM      9  C   UNL     1      34.288 -17.074 -25.039  0.00  0.00    +0.053 C 
ATOM     10  C   UNL     1      34.678 -15.626 -24.767  0.00  0.00    +0.130 C 
ATOM     11  C   UNL     1      34.724 -18.081 -21.413  0.00  0.00    +0.016 C 
ATOM     12  C   UNL     1      34.979 -19.248 -23.944  0.00  0.00    -0.003 C 
ATOM     13  C   UNL     1      35.113 -19.416 -21.536  0.00  0.00    +0.051 C 
ATOM     14  C   UNL     1      35.236 -19.998 -22.797  0.00  0.00    +0.014 C 
BRANCH   7  15
ATOM     15  C   UNL     1      33.467 -15.370 -21.221  0.00  0.00    +0.040 C 
ATOM     16  C   UNL     1      34.611 -14.794 -20.405  0.00  0.00    +0.006 C 
ATOM     17  C   UNL     1      32.408 -14.327 -21.532  0.00  0.00    +0.006 C 
ENDBRANCH   7  15
ENDBRANCH   2  13
BRANCH   3  18
ATOM     18  C   UNL     1      35.086 -21.733 -18.537  0.00  0.00    +0.054 C 
ATOM     19  C   UNL     1      34.756 -23.091 -16.581  0.00  0.00    +0.000 C 
ATOM     20  C   UNL     1      36.118 -22.909 -16.245  0.00  0.00    +0.000 C 
ATOM     21  C   UNL     1      34.249 -22.490 -17.744  0.00  0.00    +0.005 C 
ATOM     22  C   UNL     1      36.414 -21.540 -18.234  0.00  0.00    +0.005 C 
ATOM     23  C   UNL     1      36.935 -22.130 -17.083  0.00  0.00    +0.000 C 
ATOM     24  C   UNL     1      36.625 -23.510 -15.082  0.00  0.00    +0.003 C 
ATOM     25  C   UNL     1      33.941 -23.869 -15.743  0.00  0.00    +0.000 C 
ATOM     26  C   UNL     1      35.801 -24.281 -14.261  0.00  0.00    +0.031 C 
ATOM     27  C   UNL     1      34.460 -24.459 -14.591  0.00  0.00    +0.003 C 
BRANCH  26  30
ATOM     28  N   UNL     1      37.674 -25.294 -12.986  0.00  0.00    -0.343 N 
ATOM     29  N   UNL     1      35.559 -25.095 -12.013  0.00  0.00    -0.285 NA
ATOM     30  C   UNL     1      36.341 -24.897 -13.060  0.00  0.00    +0.117 C 
ATOM     31  H   UNL     1      38.019 -25.710 -12.162  0.00  0.00    +0.144 HD
ATOM     32  H   UNL     1      38.272 -25.159 -13.756  0.00  0.00    +0.144 HD
ATOM     33  H   UNL     1      35.922 -25.513 -11.198  0.00  0.00    +0.188 HD
ENDBRANCH  26  30
ENDBRANCH   3  18
TORSDOF 4
ENDMDL
MODEL 3
REMARK VINA RESULT:     -11.3      1.652      2.960
REMARK  Name = 447735
REMARK  4 active torsions:
REMARK  status: ('A' for Active; 'I' for Inactive)
REMARK    1  A    between atoms: N_2  and  C_13
REMARK    2  A    between atoms: C_3  and  C_18
REMARK    3  A    between atoms: C_7  and  C_15
REMARK    4  A    between atoms: C_26  and  C_30
REMARK                            x       y       z     vdW  Elec       q    Type
REMARK                         _______ _______ _______ _____ _____    ______ ____
ROOT
ATOM      1  O   UNL     1      34.913 -19.996 -23.031  0.00  0.00    -0.270 OA
ATOM      2  N   UNL     1      34.636 -18.059 -21.726  0.00  0.00    -0.280 N 
ATOM      3  C   UNL     1      34.891 -19.419 -21.949  0.00  0.00    +0.249 C 
ATOM      4  H   UNL     1      34.659 -17.765 -20.787  0.00  0.00    +0.155 HD
ENDROOT
BRANCH   2  13
ATOM      5  N   UNL     1      32.850 -12.568 -23.654  0.00  0.00    -0.274 NA
ATOM      6  C   UNL     1      33.486 -14.891 -23.223  0.00  0.00    +0.010 C 
ATOM      7  C   UNL     1      32.832 -13.603 -22.880  0.00  0.00    +0.053 C 
ATOM      8  C   UNL     1      33.812 -15.095 -24.570  0.00  0.00    -0.019 C 
ATOM      9  C   UNL     1      33.472 -14.026 -25.564  0.00  0.00    +0.053 C 
ATOM     10  C   UNL     1      33.614 -12.661 -24.903  0.00  0.00    +0.130 C 
ATOM     11  C   UNL     1      33.762 -15.875 -22.270  0.00  0.00    +0.016 C 
ATOM     12  C   UNL     1      34.393 -16.305 -24.964  0.00  0.00    -0.003 C 
ATOM     13  C   UNL     1      34.358 -17.072 -22.671  0.00  0.00    +0.051 C 
ATOM     14  C   UNL     1      34.669 -17.287 -24.014  0.00  0.00    +0.014 C 
BRANCH   7  15
ATOM     15  C   UNL     1      32.098 -13.487 -21.566  0.00  0.00    +0.040 C 
ATOM     16  C   UNL     1      33.035 -13.907 -20.448  0.00  0.00    +0.006 C 
ATOM     17  C   UNL     1      31.607 -12.061 -21.393  0.00  0.00    +0.006 C 
ENDBRANCH   7  15
ENDBRANCH   2  13
BRANCH   3  18
ATOM     18  C   UNL     1      35.130 -20.232 -20.727  0.00  0.00    +0.054 C 
ATOM     19  C   UNL     1      34.275 -21.660 -18.991  0.00  0.00    +0.000 C 
ATOM     20  C   UNL     1      35.577 -21.750 -18.447  0.00  0.00    +0.000 C 
ATOM     21  C   UNL     1      34.065 -20.888 -20.146  0.00  0.00    +0.005 C 
ATOM     22  C   UNL     1      36.406 -20.302 -20.218  0.00  0.00    +0.005 C 
ATOM     23  C   UNL     1      36.633 -21.065 -19.071  0.00  0.00    +0.000 C 
ATOM     24  C   UNL     1      35.787 -22.521 -17.292  0.00  0.00    +0.003 C 
ATOM     25  C   UNL     1      33.221 -22.345 -18.366  0.00  0.00    +0.000 C 
ATOM     26  C   UNL     1      34.727 -23.195 -16.684  0.00  0.00    +0.031 C 
ATOM     27  C   UNL     1      33.446 -23.107 -17.220  0.00  0.00    +0.003 C 
BRANCH  26  30
ATOM     28  N   UNL     1      34.492 -23.582 -14.243  0.00  0.00    -0.343 N 
ATOM     29  N   UNL     1      35.635 -25.124 -15.575  0.00  0.00    -0.285 NA
ATOM     30  C   UNL     1      34.961 -23.991 -15.489  0.00  0.00    +0.117 C 
ATOM     31  H   UNL     1      34.662 -24.137 -13.447  0.00  0.00    +0.144 HD
ATOM     32  H   UNL     1      33.990 -22.739 -14.157  0.00  0.00    +0.144 HD
ATOM     33  H   UNL     1      35.795 -25.665 -14.767  0.00  0.00    +0.188 HD
ENDBRANCH  26  30
ENDBRANCH   3  18
TORSDOF 4
ENDMDL
MODEL 4
REMARK VINA RESULT:     -11.0      6.639     11.153
REMARK  Name = 447735
REMARK  4 active torsions:
REMARK  status: ('A' for Active; 'I' for Inactive)
REMARK    1  A    between atoms: N_2  and  C_13
REMARK    2  A    between atoms: C_3  and  C_18
REMARK    3  A    between atoms: C_7  and  C_15
REMARK    4  A    between atoms: C_26  and  C_30
REMARK                            x       y       z     vdW  Elec       q    Type
REMARK                         _______ _______ _______ _____ _____    ______ ____
ROOT
ATOM      1  O   UNL     1      30.703 -10.652 -22.234  0.00  0.00    -0.270 OA
ATOM      2  N   UNL     1      32.720  -9.590 -22.810  0.00  0.00    -0.280 N 
ATOM      3  C   UNL     1      31.891 -10.686 -22.535  0.00  0.00    +0.249 C 
ATOM      4  H   UNL     1      33.654  -9.803 -23.036  0.00  0.00    +0.155 HD
ENDROOT
BRANCH   2  13
ATOM      5  N   UNL     1      31.786  -4.095 -25.259  0.00  0.00    -0.274 NA
ATOM      6  C   UNL     1      32.205  -6.122 -23.952  0.00  0.00    +0.010 C 
ATOM      7  C   UNL     1      32.370  -5.242 -25.137  0.00  0.00    +0.053 C 
ATOM      8  C   UNL     1      31.697  -5.528 -22.790  0.00  0.00    -0.019 C 
ATOM      9  C   UNL     1      31.373  -4.064 -22.811  0.00  0.00    +0.053 C 
ATOM     10  C   UNL     1      30.864  -3.682 -24.195  0.00  0.00    +0.130 C 
ATOM     11  C   UNL     1      32.544  -7.477 -23.965  0.00  0.00    +0.016 C 
ATOM     12  C   UNL     1      31.555  -6.294 -21.629  0.00  0.00    -0.003 C 
ATOM     13  C   UNL     1      32.384  -8.237 -22.805  0.00  0.00    +0.051 C 
ATOM     14  C   UNL     1      31.894  -7.646 -21.640  0.00  0.00    +0.014 C 
BRANCH   7  15
ATOM     15  C   UNL     1      33.270  -5.696 -26.260  0.00  0.00    +0.040 C 
ATOM     16  C   UNL     1      33.227  -4.657 -27.367  0.00  0.00    +0.006 C 
ATOM     17  C   UNL     1      34.676  -5.896 -25.723  0.00  0.00    +0.006 C 
ENDBRANCH   7  15
ENDBRANCH   2  13
BRANCH   3  18
ATOM     18  C   UNL     1      32.551 -12.016 -22.594  0.00  0.00    +0.054 C 
ATOM     19  C   UNL     1      32.933 -14.183 -21.623  0.00  0.00    +0.000 C 
ATOM     20  C   UNL     1      33.784 -14.501 -22.707  0.00  0.00    +0.000 C 
ATOM     21  C   UNL     1      32.316 -12.922 -21.581  0.00  0.00    +0.005 C 
ATOM     22  C   UNL     1      33.374 -12.300 -23.659  0.00  0.00    +0.005 C 
ATOM     23  C   UNL     1      33.995 -13.548 -23.719  0.00  0.00    +0.000 C 
ATOM     24  C   UNL     1      34.401 -15.762 -22.750  0.00  0.00    +0.003 C 
ATOM     25  C   UNL     1      32.723 -15.136 -20.613  0.00  0.00    +0.000 C 
ATOM     26  C   UNL     1      34.181 -16.697 -21.737  0.00  0.00    +0.031 C 
ATOM     27  C   UNL     1      33.343 -16.384 -20.671  0.00  0.00    +0.003 C 
BRANCH  26  30
ATOM     28  N   UNL     1      34.549 -18.899 -22.822  0.00  0.00    -0.343 N 
ATOM     29  N   UNL     1      35.692 -18.346 -20.860  0.00  0.00    -0.285 NA
ATOM     30  C   UNL     1      34.826 -17.998 -21.796  0.00  0.00    +0.117 C 
ATOM     31  H   UNL     1      34.998 -19.776 -22.841  0.00  0.00    +0.144 HD
ATOM     32  H   UNL     1      33.905 -18.660 -23.527  0.00  0.00    +0.144 HD
ATOM     33  H   UNL     1      36.130 -19.228 -20.897  0.00  0.00    +0.188 HD
ENDBRANCH  26  30
ENDBRANCH   3  18
TORSDOF 4
ENDMDL
MODEL 5
REMARK VINA RESULT:     -10.9      6.599     11.219
REMARK  Name = 447735
REMARK  4 active torsions:
REMARK  status: ('A' for Active; 'I' for Inactive)
REMARK    1  A    between atoms: N_2  and  C_13
REMARK    2  A    between atoms: C_3  and  C_18
REMARK    3  A    between atoms: C_7  and  C_15
REMARK    4  A    between atoms: C_26  and  C_30
REMARK                            x       y       z     vdW  Elec       q    Type
REMARK                         _______ _______ _______ _____ _____    ______ ____
ROOT
ATOM      1  O   UNL     1      30.431 -10.523 -22.498  0.00  0.00    -0.270 OA
ATOM      2  N   UNL     1      32.517  -9.491 -22.165  0.00  0.00    -0.280 N 
ATOM      3  C   UNL     1      31.633 -10.574 -22.262  0.00  0.00    +0.249 C 
ATOM      4  H   UNL     1      33.455  -9.716 -21.969  0.00  0.00    +0.155 HD
ENDROOT
BRANCH   2  13
ATOM      5  N   UNL     1      31.930  -4.247 -25.202  0.00  0.00    -0.274 NA
ATOM      6  C   UNL     1      32.197  -6.142 -23.677  0.00  0.00    +0.010 C 
ATOM      7  C   UNL     1      32.463  -5.392 -24.931  0.00  0.00    +0.053 C 
ATOM      8  C   UNL     1      31.645  -5.417 -22.613  0.00  0.00    -0.019 C 
ATOM      9  C   UNL     1      31.378  -3.954 -22.800  0.00  0.00    +0.053 C 
ATOM     10  C   UNL     1      30.964  -3.698 -24.243  0.00  0.00    +0.130 C 
ATOM     11  C   UNL     1      32.486  -7.501 -23.534  0.00  0.00    +0.016 C 
ATOM     12  C   UNL     1      31.409  -6.056 -21.392  0.00  0.00    -0.003 C 
ATOM     13  C   UNL     1      32.231  -8.134 -22.316  0.00  0.00    +0.051 C 
ATOM     14  C   UNL     1      31.698  -7.413 -21.248  0.00  0.00    +0.014 C 
BRANCH   7  15
ATOM     15  C   UNL     1      33.409  -5.986 -25.946  0.00  0.00    +0.040 C 
ATOM     16  C   UNL     1      33.605  -4.984 -27.070  0.00  0.00    +0.006 C 
ATOM     17  C   UNL     1      34.718  -6.338 -25.263  0.00  0.00    +0.006 C 
ENDBRANCH   7  15
ENDBRANCH   2  13
BRANCH   3  18
ATOM     18  C   UNL     1      32.235 -11.912 -22.023  0.00  0.00    +0.054 C 
ATOM     19  C   UNL     1      33.524 -13.775 -22.829  0.00  0.00    +0.000 C 
ATOM     20  C   UNL     1      33.361 -14.409 -21.574  0.00  0.00    +0.000 C 
ATOM     21  C   UNL     1      32.949 -12.511 -23.039  0.00  0.00    +0.005 C 
ATOM     22  C   UNL     1      32.061 -12.506 -20.794  0.00  0.00    +0.005 C 
ATOM     23  C   UNL     1      32.627 -13.762 -20.566  0.00  0.00    +0.000 C 
ATOM     24  C   UNL     1      33.936 -15.673 -21.364  0.00  0.00    +0.003 C 
ATOM     25  C   UNL     1      34.258 -14.423 -23.835  0.00  0.00    +0.000 C 
ATOM     26  C   UNL     1      34.663 -16.302 -22.375  0.00  0.00    +0.031 C 
ATOM     27  C   UNL     1      34.823 -15.678 -23.609  0.00  0.00    +0.003 C 
BRANCH  26  30
ATOM     28  N   UNL     1      35.114 -18.260 -20.917  0.00  0.00    -0.343 N 
ATOM     29  N   UNL     1      35.941 -18.203 -23.102  0.00  0.00    -0.285 NA
ATOM     30  C   UNL     1      35.253 -17.610 -22.141  0.00  0.00    +0.117 C 
ATOM     31  H   UNL     1      35.522 -19.146 -20.780  0.00  0.00    +0.144 HD
ATOM     32  H   UNL     1      34.608 -17.834 -20.188  0.00  0.00    +0.144 HD
ATOM     33  H   UNL     1      36.342 -19.089 -22.945  0.00  0.00    +0.188 HD
ENDBRANCH  26  30
ENDBRANCH   3  18
TORSDOF 4
ENDMDL
MODEL 6
REMARK VINA RESULT:     -10.9      3.232      5.873
REMARK  Name = 447735
REMARK  4 active torsions:
REMARK  status: ('A' for Active; 'I' for Inactive)
REMARK    1  A    between atoms: N_2  and  C_13
REMARK    2  A    between atoms: C_3  and  C_18
REMARK    3  A    between atoms: C_7  and  C_15
REMARK    4  A    between atoms: C_26  and  C_30
REMARK                            x       y       z     vdW  Elec       q    Type
REMARK                         _______ _______ _______ _____ _____    ______ ____
ROOT
ATOM      1  O   UNL     1      35.660 -16.111 -23.716  0.00  0.00    -0.270 OA
ATOM      2  N   UNL     1      34.009 -15.285 -22.260  0.00  0.00    -0.280 N 
ATOM      3  C   UNL     1      34.923 -16.230 -22.743  0.00  0.00    +0.249 C 
ATOM      4  H   UNL     1      33.497 -15.549 -21.462  0.00  0.00    +0.155 HD
ENDROOT
BRANCH   2  13
ATOM      5  N   UNL     1      32.330  -9.439 -21.990  0.00  0.00    -0.274 NA
ATOM      6  C   UNL     1      32.913 -11.769 -22.459  0.00  0.00    +0.010 C 
ATOM      7  C   UNL     1      32.300 -10.685 -21.650  0.00  0.00    +0.053 C 
ATOM      8  C   UNL     1      33.207 -11.470 -23.796  0.00  0.00    -0.019 C 
ATOM      9  C   UNL     1      32.875 -10.105 -24.318  0.00  0.00    +0.053 C 
ATOM     10  C   UNL     1      33.067  -9.081 -23.207  0.00  0.00    +0.130 C 
ATOM     11  C   UNL     1      33.182 -13.038 -21.941  0.00  0.00    +0.016 C 
ATOM     12  C   UNL     1      33.748 -12.461 -24.621  0.00  0.00    -0.003 C 
ATOM     13  C   UNL     1      33.737 -14.015 -22.769  0.00  0.00    +0.051 C 
ATOM     14  C   UNL     1      34.016 -13.728 -24.105  0.00  0.00    +0.014 C 
BRANCH   7  15
ATOM     15  C   UNL     1      31.595 -11.047 -20.365  0.00  0.00    +0.040 C 
ATOM     16  C   UNL     1      31.830  -9.939 -19.354  0.00  0.00    +0.006 C 
ATOM     17  C   UNL     1      30.118 -11.256 -20.647  0.00  0.00    +0.006 C 
ENDBRANCH   7  15
ENDBRANCH   2  13
BRANCH   3  18
ATOM     18  C   UNL     1      34.967 -17.515 -21.996  0.00  0.00    +0.054 C 
ATOM     19  C   UNL     1      33.808 -19.288 -20.859  0.00  0.00    +0.000 C 
ATOM     20  C   UNL     1      35.051 -19.914 -20.602  0.00  0.00    +0.000 C 
ATOM     21  C   UNL     1      33.782 -18.075 -21.567  0.00  0.00    +0.005 C 
ATOM     22  C   UNL     1      36.189 -18.101 -21.759  0.00  0.00    +0.005 C 
ATOM     23  C   UNL     1      36.233 -19.307 -21.058  0.00  0.00    +0.000 C 
ATOM     24  C   UNL     1      35.076 -21.127 -19.894  0.00  0.00    +0.003 C 
ATOM     25  C   UNL     1      32.627 -19.895 -20.402  0.00  0.00    +0.000 C 
ATOM     26  C   UNL     1      33.892 -21.715 -19.447  0.00  0.00    +0.031 C 
ATOM     27  C   UNL     1      32.670 -21.100 -19.701  0.00  0.00    +0.003 C 
BRANCH  26  30
ATOM     28  N   UNL     1      34.095 -23.001 -17.333  0.00  0.00    -0.343 N 
ATOM     29  N   UNL     1      33.825 -24.116 -19.370  0.00  0.00    -0.285 NA
ATOM     30  C   UNL     1      33.935 -22.972 -18.717  0.00  0.00    +0.117 C 
ATOM     31  H   UNL     1      34.121 -23.864 -16.859  0.00  0.00    +0.144 HD
ATOM     32  H   UNL     1      34.181 -22.160 -16.830  0.00  0.00    +0.144 HD
ATOM     33  H   UNL     1      33.854 -24.969 -18.877  0.00  0.00    +0.188 HD
ENDBRANCH  26  30
ENDBRANCH   3  18
TORSDOF 4
ENDMDL
MODEL 7
REMARK VINA RESULT:     -10.4      2.385     10.448
REMARK  Name = 447735
REMARK  4 active torsions:
REMARK  status: ('A' for Active; 'I' for Inactive)
REMARK    1  A    between atoms: N_2  and  C_13
REMARK    2  A    between atoms: C_3  and  C_18
REMARK    3  A    between atoms: C_7  and  C_15
REMARK    4  A    between atoms: C_26  and  C_30
REMARK                            x       y       z     vdW  Elec       q    Type
REMARK                         _______ _______ _______ _____ _____    ______ ____
ROOT
ATOM      1  O   UNL     1      37.130 -22.392 -17.521  0.00  0.00    -0.270 OA
ATOM      2  N   UNL     1      34.912 -22.410 -16.738  0.00  0.00    -0.280 N 
ATOM      3  C   UNL     1      35.939 -22.127 -17.649  0.00  0.00    +0.249 C 
ATOM      4  H   UNL     1      34.009 -22.125 -17.005  0.00  0.00    +0.155 HD
ENDROOT
BRANCH   2  13
ATOM      5  N   UNL     1      37.770 -25.275 -12.190  0.00  0.00    -0.274 NA
ATOM      6  C   UNL     1      36.312 -24.282 -13.886  0.00  0.00    +0.010 C 
ATOM      7  C   UNL     1      37.548 -24.962 -13.424  0.00  0.00    +0.053 C 
ATOM      8  C   UNL     1      35.212 -24.315 -13.018  0.00  0.00    -0.019 C 
ATOM      9  C   UNL     1      35.347 -25.034 -11.710  0.00  0.00    +0.053 C 
ATOM     10  C   UNL     1      36.771 -24.875 -11.193  0.00  0.00    +0.130 C 
ATOM     11  C   UNL     1      36.218 -23.645 -15.125  0.00  0.00    +0.016 C 
ATOM     12  C   UNL     1      34.005 -23.727 -13.412  0.00  0.00    -0.003 C 
ATOM     13  C   UNL     1      35.014 -23.048 -15.502  0.00  0.00    +0.051 C 
ATOM     14  C   UNL     1      33.910 -23.092 -14.650  0.00  0.00    +0.014 C 
BRANCH   7  15
ATOM     15  C   UNL     1      38.605 -25.318 -14.441  0.00  0.00    +0.040 C 
ATOM     16  C   UNL     1      39.953 -25.367 -13.743  0.00  0.00    +0.006 C 
ATOM     17  C   UNL     1      38.250 -26.645 -15.086  0.00  0.00    +0.006 C 
ENDBRANCH   7  15
ENDBRANCH   2  13
BRANCH   3  18
ATOM     18  C   UNL     1      35.519 -21.407 -18.880  0.00  0.00    +0.054 C 
ATOM     19  C   UNL     1      36.051 -19.908 -20.684  0.00  0.00    +0.000 C 
ATOM     20  C   UNL     1      34.734 -20.063 -21.178  0.00  0.00    +0.000 C 
ATOM     21  C   UNL     1      36.433 -20.596 -19.520  0.00  0.00    +0.005 C 
ATOM     22  C   UNL     1      34.233 -21.574 -19.339  0.00  0.00    +0.005 C 
ATOM     23  C   UNL     1      33.836 -20.900 -20.494  0.00  0.00    +0.000 C 
ATOM     24  C   UNL     1      34.352 -19.375 -22.342  0.00  0.00    +0.003 C 
ATOM     25  C   UNL     1      36.947 -19.071 -21.368  0.00  0.00    +0.000 C 
ATOM     26  C   UNL     1      35.256 -18.548 -23.009  0.00  0.00    +0.031 C 
ATOM     27  C   UNL     1      36.551 -18.396 -22.523  0.00  0.00    +0.003 C 
BRANCH  26  30
ATOM     28  N   UNL     1      35.208 -16.517 -24.436  0.00  0.00    -0.343 N 
ATOM     29  N   UNL     1      34.110 -18.464 -25.120  0.00  0.00    -0.285 NA
ATOM     30  C   UNL     1      34.846 -17.844 -24.213  0.00  0.00    +0.117 C 
ATOM     31  H   UNL     1      34.919 -16.060 -25.259  0.00  0.00    +0.144 HD
ATOM     32  H   UNL     1      35.753 -16.037 -23.772  0.00  0.00    +0.144 HD
ATOM     33  H   UNL     1      33.830 -17.988 -25.936  0.00  0.00    +0.188 HD
ENDBRANCH  26  30
ENDBRANCH   3  18
TORSDOF 4
ENDMDL
MODEL 8
REMARK VINA RESULT:     -10.4      5.933     13.246
REMARK  Name = 447735
REMARK  4 active torsions:
REMARK  status: ('A' for Active; 'I' for Inactive)
REMARK    1  A    between atoms: N_2  and  C_13
REMARK    2  A    between atoms: C_3  and  C_18
REMARK    3  A    between atoms: C_7  and  C_15
REMARK    4  A    between atoms: C_26  and  C_30
REMARK                            x       y       z     vdW  Elec       q    Type
REMARK                         _______ _______ _______ _____ _____    ______ ____
ROOT
ATOM      1  O   UNL     1      31.731 -12.373 -21.888  0.00  0.00    -0.270 OA
ATOM      2  N   UNL     1      33.046 -11.989 -23.799  0.00  0.00    -0.280 N 
ATOM      3  C   UNL     1      32.275 -11.620 -22.688  0.00  0.00    +0.249 C 
ATOM      4  H   UNL     1      33.409 -11.249 -24.337  0.00  0.00    +0.155 HD
ENDROOT
BRANCH   2  13
ATOM      5  N   UNL     1      34.471 -17.872 -23.149  0.00  0.00    -0.274 NA
ATOM      6  C   UNL     1      34.052 -15.537 -23.748  0.00  0.00    +0.010 C 
ATOM      7  C   UNL     1      34.479 -16.621 -22.827  0.00  0.00    +0.053 C 
ATOM      8  C   UNL     1      33.988 -15.855 -25.111  0.00  0.00    -0.019 C 
ATOM      9  C   UNL     1      34.365 -17.240 -25.546  0.00  0.00    +0.053 C 
ATOM     10  C   UNL     1      33.949 -18.235 -24.471  0.00  0.00    +0.130 C 
ATOM     11  C   UNL     1      33.735 -14.251 -23.306  0.00  0.00    +0.016 C 
ATOM     12  C   UNL     1      33.631 -14.867 -26.034  0.00  0.00    -0.003 C 
ATOM     13  C   UNL     1      33.364 -13.276 -24.233  0.00  0.00    +0.051 C 
ATOM     14  C   UNL     1      33.316 -13.583 -25.593  0.00  0.00    +0.014 C 
BRANCH   7  15
ATOM     15  C   UNL     1      34.958 -16.252 -21.444  0.00  0.00    +0.040 C 
ATOM     16  C   UNL     1      33.800 -15.637 -20.678  0.00  0.00    +0.006 C 
ATOM     17  C   UNL     1      35.500 -17.492 -20.756  0.00  0.00    +0.006 C 
ENDBRANCH   7  15
ENDBRANCH   2  13
BRANCH   3  18
ATOM     18  C   UNL     1      32.090 -10.157 -22.499  0.00  0.00    +0.054 C 
ATOM     19  C   UNL     1      31.617  -7.993 -23.434  0.00  0.00    +0.000 C 
ATOM     20  C   UNL     1      31.743  -7.426 -22.143  0.00  0.00    +0.000 C 
ATOM     21  C   UNL     1      31.794  -9.377 -23.597  0.00  0.00    +0.005 C 
ATOM     22  C   UNL     1      32.218  -9.632 -21.234  0.00  0.00    +0.005 C 
ATOM     23  C   UNL     1      32.044  -8.260 -21.052  0.00  0.00    +0.000 C 
ATOM     24  C   UNL     1      31.566  -6.043 -21.980  0.00  0.00    +0.003 C 
ATOM     25  C   UNL     1      31.316  -7.159 -24.522  0.00  0.00    +0.000 C 
ATOM     26  C   UNL     1      31.267  -5.229 -23.074  0.00  0.00    +0.031 C 
ATOM     27  C   UNL     1      31.143  -5.787 -24.343  0.00  0.00    +0.003 C 
BRANCH  26  30
ATOM     28  N   UNL     1      31.872  -2.873 -23.571  0.00  0.00    -0.343 N 
ATOM     29  N   UNL     1      30.161  -3.356 -22.054  0.00  0.00    -0.285 NA
ATOM     30  C   UNL     1      31.085  -3.799 -22.888  0.00  0.00    +0.117 C 
ATOM     31  H   UNL     1      31.731  -1.909 -23.430  0.00  0.00    +0.144 HD
ATOM     32  H   UNL     1      32.568  -3.183 -24.195  0.00  0.00    +0.144 HD
ATOM     33  H   UNL     1      30.036  -2.387 -21.926  0.00  0.00    +0.188 HD
ENDBRANCH  26  30
ENDBRANCH   3  18
TORSDOF 4
ENDMDL
MODEL 9
REMARK VINA RESULT:      -9.8      5.630     12.835
REMARK  Name = 447735
REMARK  4 active torsions:
REMARK  status: ('A' for Active; 'I' for Inactive)
REMARK    1  A    between atoms: N_2  and  C_13
REMARK    2  A    between atoms: C_3  and  C_18
REMARK    3  A    between atoms: C_7  and  C_15
REMARK    4  A    between atoms: C_26  and  C_30
REMARK                            x       y       z     vdW  Elec       q    Type
REMARK                         _______ _______ _______ _____ _____    ______ ____
ROOT
ATOM      1  O   UNL     1      34.004 -12.695 -24.191  0.00  0.00    -0.270 OA
ATOM      2  N   UNL     1      33.331 -13.097 -21.974  0.00  0.00    -0.280 N 
ATOM      3  C   UNL     1      33.426 -12.361 -23.163  0.00  0.00    +0.249 C 
ATOM      4  H   UNL     1      32.824 -12.674 -21.244  0.00  0.00    +0.155 HD
ENDROOT
BRANCH   2  13
ATOM      5  N   UNL     1      35.587 -18.584 -23.338  0.00  0.00    -0.274 NA
ATOM      6  C   UNL     1      34.600 -16.526 -22.457  0.00  0.00    +0.010 C 
ATOM      7  C   UNL     1      34.821 -17.557 -23.503  0.00  0.00    +0.053 C 
ATOM      8  C   UNL     1      34.942 -16.875 -21.144  0.00  0.00    -0.019 C 
ATOM      9  C   UNL     1      35.485 -18.247 -20.881  0.00  0.00    +0.053 C 
ATOM     10  C   UNL     1      36.322 -18.694 -22.073  0.00  0.00    +0.130 C 
ATOM     11  C   UNL     1      34.066 -15.266 -22.739  0.00  0.00    +0.016 C 
ATOM     12  C   UNL     1      34.720 -15.962 -20.108  0.00  0.00    -0.003 C 
ATOM     13  C   UNL     1      33.863 -14.357 -21.700  0.00  0.00    +0.051 C 
ATOM     14  C   UNL     1      34.186 -14.705 -20.389  0.00  0.00    +0.014 C 
BRANCH   7  15
ATOM     15  C   UNL     1      34.114 -17.411 -24.828  0.00  0.00    +0.040 C 
ATOM     16  C   UNL     1      34.910 -16.457 -25.701  0.00  0.00    +0.006 C 
ATOM     17  C   UNL     1      33.967 -18.780 -25.469  0.00  0.00    +0.006 C 
ENDBRANCH   7  15
ENDBRANCH   2  13
BRANCH   3  18
ATOM     18  C   UNL     1      32.771 -11.026 -23.140  0.00  0.00    +0.054 C 
ATOM     19  C   UNL     1      32.848  -8.675 -23.636  0.00  0.00    +0.000 C 
ATOM     20  C   UNL     1      31.546  -8.536 -23.099  0.00  0.00    +0.000 C 
ATOM     21  C   UNL     1      33.453  -9.942 -23.651  0.00  0.00    +0.005 C 
ATOM     22  C   UNL     1      31.505 -10.919 -22.612  0.00  0.00    +0.005 C 
ATOM     23  C   UNL     1      30.887  -9.668 -22.590  0.00  0.00    +0.000 C 
ATOM     24  C   UNL     1      30.940  -7.269 -23.084  0.00  0.00    +0.003 C 
ATOM     25  C   UNL     1      33.504  -7.542 -24.144  0.00  0.00    +0.000 C 
ATOM     26  C   UNL     1      31.608  -6.154 -23.593  0.00  0.00    +0.031 C 
ATOM     27  C   UNL     1      32.889  -6.291 -24.122  0.00  0.00    +0.003 C 
BRANCH  26  30
ATOM     28  N   UNL     1      30.639  -4.222 -22.372  0.00  0.00    -0.343 N 
ATOM     29  N   UNL     1      30.682  -4.238 -24.709  0.00  0.00    -0.285 NA
ATOM     30  C   UNL     1      30.968  -4.850 -23.572  0.00  0.00    +0.117 C 
ATOM     31  H   UNL     1      30.206  -3.338 -22.381  0.00  0.00    +0.144 HD
ATOM     32  H   UNL     1      30.841  -4.663 -21.515  0.00  0.00    +0.144 HD
ATOM     33  H   UNL     1      30.247  -3.354 -24.697  0.00  0.00    +0.188 HD
ENDBRANCH  26  30
ENDBRANCH   3  18
TORSDOF 4
ENDMDL
