MODEL 1
REMARK VINA RESULT:      -2.9      0.000      0.000
REMARK  Name = 12219
REMARK  1 active torsions:
REMARK  status: ('A' for Active; 'I' for Inactive)
REMARK    1  A    between atoms: N_1  and  C_5
REMARK                            x       y       z     vdW  Elec       q    Type
REMARK                         _______ _______ _______ _____ _____    ______ ____
ROOT
ATOM      1  N   UNL     1      32.920 -22.122 -19.332  0.00  0.00    +0.382 N 
ATOM      2  C   UNL     1      33.574 -22.757 -18.195  0.00  0.00    -0.106 C 
ATOM      3  H   UNL     1      32.794 -22.812 -20.072  0.00  0.00    -0.085 HD
ATOM      4  H   UNL     1      32.018 -21.757 -19.026  0.00  0.00    -0.085 HD
ENDROOT
BRANCH   1   5
ATOM      5  C   UNL     1      33.721 -21.017 -19.841  0.00  0.00    -0.082 C 
ATOM      6  C   UNL     1      32.857 -20.012 -20.586  0.00  0.00    -0.026 C 
ENDBRANCH   1   5
TORSDOF 1
ENDMDL
MODEL 2
REMARK VINA RESULT:      -2.7      2.731      3.617
REMARK  Name = 12219
REMARK  1 active torsions:
REMARK  status: ('A' for Active; 'I' for Inactive)
REMARK    1  A    between atoms: N_1  and  C_5
REMARK                            x       y       z     vdW  Elec       q    Type
REMARK                         _______ _______ _______ _____ _____    ______ ____
ROOT
ATOM      1  N   UNL     1      35.294 -19.484 -20.588  0.00  0.00    +0.382 N 
ATOM      2  C   UNL     1      36.204 -18.653 -21.365  0.00  0.00    -0.106 C 
ATOM      3  H   UNL     1      35.654 -20.437 -20.559  0.00  0.00    -0.085 HD
ATOM      4  H   UNL     1      35.226 -19.100 -19.646  0.00  0.00    -0.085 HD
ENDROOT
BRANCH   1   5
ATOM      5  C   UNL     1      33.964 -19.495 -21.183  0.00  0.00    -0.082 C 
ATOM      6  C   UNL     1      32.994 -20.309 -20.343  0.00  0.00    -0.026 C 
ENDBRANCH   1   5
TORSDOF 1
ENDMDL
MODEL 3
REMARK VINA RESULT:      -2.7     11.541     12.634
REMARK  Name = 12219
REMARK  1 active torsions:
REMARK  status: ('A' for Active; 'I' for Inactive)
REMARK    1  A    between atoms: N_1  and  C_5
REMARK                            x       y       z     vdW  Elec       q    Type
REMARK                         _______ _______ _______ _____ _____    ______ ____
ROOT
ATOM      1  N   UNL     1      32.610  -8.708 -19.505  0.00  0.00    +0.382 N 
ATOM      2  C   UNL     1      32.582  -7.515 -20.341  0.00  0.00    -0.106 C 
ATOM      3  H   UNL     1      33.570  -9.043 -19.435  0.00  0.00    -0.085 HD
ATOM      4  H   UNL     1      32.247  -8.467 -18.583  0.00  0.00    -0.085 HD
ENDROOT
BRANCH   1   5
ATOM      5  C   UNL     1      31.778  -9.760 -20.072  0.00  0.00    -0.082 C 
ATOM      6  C   UNL     1      31.387 -10.780 -19.015  0.00  0.00    -0.026 C 
ENDBRANCH   1   5
TORSDOF 1
ENDMDL
MODEL 4
REMARK VINA RESULT:      -2.7      1.066      2.418
REMARK  Name = 12219
REMARK  1 active torsions:
REMARK  status: ('A' for Active; 'I' for Inactive)
REMARK    1  A    between atoms: N_1  and  C_5
REMARK                            x       y       z     vdW  Elec       q    Type
REMARK                         _______ _______ _______ _____ _____    ______ ____
ROOT
ATOM      1  N   UNL     1      32.649 -20.946 -19.510  0.00  0.00    +0.382 N 
ATOM      2  C   UNL     1      32.954 -20.021 -20.594  0.00  0.00    -0.106 C 
ATOM      3  H   UNL     1      32.477 -20.415 -18.657  0.00  0.00    -0.085 HD
ATOM      4  H   UNL     1      31.823 -21.486 -19.767  0.00  0.00    -0.085 HD
ENDROOT
BRANCH   1   5
ATOM      5  C   UNL     1      33.755 -21.866 -19.286  0.00  0.00    -0.082 C 
ATOM      6  C   UNL     1      35.080 -21.243 -19.697  0.00  0.00    -0.026 C 
ENDBRANCH   1   5
TORSDOF 1
ENDMDL
MODEL 5
REMARK VINA RESULT:      -2.7     11.693     11.924
REMARK  Name = 12219
REMARK  1 active torsions:
REMARK  status: ('A' for Active; 'I' for Inactive)
REMARK    1  A    between atoms: N_1  and  C_5
REMARK                            x       y       z     vdW  Elec       q    Type
REMARK                         _______ _______ _______ _____ _____    ______ ____
ROOT
ATOM      1  N   UNL     1      41.985 -12.987 -15.916  0.00  0.00    +0.382 N 
ATOM      2  C   UNL     1      41.201 -14.103 -15.404  0.00  0.00    -0.106 C 
ATOM      3  H   UNL     1      41.560 -12.113 -15.610  0.00  0.00    -0.085 HD
ATOM      4  H   UNL     1      42.936 -13.066 -15.558  0.00  0.00    -0.085 HD
ENDROOT
BRANCH   1   5
ATOM      5  C   UNL     1      42.032 -13.010 -17.372  0.00  0.00    -0.082 C 
ATOM      6  C   UNL     1      41.234 -14.178 -17.928  0.00  0.00    -0.026 C 
ENDBRANCH   1   5
TORSDOF 1
ENDMDL
MODEL 6
REMARK VINA RESULT:      -2.7      6.582      7.164
REMARK  Name = 12219
REMARK  1 active torsions:
REMARK  status: ('A' for Active; 'I' for Inactive)
REMARK    1  A    between atoms: N_1  and  C_5
REMARK                            x       y       z     vdW  Elec       q    Type
REMARK                         _______ _______ _______ _____ _____    ______ ____
ROOT
ATOM      1  N   UNL     1      35.432 -16.552 -24.017  0.00  0.00    +0.382 N 
ATOM      2  C   UNL     1      34.688 -15.481 -23.368  0.00  0.00    -0.106 C 
ATOM      3  H   UNL     1      36.284 -16.168 -24.423  0.00  0.00    -0.085 HD
ATOM      4  H   UNL     1      35.658 -17.261 -23.319  0.00  0.00    -0.085 HD
ENDROOT
BRANCH   1   5
ATOM      5  C   UNL     1      34.640 -17.173 -25.069  0.00  0.00    -0.082 C 
ATOM      6  C   UNL     1      34.437 -18.656 -24.802  0.00  0.00    -0.026 C 
ENDBRANCH   1   5
TORSDOF 1
ENDMDL
MODEL 7
REMARK VINA RESULT:      -2.6      4.826      5.315
REMARK  Name = 12219
REMARK  1 active torsions:
REMARK  status: ('A' for Active; 'I' for Inactive)
REMARK    1  A    between atoms: N_1  and  C_5
REMARK                            x       y       z     vdW  Elec       q    Type
REMARK                         _______ _______ _______ _____ _____    ______ ____
ROOT
ATOM      1  N   UNL     1      35.342 -17.637 -20.766  0.00  0.00    +0.382 N 
ATOM      2  C   UNL     1      36.093 -18.522 -21.646  0.00  0.00    -0.106 C 
ATOM      3  H   UNL     1      34.559 -18.151 -20.364  0.00  0.00    -0.085 HD
ATOM      4  H   UNL     1      35.965 -17.303 -20.031  0.00  0.00    -0.085 HD
ENDROOT
BRANCH   1   5
ATOM      5  C   UNL     1      34.831 -16.487 -21.499  0.00  0.00    -0.082 C 
ATOM      6  C   UNL     1      34.460 -15.354 -20.554  0.00  0.00    -0.026 C 
ENDBRANCH   1   5
TORSDOF 1
ENDMDL
MODEL 8
REMARK VINA RESULT:      -2.6     11.586     12.471
REMARK  Name = 12219
REMARK  1 active torsions:
REMARK  status: ('A' for Active; 'I' for Inactive)
REMARK    1  A    between atoms: N_1  and  C_5
REMARK                            x       y       z     vdW  Elec       q    Type
REMARK                         _______ _______ _______ _____ _____    ______ ____
ROOT
ATOM      1  N   UNL     1      32.452  -9.523 -19.141  0.00  0.00    +0.382 N 
ATOM      2  C   UNL     1      31.542 -10.654 -19.021  0.00  0.00    -0.106 C 
ATOM      3  H   UNL     1      32.286  -8.877 -18.371  0.00  0.00    -0.085 HD
ATOM      4  H   UNL     1      33.411  -9.872 -19.113  0.00  0.00    -0.085 HD
ENDROOT
BRANCH   1   5
ATOM      5  C   UNL     1      32.249  -8.824 -20.403  0.00  0.00    -0.082 C 
ATOM      6  C   UNL     1      32.582  -7.346 -20.271  0.00  0.00    -0.026 C 
ENDBRANCH   1   5
TORSDOF 1
ENDMDL
MODEL 9
REMARK VINA RESULT:      -2.6      8.098      8.879
REMARK  Name = 12219
REMARK  1 active torsions:
REMARK  status: ('A' for Active; 'I' for Inactive)
REMARK    1  A    between atoms: N_1  and  C_5
REMARK                            x       y       z     vdW  Elec       q    Type
REMARK                         _______ _______ _______ _____ _____    ______ ____
ROOT
ATOM      1  N   UNL     1      37.050 -27.086 -13.718  0.00  0.00    +0.382 N 
ATOM      2  C   UNL     1      36.899 -26.585 -15.078  0.00  0.00    -0.106 C 
ATOM      3  H   UNL     1      36.164 -27.483 -13.408  0.00  0.00    -0.085 HD
ATOM      4  H   UNL     1      37.781 -27.797 -13.712  0.00  0.00    -0.085 HD
ENDROOT
BRANCH   1   5
ATOM      5  C   UNL     1      37.436 -26.015 -12.810  0.00  0.00    -0.082 C 
ATOM      6  C   UNL     1      38.773 -25.410 -13.211  0.00  0.00    -0.026 C 
ENDBRANCH   1   5
TORSDOF 1
ENDMDL
