MODEL 1
REMARK VINA RESULT:      -8.9      0.000      0.000
REMARK  Name = 446905
REMARK  12 active torsions:
REMARK  status: ('A' for Active; 'I' for Inactive)
REMARK    1  A    between atoms: C_1  and  C_2
REMARK    2  A    between atoms: C_1  and  C_15
REMARK    3  A    between atoms: C_2  and  C_3
REMARK    4  A    between atoms: C_3  and  C_10
REMARK    5  A    between atoms: C_15  and  C_18
REMARK    6  A    between atoms: N_17  and  C_20
REMARK    7  A    between atoms: C_20  and  C_21
REMARK    8  A    between atoms: C_21  and  C_22
REMARK    9  A    between atoms: C_22  and  C_23
REMARK   10  A    between atoms: C_23  and  C_24
REMARK   11  A    between atoms: C_24  and  C_26
REMARK   12  A    between atoms: C_26  and  O_27
REMARK                            x       y       z     vdW  Elec       q    Type
REMARK                         _______ _______ _______ _____ _____    ______ ____
ROOT
ATOM      1  C   UNL     1      34.701 -23.197 -16.330  0.00  0.00    +0.010 C 
ENDROOT
BRANCH   1   2
ATOM      2  C   UNL     1      35.961 -22.426 -16.736  0.00  0.00    +0.001 C 
BRANCH   2   3
ATOM      3  C   UNL     1      37.116 -22.709 -15.774  0.00  0.00    +0.013 C 
BRANCH   3  10
ATOM      4  S   UNL     1      37.056 -23.402 -13.095  0.00  0.00    -0.138 S 
ATOM      5  O   UNL     1      41.096 -25.543 -14.459  0.00  0.00    -0.253 OA
ATOM      6  N   UNL     1      39.017 -24.892 -15.321  0.00  0.00    -0.288 N 
ATOM      7  N   UNL     1      39.068 -26.154 -13.458  0.00  0.00    -0.288 N 
ATOM      8  C   UNL     1      37.618 -25.125 -15.012  0.00  0.00    +0.102 C 
ATOM      9  C   UNL     1      37.656 -25.924 -13.691  0.00  0.00    +0.103 C 
ATOM     10  C   UNL     1      36.787 -23.852 -14.830  0.00  0.00    +0.067 C 
ATOM     11  C   UNL     1      37.026 -25.125 -12.552  0.00  0.00    +0.079 C 
ATOM     12  C   UNL     1      39.873 -25.528 -14.416  0.00  0.00    +0.301 C 
ATOM     13  H   UNL     1      39.327 -24.347 -16.079  0.00  0.00    +0.151 HD
ATOM     14  H   UNL     1      39.421 -26.690 -12.710  0.00  0.00    +0.151 HD
ENDBRANCH   3  10
ENDBRANCH   2   3
ENDBRANCH   1   2
BRANCH   1  15
ATOM     15  C   UNL     1      33.615 -23.142 -17.402  0.00  0.00    +0.085 C 
BRANCH  15  18
ATOM     16  O   UNL     1      31.297 -22.435 -17.431  0.00  0.00    -0.275 OA
ATOM     17  N   UNL     1      32.100 -23.591 -15.587  0.00  0.00    -0.304 N 
ATOM     18  C   UNL     1      32.208 -23.009 -16.842  0.00  0.00    +0.222 C 
ATOM     19  H   UNL     1      32.889 -24.030 -15.195  0.00  0.00    +0.149 HD
BRANCH  17  20
ATOM     20  C   UNL     1      30.866 -23.573 -14.838  0.00  0.00    +0.089 C 
BRANCH  20  21
ATOM     21  C   UNL     1      29.948 -24.718 -15.248  0.00  0.00    +0.021 C 
BRANCH  21  22
ATOM     22  C   UNL     1      28.521 -24.270 -15.570  0.00  0.00    +0.002 C 
BRANCH  22  23
ATOM     23  C   UNL     1      28.408 -22.775 -15.875  0.00  0.00    +0.012 C 
BRANCH  23  24
ATOM     24  C   UNL     1      27.674 -22.532 -17.194  0.00  0.00    +0.109 C 
BRANCH  24  26
ATOM     25  O   UNL     1      25.569 -21.875 -16.162  0.00  0.00    -0.250 OA
ATOM     26  C   UNL     1      26.436 -21.687 -17.005  0.00  0.00    +0.314 C 
BRANCH  26  27
ATOM     27  O   UNL     1      26.391 -20.666 -17.900  0.00  0.00    -0.480 OA
ATOM     28  H   UNL     1      25.698 -20.625 -18.530  0.00  0.00    +0.295 HD
ENDBRANCH  26  27
ENDBRANCH  24  26
ENDBRANCH  23  24
ENDBRANCH  22  23
ENDBRANCH  21  22
ENDBRANCH  20  21
ENDBRANCH  17  20
ENDBRANCH  15  18
ENDBRANCH   1  15
TORSDOF 12
ENDMDL
MODEL 2
REMARK VINA RESULT:      -8.8      6.970      9.243
REMARK  Name = 446905
REMARK  12 active torsions:
REMARK  status: ('A' for Active; 'I' for Inactive)
REMARK    1  A    between atoms: C_1  and  C_2
REMARK    2  A    between atoms: C_1  and  C_15
REMARK    3  A    between atoms: C_2  and  C_3
REMARK    4  A    between atoms: C_3  and  C_10
REMARK    5  A    between atoms: C_15  and  C_18
REMARK    6  A    between atoms: N_17  and  C_20
REMARK    7  A    between atoms: C_20  and  C_21
REMARK    8  A    between atoms: C_21  and  C_22
REMARK    9  A    between atoms: C_22  and  C_23
REMARK   10  A    between atoms: C_23  and  C_24
REMARK   11  A    between atoms: C_24  and  C_26
REMARK   12  A    between atoms: C_26  and  O_27
REMARK                            x       y       z     vdW  Elec       q    Type
REMARK                         _______ _______ _______ _____ _____    ______ ____
ROOT
ATOM      1  C   UNL     1      34.582 -20.136 -20.841  0.00  0.00    +0.010 C 
ENDROOT
BRANCH   1   2
ATOM      2  C   UNL     1      34.142 -18.804 -21.455  0.00  0.00    +0.001 C 
BRANCH   2   3
ATOM      3  C   UNL     1      35.334 -17.868 -21.659  0.00  0.00    +0.013 C 
BRANCH   3  10
ATOM      4  S   UNL     1      33.133 -16.222 -21.325  0.00  0.00    -0.138 S 
ATOM      5  O   UNL     1      33.401 -16.364 -26.086  0.00  0.00    -0.253 OA
ATOM      6  N   UNL     1      34.775 -16.511 -24.195  0.00  0.00    -0.288 N 
ATOM      7  N   UNL     1      33.407 -14.735 -24.402  0.00  0.00    -0.288 N 
ATOM      8  C   UNL     1      35.074 -15.696 -23.033  0.00  0.00    +0.102 C 
ATOM      9  C   UNL     1      34.079 -14.519 -23.137  0.00  0.00    +0.103 C 
ATOM     10  C   UNL     1      34.898 -16.412 -21.691  0.00  0.00    +0.067 C 
ATOM     11  C   UNL     1      33.092 -14.535 -21.971  0.00  0.00    +0.079 C 
ATOM     12  C   UNL     1      33.810 -15.924 -25.020  0.00  0.00    +0.301 C 
ATOM     13  H   UNL     1      35.202 -17.377 -24.380  0.00  0.00    +0.151 HD
ATOM     14  H   UNL     1      32.743 -14.117 -24.784  0.00  0.00    +0.151 HD
ENDBRANCH   3  10
ENDBRANCH   2   3
ENDBRANCH   1   2
BRANCH   1  15
ATOM     15  C   UNL     1      33.458 -20.819 -20.066  0.00  0.00    +0.085 C 
BRANCH  15  18
ATOM     16  O   UNL     1      35.096 -22.335 -19.122  0.00  0.00    -0.275 OA
ATOM     17  N   UNL     1      32.900 -22.446 -18.381  0.00  0.00    -0.304 N 
ATOM     18  C   UNL     1      33.936 -21.934 -19.149  0.00  0.00    +0.222 C 
ATOM     19  H   UNL     1      32.001 -22.056 -18.473  0.00  0.00    +0.149 HD
BRANCH  17  20
ATOM     20  C   UNL     1      33.100 -23.529 -17.449  0.00  0.00    +0.089 C 
BRANCH  20  21
ATOM     21  C   UNL     1      32.256 -23.349 -16.193  0.00  0.00    +0.021 C 
BRANCH  21  22
ATOM     22  C   UNL     1      30.852 -22.810 -16.476  0.00  0.00    +0.002 C 
BRANCH  22  23
ATOM     23  C   UNL     1      29.900 -22.940 -15.286  0.00  0.00    +0.012 C 
BRANCH  23  24
ATOM     24  C   UNL     1      28.591 -23.617 -15.693  0.00  0.00    +0.109 C 
BRANCH  24  26
ATOM     25  O   UNL     1      27.702 -23.429 -17.951  0.00  0.00    -0.250 OA
ATOM     26  C   UNL     1      27.934 -22.922 -16.862  0.00  0.00    +0.314 C 
BRANCH  26  27
ATOM     27  O   UNL     1      27.622 -21.634 -16.562  0.00  0.00    -0.480 OA
ATOM     28  H   UNL     1      26.915 -21.208 -17.006  0.00  0.00    +0.295 HD
ENDBRANCH  26  27
ENDBRANCH  24  26
ENDBRANCH  23  24
ENDBRANCH  22  23
ENDBRANCH  21  22
ENDBRANCH  20  21
ENDBRANCH  17  20
ENDBRANCH  15  18
ENDBRANCH   1  15
TORSDOF 12
ENDMDL
MODEL 3
REMARK VINA RESULT:      -8.7      6.116      8.319
REMARK  Name = 446905
REMARK  12 active torsions:
REMARK  status: ('A' for Active; 'I' for Inactive)
REMARK    1  A    between atoms: C_1  and  C_2
REMARK    2  A    between atoms: C_1  and  C_15
REMARK    3  A    between atoms: C_2  and  C_3
REMARK    4  A    between atoms: C_3  and  C_10
REMARK    5  A    between atoms: C_15  and  C_18
REMARK    6  A    between atoms: N_17  and  C_20
REMARK    7  A    between atoms: C_20  and  C_21
REMARK    8  A    between atoms: C_21  and  C_22
REMARK    9  A    between atoms: C_22  and  C_23
REMARK   10  A    between atoms: C_23  and  C_24
REMARK   11  A    between atoms: C_24  and  C_26
REMARK   12  A    between atoms: C_26  and  O_27
REMARK                            x       y       z     vdW  Elec       q    Type
REMARK                         _______ _______ _______ _____ _____    ______ ____
ROOT
ATOM      1  C   UNL     1      33.083 -20.895 -19.619  0.00  0.00    +0.010 C 
ENDROOT
BRANCH   1   2
ATOM      2  C   UNL     1      33.184 -19.954 -20.824  0.00  0.00    +0.001 C 
BRANCH   2   3
ATOM      3  C   UNL     1      34.640 -19.737 -21.237  0.00  0.00    +0.013 C 
BRANCH   3  10
ATOM      4  S   UNL     1      33.536 -17.206 -21.043  0.00  0.00    -0.138 S 
ATOM      5  O   UNL     1      34.032 -17.582 -25.773  0.00  0.00    -0.253 OA
ATOM      6  N   UNL     1      35.013 -18.346 -23.788  0.00  0.00    -0.288 N 
ATOM      7  N   UNL     1      34.731 -16.131 -24.071  0.00  0.00    -0.288 N 
ATOM      8  C   UNL     1      35.596 -17.759 -22.596  0.00  0.00    +0.102 C 
ATOM      9  C   UNL     1      35.330 -16.246 -22.757  0.00  0.00    +0.103 C 
ATOM     10  C   UNL     1      34.992 -18.259 -21.281  0.00  0.00    +0.067 C 
ATOM     11  C   UNL     1      34.387 -15.739 -21.668  0.00  0.00    +0.079 C 
ATOM     12  C   UNL     1      34.529 -17.377 -24.674  0.00  0.00    +0.301 C 
ATOM     13  H   UNL     1      34.963 -19.314 -23.953  0.00  0.00    +0.151 HD
ATOM     14  H   UNL     1      34.492 -15.273 -24.493  0.00  0.00    +0.151 HD
ENDBRANCH   3  10
ENDBRANCH   2   3
ENDBRANCH   1   2
BRANCH   1  15
ATOM     15  C   UNL     1      34.160 -21.978 -19.637  0.00  0.00    +0.085 C 
BRANCH  15  18
ATOM     16  O   UNL     1      35.755 -22.337 -17.847  0.00  0.00    -0.275 OA
ATOM     17  N   UNL     1      33.544 -22.966 -17.530  0.00  0.00    -0.304 N 
ATOM     18  C   UNL     1      34.599 -22.427 -18.252  0.00  0.00    +0.222 C 
ATOM     19  H   UNL     1      32.650 -22.994 -17.941  0.00  0.00    +0.149 HD
BRANCH  17  20
ATOM     20  C   UNL     1      33.716 -23.484 -16.194  0.00  0.00    +0.089 C 
BRANCH  20  21
ATOM     21  C   UNL     1      32.515 -23.164 -15.312  0.00  0.00    +0.021 C 
BRANCH  21  22
ATOM     22  C   UNL     1      31.189 -23.137 -16.075  0.00  0.00    +0.002 C 
BRANCH  22  23
ATOM     23  C   UNL     1      29.963 -23.100 -15.162  0.00  0.00    +0.012 C 
BRANCH  23  24
ATOM     24  C   UNL     1      28.779 -23.831 -15.794  0.00  0.00    +0.109 C 
BRANCH  24  26
ATOM     25  O   UNL     1      27.981 -21.755 -16.782  0.00  0.00    -0.250 OA
ATOM     26  C   UNL     1      28.062 -22.975 -16.811  0.00  0.00    +0.314 C 
BRANCH  26  27
ATOM     27  O   UNL     1      27.500 -23.732 -17.790  0.00  0.00    -0.480 OA
ATOM     28  H   UNL     1      26.879 -24.398 -17.569  0.00  0.00    +0.295 HD
ENDBRANCH  26  27
ENDBRANCH  24  26
ENDBRANCH  23  24
ENDBRANCH  22  23
ENDBRANCH  21  22
ENDBRANCH  20  21
ENDBRANCH  17  20
ENDBRANCH  15  18
ENDBRANCH   1  15
TORSDOF 12
ENDMDL
MODEL 4
REMARK VINA RESULT:      -8.4      5.209      6.763
REMARK  Name = 446905
REMARK  12 active torsions:
REMARK  status: ('A' for Active; 'I' for Inactive)
REMARK    1  A    between atoms: C_1  and  C_2
REMARK    2  A    between atoms: C_1  and  C_15
REMARK    3  A    between atoms: C_2  and  C_3
REMARK    4  A    between atoms: C_3  and  C_10
REMARK    5  A    between atoms: C_15  and  C_18
REMARK    6  A    between atoms: N_17  and  C_20
REMARK    7  A    between atoms: C_20  and  C_21
REMARK    8  A    between atoms: C_21  and  C_22
REMARK    9  A    between atoms: C_22  and  C_23
REMARK   10  A    between atoms: C_23  and  C_24
REMARK   11  A    between atoms: C_24  and  C_26
REMARK   12  A    between atoms: C_26  and  O_27
REMARK                            x       y       z     vdW  Elec       q    Type
REMARK                         _______ _______ _______ _____ _____    ______ ____
ROOT
ATOM      1  C   UNL     1      35.505 -22.034 -17.835  0.00  0.00    +0.010 C 
ENDROOT
BRANCH   1   2
ATOM      2  C   UNL     1      35.273 -22.842 -16.555  0.00  0.00    +0.001 C 
BRANCH   2   3
ATOM      3  C   UNL     1      36.571 -23.009 -15.763  0.00  0.00    +0.013 C 
BRANCH   3  10
ATOM      4  S   UNL     1      36.806 -23.584 -13.066  0.00  0.00    -0.138 S 
ATOM      5  O   UNL     1      40.973 -25.254 -14.680  0.00  0.00    -0.253 OA
ATOM      6  N   UNL     1      38.768 -24.911 -15.391  0.00  0.00    -0.288 N 
ATOM      7  N   UNL     1      39.125 -26.072 -13.496  0.00  0.00    -0.288 N 
ATOM      8  C   UNL     1      37.439 -25.306 -14.962  0.00  0.00    +0.102 C 
ATOM      9  C   UNL     1      37.681 -26.034 -13.621  0.00  0.00    +0.103 C 
ATOM     10  C   UNL     1      36.466 -24.142 -14.756  0.00  0.00    +0.067 C 
ATOM     11  C   UNL     1      37.041 -25.271 -12.463  0.00  0.00    +0.079 C 
ATOM     12  C   UNL     1      39.766 -25.393 -14.537  0.00  0.00    +0.301 C 
ATOM     13  H   UNL     1      38.946 -24.366 -16.190  0.00  0.00    +0.151 HD
ATOM     14  H   UNL     1      39.600 -26.525 -12.762  0.00  0.00    +0.151 HD
ENDBRANCH   3  10
ENDBRANCH   2   3
ENDBRANCH   1   2
BRANCH   1  15
ATOM     15  C   UNL     1      34.550 -22.437 -18.957  0.00  0.00    +0.085 C 
BRANCH  15  18
ATOM     16  O   UNL     1      32.629 -21.022 -19.380  0.00  0.00    -0.275 OA
ATOM     17  N   UNL     1      34.641 -20.533 -20.427  0.00  0.00    -0.304 N 
ATOM     18  C   UNL     1      33.815 -21.264 -19.586  0.00  0.00    +0.222 C 
ATOM     19  H   UNL     1      35.582 -20.806 -20.527  0.00  0.00    +0.149 HD
BRANCH  17  20
ATOM     20  C   UNL     1      34.165 -19.384 -21.159  0.00  0.00    +0.089 C 
BRANCH  20  21
ATOM     21  C   UNL     1      35.226 -18.293 -21.237  0.00  0.00    +0.021 C 
BRANCH  21  22
ATOM     22  C   UNL     1      34.663 -16.882 -21.055  0.00  0.00    +0.002 C 
BRANCH  22  23
ATOM     23  C   UNL     1      34.873 -15.982 -22.274  0.00  0.00    +0.012 C 
BRANCH  23  24
ATOM     24  C   UNL     1      35.143 -16.807 -23.533  0.00  0.00    +0.109 C 
BRANCH  24  26
ATOM     25  O   UNL     1      33.560 -15.373 -24.701  0.00  0.00    -0.250 OA
ATOM     26  C   UNL     1      34.354 -16.305 -24.719  0.00  0.00    +0.314 C 
BRANCH  26  27
ATOM     27  O   UNL     1      34.630 -17.022 -25.839  0.00  0.00    -0.480 OA
ATOM     28  H   UNL     1      35.513 -17.273 -26.029  0.00  0.00    +0.295 HD
ENDBRANCH  26  27
ENDBRANCH  24  26
ENDBRANCH  23  24
ENDBRANCH  22  23
ENDBRANCH  21  22
ENDBRANCH  20  21
ENDBRANCH  17  20
ENDBRANCH  15  18
ENDBRANCH   1  15
TORSDOF 12
ENDMDL
MODEL 5
REMARK VINA RESULT:      -8.3      6.733      9.251
REMARK  Name = 446905
REMARK  12 active torsions:
REMARK  status: ('A' for Active; 'I' for Inactive)
REMARK    1  A    between atoms: C_1  and  C_2
REMARK    2  A    between atoms: C_1  and  C_15
REMARK    3  A    between atoms: C_2  and  C_3
REMARK    4  A    between atoms: C_3  and  C_10
REMARK    5  A    between atoms: C_15  and  C_18
REMARK    6  A    between atoms: N_17  and  C_20
REMARK    7  A    between atoms: C_20  and  C_21
REMARK    8  A    between atoms: C_21  and  C_22
REMARK    9  A    between atoms: C_22  and  C_23
REMARK   10  A    between atoms: C_23  and  C_24
REMARK   11  A    between atoms: C_24  and  C_26
REMARK   12  A    between atoms: C_26  and  O_27
REMARK                            x       y       z     vdW  Elec       q    Type
REMARK                         _______ _______ _______ _____ _____    ______ ____
ROOT
ATOM      1  C   UNL     1      33.380 -20.503 -20.280  0.00  0.00    +0.010 C 
ENDROOT
BRANCH   1   2
ATOM      2  C   UNL     1      33.393 -19.169 -21.032  0.00  0.00    +0.001 C 
BRANCH   2   3
ATOM      3  C   UNL     1      34.821 -18.655 -21.220  0.00  0.00    +0.013 C 
BRANCH   3  10
ATOM      4  S   UNL     1      33.208 -16.406 -21.209  0.00  0.00    -0.138 S 
ATOM      5  O   UNL     1      33.678 -17.119 -25.903  0.00  0.00    -0.253 OA
ATOM      6  N   UNL     1      34.839 -17.467 -23.898  0.00  0.00    -0.288 N 
ATOM      7  N   UNL     1      34.086 -15.398 -24.367  0.00  0.00    -0.288 N 
ATOM      8  C   UNL     1      35.307 -16.660 -22.788  0.00  0.00    +0.102 C 
ATOM      9  C   UNL     1      34.721 -15.259 -23.072  0.00  0.00    +0.103 C 
ATOM     10  C   UNL     1      34.849 -17.147 -21.410  0.00  0.00    +0.067 C 
ATOM     11  C   UNL     1      33.714 -14.859 -21.995  0.00  0.00    +0.079 C 
ATOM     12  C   UNL     1      34.142 -16.710 -24.847  0.00  0.00    +0.301 C 
ATOM     13  H   UNL     1      34.992 -18.435 -23.975  0.00  0.00    +0.151 HD
ATOM     14  H   UNL     1      33.662 -14.654 -24.853  0.00  0.00    +0.151 HD
ENDBRANCH   3  10
ENDBRANCH   2   3
ENDBRANCH   1   2
BRANCH   1  15
ATOM     15  C   UNL     1      34.784 -20.979 -19.915  0.00  0.00    +0.085 C 
BRANCH  15  18
ATOM     16  O   UNL     1      35.827 -22.369 -18.225  0.00  0.00    -0.275 OA
ATOM     17  N   UNL     1      33.550 -22.586 -18.614  0.00  0.00    -0.304 N 
ATOM     18  C   UNL     1      34.807 -22.037 -18.823  0.00  0.00    +0.222 C 
ATOM     19  H   UNL     1      32.790 -22.252 -19.144  0.00  0.00    +0.149 HD
BRANCH  17  20
ATOM     20  C   UNL     1      33.321 -23.628 -17.643  0.00  0.00    +0.089 C 
BRANCH  20  21
ATOM     21  C   UNL     1      32.688 -23.077 -16.371  0.00  0.00    +0.021 C 
BRANCH  21  22
ATOM     22  C   UNL     1      31.164 -22.959 -16.451  0.00  0.00    +0.002 C 
BRANCH  22  23
ATOM     23  C   UNL     1      30.496 -22.784 -15.086  0.00  0.00    +0.012 C 
BRANCH  23  24
ATOM     24  C   UNL     1      31.446 -23.165 -13.950  0.00  0.00    +0.109 C 
BRANCH  24  26
ATOM     25  O   UNL     1      31.940 -25.549 -13.964  0.00  0.00    -0.250 OA
ATOM     26  C   UNL     1      31.282 -24.609 -13.537  0.00  0.00    +0.314 C 
BRANCH  26  27
ATOM     27  O   UNL     1      30.297 -24.752 -12.613  0.00  0.00    -0.480 OA
ATOM     28  H   UNL     1      30.098 -25.600 -12.268  0.00  0.00    +0.295 HD
ENDBRANCH  26  27
ENDBRANCH  24  26
ENDBRANCH  23  24
ENDBRANCH  22  23
ENDBRANCH  21  22
ENDBRANCH  20  21
ENDBRANCH  17  20
ENDBRANCH  15  18
ENDBRANCH   1  15
TORSDOF 12
ENDMDL
MODEL 6
REMARK VINA RESULT:      -8.2      6.921     11.418
REMARK  Name = 446905
REMARK  12 active torsions:
REMARK  status: ('A' for Active; 'I' for Inactive)
REMARK    1  A    between atoms: C_1  and  C_2
REMARK    2  A    between atoms: C_1  and  C_15
REMARK    3  A    between atoms: C_2  and  C_3
REMARK    4  A    between atoms: C_3  and  C_10
REMARK    5  A    between atoms: C_15  and  C_18
REMARK    6  A    between atoms: N_17  and  C_20
REMARK    7  A    between atoms: C_20  and  C_21
REMARK    8  A    between atoms: C_21  and  C_22
REMARK    9  A    between atoms: C_22  and  C_23
REMARK   10  A    between atoms: C_23  and  C_24
REMARK   11  A    between atoms: C_24  and  C_26
REMARK   12  A    between atoms: C_26  and  O_27
REMARK                            x       y       z     vdW  Elec       q    Type
REMARK                         _______ _______ _______ _____ _____    ______ ____
ROOT
ATOM      1  C   UNL     1      35.146 -20.366 -20.474  0.00  0.00    +0.010 C 
ENDROOT
BRANCH   1   2
ATOM      2  C   UNL     1      35.699 -19.075 -21.084  0.00  0.00    +0.001 C 
BRANCH   2   3
ATOM      3  C   UNL     1      34.659 -18.394 -21.975  0.00  0.00    +0.013 C 
BRANCH   3  10
ATOM      4  S   UNL     1      33.152 -16.150 -21.379  0.00  0.00    -0.138 S 
ATOM      5  O   UNL     1      33.212 -15.919 -26.144  0.00  0.00    -0.253 OA
ATOM      6  N   UNL     1      34.514 -16.693 -24.357  0.00  0.00    -0.288 N 
ATOM      7  N   UNL     1      33.818 -14.553 -24.339  0.00  0.00    -0.288 N 
ATOM      8  C   UNL     1      35.105 -16.139 -23.154  0.00  0.00    +0.102 C 
ATOM      9  C   UNL     1      34.561 -14.694 -23.103  0.00  0.00    +0.103 C 
ATOM     10  C   UNL     1      34.738 -16.880 -21.865  0.00  0.00    +0.067 C 
ATOM     11  C   UNL     1      33.662 -14.491 -21.885  0.00  0.00    +0.079 C 
ATOM     12  C   UNL     1      33.777 -15.744 -25.072  0.00  0.00    +0.301 C 
ATOM     13  H   UNL     1      34.618 -17.631 -24.636  0.00  0.00    +0.151 HD
ATOM     14  H   UNL     1      33.389 -13.715 -24.630  0.00  0.00    +0.151 HD
ENDBRANCH   3  10
ENDBRANCH   2   3
ENDBRANCH   1   2
BRANCH   1  15
ATOM     15  C   UNL     1      36.235 -21.211 -19.817  0.00  0.00    +0.085 C 
BRANCH  15  18
ATOM     16  O   UNL     1      34.707 -22.669 -18.627  0.00  0.00    -0.275 OA
ATOM     17  N   UNL     1      36.604 -21.895 -17.538  0.00  0.00    -0.304 N 
ATOM     18  C   UNL     1      35.747 -22.016 -18.623  0.00  0.00    +0.222 C 
ATOM     19  H   UNL     1      37.417 -21.348 -17.632  0.00  0.00    +0.149 HD
BRANCH  17  20
ATOM     20  C   UNL     1      36.343 -22.549 -16.279  0.00  0.00    +0.089 C 
BRANCH  20  21
ATOM     21  C   UNL     1      37.615 -22.701 -15.454  0.00  0.00    +0.021 C 
BRANCH  21  22
ATOM     22  C   UNL     1      37.561 -23.863 -14.461  0.00  0.00    +0.002 C 
BRANCH  22  23
ATOM     23  C   UNL     1      37.844 -25.224 -15.100  0.00  0.00    +0.012 C 
BRANCH  23  24
ATOM     24  C   UNL     1      38.765 -26.069 -14.222  0.00  0.00    +0.109 C 
BRANCH  24  26
ATOM     25  O   UNL     1      41.176 -26.380 -14.082  0.00  0.00    -0.250 OA
ATOM     26  C   UNL     1      40.186 -26.078 -14.736  0.00  0.00    +0.314 C 
BRANCH  26  27
ATOM     27  O   UNL     1      40.244 -25.702 -16.040  0.00  0.00    -0.480 OA
ATOM     28  H   UNL     1      41.013 -25.282 -16.373  0.00  0.00    +0.295 HD
ENDBRANCH  26  27
ENDBRANCH  24  26
ENDBRANCH  23  24
ENDBRANCH  22  23
ENDBRANCH  21  22
ENDBRANCH  20  21
ENDBRANCH  17  20
ENDBRANCH  15  18
ENDBRANCH   1  15
TORSDOF 12
ENDMDL
MODEL 7
REMARK VINA RESULT:      -8.2      7.268     10.733
REMARK  Name = 446905
REMARK  12 active torsions:
REMARK  status: ('A' for Active; 'I' for Inactive)
REMARK    1  A    between atoms: C_1  and  C_2
REMARK    2  A    between atoms: C_1  and  C_15
REMARK    3  A    between atoms: C_2  and  C_3
REMARK    4  A    between atoms: C_3  and  C_10
REMARK    5  A    between atoms: C_15  and  C_18
REMARK    6  A    between atoms: N_17  and  C_20
REMARK    7  A    between atoms: C_20  and  C_21
REMARK    8  A    between atoms: C_21  and  C_22
REMARK    9  A    between atoms: C_22  and  C_23
REMARK   10  A    between atoms: C_23  and  C_24
REMARK   11  A    between atoms: C_24  and  C_26
REMARK   12  A    between atoms: C_26  and  O_27
REMARK                            x       y       z     vdW  Elec       q    Type
REMARK                         _______ _______ _______ _____ _____    ______ ____
ROOT
ATOM      1  C   UNL     1      34.186 -19.579 -21.549  0.00  0.00    +0.010 C 
ENDROOT
BRANCH   1   2
ATOM      2  C   UNL     1      33.879 -18.170 -21.034  0.00  0.00    +0.001 C 
BRANCH   2   3
ATOM      3  C   UNL     1      35.074 -17.236 -21.230  0.00  0.00    +0.013 C 
BRANCH   3  10
ATOM      4  S   UNL     1      32.835 -15.619 -21.413  0.00  0.00    -0.138 S 
ATOM      5  O   UNL     1      33.535 -16.666 -26.015  0.00  0.00    -0.253 OA
ATOM      6  N   UNL     1      34.734 -16.408 -24.019  0.00  0.00    -0.288 N 
ATOM      7  N   UNL     1      33.371 -14.745 -24.685  0.00  0.00    -0.288 N 
ATOM      8  C   UNL     1      34.917 -15.377 -23.016  0.00  0.00    +0.102 C 
ATOM      9  C   UNL     1      33.923 -14.270 -23.432  0.00  0.00    +0.103 C 
ATOM     10  C   UNL     1      34.628 -15.827 -21.581  0.00  0.00    +0.067 C 
ATOM     11  C   UNL     1      32.835 -14.089 -22.375  0.00  0.00    +0.079 C 
ATOM     12  C   UNL     1      33.841 -16.018 -25.023  0.00  0.00    +0.301 C 
ATOM     13  H   UNL     1      35.185 -17.282 -23.995  0.00  0.00    +0.151 HD
ATOM     14  H   UNL     1      32.738 -14.229 -25.235  0.00  0.00    +0.151 HD
ENDBRANCH   3  10
ENDBRANCH   2   3
ENDBRANCH   1   2
BRANCH   1  15
ATOM     15  C   UNL     1      34.916 -20.431 -20.513  0.00  0.00    +0.085 C 
BRANCH  15  18
ATOM     16  O   UNL     1      32.763 -21.155 -19.668  0.00  0.00    -0.275 OA
ATOM     17  N   UNL     1      34.695 -22.052 -18.747  0.00  0.00    -0.304 N 
ATOM     18  C   UNL     1      33.987 -21.240 -19.622  0.00  0.00    +0.222 C 
ATOM     19  H   UNL     1      35.678 -22.051 -18.786  0.00  0.00    +0.149 HD
BRANCH  17  20
ATOM     20  C   UNL     1      34.034 -22.898 -17.783  0.00  0.00    +0.089 C 
BRANCH  20  21
ATOM     21  C   UNL     1      34.792 -22.938 -16.463  0.00  0.00    +0.021 C 
BRANCH  21  22
ATOM     22  C   UNL     1      34.558 -24.223 -15.665  0.00  0.00    +0.002 C 
BRANCH  22  23
ATOM     23  C   UNL     1      35.549 -24.413 -14.514  0.00  0.00    +0.012 C 
BRANCH  23  24
ATOM     24  C   UNL     1      36.848 -25.055 -15.001  0.00  0.00    +0.109 C 
BRANCH  24  26
ATOM     25  O   UNL     1      36.638 -27.226 -16.082  0.00  0.00    -0.250 OA
ATOM     26  C   UNL     1      36.747 -26.561 -15.061  0.00  0.00    +0.314 C 
BRANCH  26  27
ATOM     27  O   UNL     1      36.793 -27.111 -13.820  0.00  0.00    -0.480 OA
ATOM     28  H   UNL     1      36.152 -27.745 -13.564  0.00  0.00    +0.295 HD
ENDBRANCH  26  27
ENDBRANCH  24  26
ENDBRANCH  23  24
ENDBRANCH  22  23
ENDBRANCH  21  22
ENDBRANCH  20  21
ENDBRANCH  17  20
ENDBRANCH  15  18
ENDBRANCH   1  15
TORSDOF 12
ENDMDL
MODEL 8
REMARK VINA RESULT:      -8.2     12.632     15.204
REMARK  Name = 446905
REMARK  12 active torsions:
REMARK  status: ('A' for Active; 'I' for Inactive)
REMARK    1  A    between atoms: C_1  and  C_2
REMARK    2  A    between atoms: C_1  and  C_15
REMARK    3  A    between atoms: C_2  and  C_3
REMARK    4  A    between atoms: C_3  and  C_10
REMARK    5  A    between atoms: C_15  and  C_18
REMARK    6  A    between atoms: N_17  and  C_20
REMARK    7  A    between atoms: C_20  and  C_21
REMARK    8  A    between atoms: C_21  and  C_22
REMARK    9  A    between atoms: C_22  and  C_23
REMARK   10  A    between atoms: C_23  and  C_24
REMARK   11  A    between atoms: C_24  and  C_26
REMARK   12  A    between atoms: C_26  and  O_27
REMARK                            x       y       z     vdW  Elec       q    Type
REMARK                         _______ _______ _______ _____ _____    ______ ____
ROOT
ATOM      1  C   UNL     1      33.424 -12.662 -25.727  0.00  0.00    +0.010 C 
ENDROOT
BRANCH   1   2
ATOM      2  C   UNL     1      34.134 -11.622 -24.857  0.00  0.00    +0.001 C 
BRANCH   2   3
ATOM      3  C   UNL     1      33.257 -11.193 -23.679  0.00  0.00    +0.013 C 
BRANCH   3  10
ATOM      4  S   UNL     1      34.173  -8.582 -23.676  0.00  0.00    -0.138 S 
ATOM      5  O   UNL     1      32.307  -8.857 -19.294  0.00  0.00    -0.253 OA
ATOM      6  N   UNL     1      32.029  -9.765 -21.435  0.00  0.00    -0.288 N 
ATOM      7  N   UNL     1      32.045  -7.526 -21.204  0.00  0.00    -0.288 N 
ATOM      8  C   UNL     1      31.790  -9.268 -22.777  0.00  0.00    +0.102 C 
ATOM      9  C   UNL     1      31.880  -7.733 -22.629  0.00  0.00    +0.103 C 
ATOM     10  C   UNL     1      32.798  -9.752 -23.823  0.00  0.00    +0.067 C 
ATOM     11  C   UNL     1      33.065  -7.178 -23.415  0.00  0.00    +0.079 C 
ATOM     12  C   UNL     1      32.149  -8.731 -20.501  0.00  0.00    +0.301 C 
ATOM     13  H   UNL     1      32.101 -10.719 -21.209  0.00  0.00    +0.151 HD
ATOM     14  H   UNL     1      32.080  -6.638 -20.779  0.00  0.00    +0.151 HD
ENDBRANCH   3  10
ENDBRANCH   2   3
ENDBRANCH   1   2
BRANCH   1  15
ATOM     15  C   UNL     1      33.076 -13.931 -24.950  0.00  0.00    +0.085 C 
BRANCH  15  18
ATOM     16  O   UNL     1      33.208 -15.527 -26.769  0.00  0.00    -0.275 OA
ATOM     17  N   UNL     1      34.345 -15.970 -24.796  0.00  0.00    -0.304 N 
ATOM     18  C   UNL     1      33.538 -15.210 -25.629  0.00  0.00    +0.222 C 
ATOM     19  H   UNL     1      34.555 -15.631 -23.896  0.00  0.00    +0.149 HD
BRANCH  17  20
ATOM     20  C   UNL     1      34.888 -17.242 -25.207  0.00  0.00    +0.089 C 
BRANCH  20  21
ATOM     21  C   UNL     1      34.202 -18.400 -24.492  0.00  0.00    +0.021 C 
BRANCH  21  22
ATOM     22  C   UNL     1      35.043 -19.002 -23.364  0.00  0.00    +0.002 C 
BRANCH  22  23
ATOM     23  C   UNL     1      34.447 -18.776 -21.974  0.00  0.00    +0.012 C 
BRANCH  23  24
ATOM     24  C   UNL     1      35.232 -17.717 -21.199  0.00  0.00    +0.109 C 
BRANCH  24  26
ATOM     25  O   UNL     1      33.616 -16.051 -21.932  0.00  0.00    -0.250 OA
ATOM     26  C   UNL     1      34.515 -16.388 -21.173  0.00  0.00    +0.314 C 
BRANCH  26  27
ATOM     27  O   UNL     1      34.993 -15.585 -20.187  0.00  0.00    -0.480 OA
ATOM     28  H   UNL     1      35.784 -15.813 -19.739  0.00  0.00    +0.295 HD
ENDBRANCH  26  27
ENDBRANCH  24  26
ENDBRANCH  23  24
ENDBRANCH  22  23
ENDBRANCH  21  22
ENDBRANCH  20  21
ENDBRANCH  17  20
ENDBRANCH  15  18
ENDBRANCH   1  15
TORSDOF 12
ENDMDL
MODEL 9
REMARK VINA RESULT:      -8.1     11.015     13.852
REMARK  Name = 446905
REMARK  12 active torsions:
REMARK  status: ('A' for Active; 'I' for Inactive)
REMARK    1  A    between atoms: C_1  and  C_2
REMARK    2  A    between atoms: C_1  and  C_15
REMARK    3  A    between atoms: C_2  and  C_3
REMARK    4  A    between atoms: C_3  and  C_10
REMARK    5  A    between atoms: C_15  and  C_18
REMARK    6  A    between atoms: N_17  and  C_20
REMARK    7  A    between atoms: C_20  and  C_21
REMARK    8  A    between atoms: C_21  and  C_22
REMARK    9  A    between atoms: C_22  and  C_23
REMARK   10  A    between atoms: C_23  and  C_24
REMARK   11  A    between atoms: C_24  and  C_26
REMARK   12  A    between atoms: C_26  and  O_27
REMARK                            x       y       z     vdW  Elec       q    Type
REMARK                         _______ _______ _______ _____ _____    ______ ____
ROOT
ATOM      1  C   UNL     1      34.164 -14.402 -23.332  0.00  0.00    +0.010 C 
ENDROOT
BRANCH   1   2
ATOM      2  C   UNL     1      33.719 -13.027 -23.839  0.00  0.00    +0.001 C 
BRANCH   2   3
ATOM      3  C   UNL     1      32.731 -12.374 -22.872  0.00  0.00    +0.013 C 
BRANCH   3  10
ATOM      4  S   UNL     1      33.751  -9.916 -23.633  0.00  0.00    -0.138 S 
ATOM      5  O   UNL     1      32.334  -8.933 -19.184  0.00  0.00    -0.253 OA
ATOM      6  N   UNL     1      31.800 -10.339 -20.981  0.00  0.00    -0.288 N 
ATOM      7  N   UNL     1      31.934  -8.121 -21.345  0.00  0.00    -0.288 N 
ATOM      8  C   UNL     1      31.446 -10.188 -22.379  0.00  0.00    +0.102 C 
ATOM      9  C   UNL     1      31.615  -8.676 -22.646  0.00  0.00    +0.103 C 
ATOM     10  C   UNL     1      32.320 -10.990 -23.347  0.00  0.00    +0.067 C 
ATOM     11  C   UNL     1      32.736  -8.421 -23.651  0.00  0.00    +0.079 C 
ATOM     12  C   UNL     1      32.059  -9.110 -20.364  0.00  0.00    +0.301 C 
ATOM     13  H   UNL     1      31.855 -11.206 -20.520  0.00  0.00    +0.151 HD
ATOM     14  H   UNL     1      32.049  -7.159 -21.172  0.00  0.00    +0.151 HD
ENDBRANCH   3  10
ENDBRANCH   2   3
ENDBRANCH   1   2
BRANCH   1  15
ATOM     15  C   UNL     1      34.092 -14.511 -21.810  0.00  0.00    +0.085 C 
BRANCH  15  18
ATOM     16  O   UNL     1      34.982 -15.937 -20.065  0.00  0.00    -0.275 OA
ATOM     17  N   UNL     1      35.031 -16.681 -22.261  0.00  0.00    -0.304 N 
ATOM     18  C   UNL     1      34.737 -15.771 -21.256  0.00  0.00    +0.222 C 
ATOM     19  H   UNL     1      34.794 -16.458 -23.191  0.00  0.00    +0.149 HD
BRANCH  17  20
ATOM     20  C   UNL     1      35.670 -17.946 -21.988  0.00  0.00    +0.089 C 
BRANCH  20  21
ATOM     21  C   UNL     1      34.830 -19.115 -22.488  0.00  0.00    +0.021 C 
BRANCH  21  22
ATOM     22  C   UNL     1      33.840 -19.643 -21.448  0.00  0.00    +0.002 C 
BRANCH  22  23
ATOM     23  C   UNL     1      34.512 -20.370 -20.282  0.00  0.00    +0.012 C 
BRANCH  23  24
ATOM     24  C   UNL     1      33.548 -21.344 -19.606  0.00  0.00    +0.109 C 
BRANCH  24  26
ATOM     25  O   UNL     1      33.881 -23.752 -19.477  0.00  0.00    -0.250 OA
ATOM     26  C   UNL     1      34.237 -22.620 -19.181  0.00  0.00    +0.314 C 
BRANCH  26  27
ATOM     27  O   UNL     1      35.327 -22.363 -18.412  0.00  0.00    -0.480 OA
ATOM     28  H   UNL     1      35.598 -21.478 -18.264  0.00  0.00    +0.295 HD
ENDBRANCH  26  27
ENDBRANCH  24  26
ENDBRANCH  23  24
ENDBRANCH  22  23
ENDBRANCH  21  22
ENDBRANCH  20  21
ENDBRANCH  17  20
ENDBRANCH  15  18
ENDBRANCH   1  15
TORSDOF 12
ENDMDL
