MODEL 1
REMARK VINA RESULT:      -8.2      0.000      0.000
REMARK  Name = 5288579
REMARK  6 active torsions:
REMARK  status: ('A' for Active; 'I' for Inactive)
REMARK    1  A    between atoms: N9_1  and  C1*_12
REMARK    2  A    between atoms: C6_8  and  O6_23
REMARK    3  A    between atoms: C2*_13  and  O2*_16
REMARK    4  A    between atoms: C3*_14  and  O3*_18
REMARK    5  A    between atoms: C4*_15  and  C5*_20
REMARK    6  A    between atoms: C5*_20  and  O5*_21
REMARK                            x       y       z     vdW  Elec       q    Type
REMARK                         _______ _______ _______ _____ _____    ______ ____
ROOT
ATOM      1  N9  I   A   1      36.553 -23.217 -15.375  0.00  0.00    -0.257 N 
ATOM      2  N7  I   A   1      37.083 -21.957 -17.302  0.00  0.00    -0.268 NA
ATOM      3  N3  I   A   1      34.202 -23.648 -16.015  0.00  0.00    -0.232 NA
ATOM      4  N1  I   A   1      33.535 -22.633 -18.117  0.00  0.00    -0.213 NA
ATOM      5  C8  I   A   1      37.656 -22.629 -16.135  0.00  0.00    +0.169 C 
ATOM      6  C4  I   A   1      35.425 -23.130 -16.214  0.00  0.00    +0.132 C 
ATOM      7  C5  I   A   1      35.767 -22.394 -17.344  0.00  0.00    +0.186 C 
ATOM      8  C6  I   A   1      34.785 -22.146 -18.264  0.00  0.00    +0.216 C 
ATOM      9  C2  I   A   1      33.319 -23.364 -16.997  0.00  0.00    +0.254 C 
ATOM     10  H7  I   A   1      37.531 -21.334 -17.918  0.00  0.00    +0.126 HD
ENDROOT
BRANCH   1  12
ATOM     11  O4* I   A   1      37.959 -24.042 -13.698  0.00  0.00    -0.333 OA
ATOM     12  C1* I   A   1      36.702 -24.231 -14.370  0.00  0.00    +0.224 C 
ATOM     13  C2* I   A   1      36.733 -25.631 -14.959  0.00  0.00    +0.187 C 
ATOM     14  C3* I   A   1      37.609 -26.370 -13.969  0.00  0.00    +0.171 C 
ATOM     15  C4* I   A   1      38.642 -25.312 -13.606  0.00  0.00    +0.175 C 
BRANCH  13  16
ATOM     16  O2* I   A   1      35.446 -26.203 -15.068  0.00  0.00    -0.378 OA
ATOM     17  H2* I   A   1      35.284 -26.782 -14.307  0.00  0.00    +0.211 HD
ENDBRANCH  13  16
BRANCH  14  18
ATOM     18  O3* I   A   1      36.868 -26.683 -12.790  0.00  0.00    -0.379 OA
ATOM     19  H3* I   A   1      36.575 -27.607 -12.828  0.00  0.00    +0.211 HD
ENDBRANCH  14  18
BRANCH  15  20
ATOM     20  C5* I   A   1      39.831 -25.280 -14.556  0.00  0.00    +0.169 C 
BRANCH  20  21
ATOM     21  O5* I   A   1      40.337 -26.596 -14.694  0.00  0.00    -0.379 OA
ATOM     22  H5* I   A   1      41.276 -26.558 -14.936  0.00  0.00    +0.211 HD
ENDBRANCH  20  21
ENDBRANCH  15  20
ENDBRANCH   1  12
BRANCH   8  23
ATOM     23  O6  I   A   1      35.043 -21.398 -19.376  0.00  0.00    -0.494 OA
ATOM     24  H6  I   A   1      35.478 -21.784 -20.110  0.00  0.00    +0.293 HD
ENDBRANCH   8  23
TORSDOF 6
ENDMDL
MODEL 2
REMARK VINA RESULT:      -8.0      2.284      3.209
REMARK  Name = 5288579
REMARK  6 active torsions:
REMARK  status: ('A' for Active; 'I' for Inactive)
REMARK    1  A    between atoms: N9_1  and  C1*_12
REMARK    2  A    between atoms: C6_8  and  O6_23
REMARK    3  A    between atoms: C2*_13  and  O2*_16
REMARK    4  A    between atoms: C3*_14  and  O3*_18
REMARK    5  A    between atoms: C4*_15  and  C5*_20
REMARK    6  A    between atoms: C5*_20  and  O5*_21
REMARK                            x       y       z     vdW  Elec       q    Type
REMARK                         _______ _______ _______ _____ _____    ______ ____
ROOT
ATOM      1  N9  I   A   1      34.405 -24.052 -14.914  0.00  0.00    -0.257 N 
ATOM      2  N7  I   A   1      32.068 -23.773 -14.701  0.00  0.00    -0.268 NA
ATOM      3  N3  I   A   1      34.540 -23.148 -17.214  0.00  0.00    -0.232 NA
ATOM      4  N1  I   A   1      32.402 -22.490 -18.158  0.00  0.00    -0.213 NA
ATOM      5  C8  I   A   1      33.295 -24.071 -13.961  0.00  0.00    +0.169 C 
ATOM      6  C4  I   A   1      33.880 -23.491 -16.095  0.00  0.00    +0.132 C 
ATOM      7  C5  I   A   1      32.508 -23.328 -15.939  0.00  0.00    +0.186 C 
ATOM      8  C6  I   A   1      31.798 -22.845 -17.004  0.00  0.00    +0.216 C 
ATOM      9  C2  I   A   1      33.746 -22.660 -18.192  0.00  0.00    +0.254 C 
ATOM     10  H7  I   A   1      31.139 -23.869 -14.390  0.00  0.00    +0.126 HD
ENDROOT
BRANCH   1  12
ATOM     11  O4* I   A   1      36.573 -24.706 -15.498  0.00  0.00    -0.333 OA
ATOM     12  C1* I   A   1      35.790 -23.957 -14.553  0.00  0.00    +0.224 C 
ATOM     13  C2* I   A   1      36.075 -24.554 -13.185  0.00  0.00    +0.187 C 
ATOM     14  C3* I   A   1      37.502 -25.036 -13.344  0.00  0.00    +0.171 C 
ATOM     15  C4* I   A   1      37.513 -25.537 -14.782  0.00  0.00    +0.175 C 
BRANCH  13  16
ATOM     16  O2* I   A   1      35.939 -23.613 -12.142  0.00  0.00    -0.378 OA
ATOM     17  H2* I   A   1      35.595 -24.054 -11.350  0.00  0.00    +0.211 HD
ENDBRANCH  13  16
BRANCH  14  18
ATOM     18  O3* I   A   1      38.408 -23.936 -13.255  0.00  0.00    -0.379 OA
ATOM     19  H3* I   A   1      39.305 -24.267 -13.099  0.00  0.00    +0.211 HD
ENDBRANCH  14  18
BRANCH  15  20
ATOM     20  C5* I   A   1      37.063 -26.986 -14.917  0.00  0.00    +0.169 C 
BRANCH  20  21
ATOM     21  O5* I   A   1      36.787 -27.249 -16.281  0.00  0.00    -0.379 OA
ATOM     22  H5* I   A   1      37.300 -26.643 -16.838  0.00  0.00    +0.211 HD
ENDBRANCH  20  21
ENDBRANCH  15  20
ENDBRANCH   1  12
BRANCH   8  23
ATOM     23  O6  I   A   1      30.443 -22.698 -16.932  0.00  0.00    -0.494 OA
ATOM     24  H6  I   A   1      29.908 -22.909 -17.672  0.00  0.00    +0.293 HD
ENDBRANCH   8  23
TORSDOF 6
ENDMDL
MODEL 3
REMARK VINA RESULT:      -8.0      2.741      3.551
REMARK  Name = 5288579
REMARK  6 active torsions:
REMARK  status: ('A' for Active; 'I' for Inactive)
REMARK    1  A    between atoms: N9_1  and  C1*_12
REMARK    2  A    between atoms: C6_8  and  O6_23
REMARK    3  A    between atoms: C2*_13  and  O2*_16
REMARK    4  A    between atoms: C3*_14  and  O3*_18
REMARK    5  A    between atoms: C4*_15  and  C5*_20
REMARK    6  A    between atoms: C5*_20  and  O5*_21
REMARK                            x       y       z     vdW  Elec       q    Type
REMARK                         _______ _______ _______ _____ _____    ______ ____
ROOT
ATOM      1  N9  I   A   1      34.207 -23.922 -14.243  0.00  0.00    -0.257 N 
ATOM      2  N7  I   A   1      33.475 -23.071 -16.323  0.00  0.00    -0.268 NA
ATOM      3  N3  I   A   1      31.940 -24.194 -13.290  0.00  0.00    -0.232 NA
ATOM      4  N1  I   A   1      30.144 -23.481 -14.759  0.00  0.00    -0.213 NA
ATOM      5  C8  I   A   1      34.637 -23.595 -15.604  0.00  0.00    +0.169 C 
ATOM      6  C4  I   A   1      32.800 -23.854 -14.264  0.00  0.00    +0.132 C 
ATOM      7  C5  I   A   1      32.396 -23.362 -15.500  0.00  0.00    +0.186 C 
ATOM      8  C6  I   A   1      31.057 -23.166 -15.702  0.00  0.00    +0.216 C 
ATOM      9  C2  I   A   1      30.643 -23.984 -13.605  0.00  0.00    +0.254 C 
ATOM     10  H7  I   A   1      33.463 -22.614 -17.195  0.00  0.00    +0.126 HD
ENDROOT
BRANCH   1  12
ATOM     11  O4* I   A   1      35.165 -24.042 -12.113  0.00  0.00    -0.333 OA
ATOM     12  C1* I   A   1      34.935 -24.762 -13.336  0.00  0.00    +0.224 C 
ATOM     13  C2* I   A   1      36.303 -25.148 -13.874  0.00  0.00    +0.187 C 
ATOM     14  C3* I   A   1      37.108 -25.306 -12.601  0.00  0.00    +0.171 C 
ATOM     15  C4* I   A   1      36.549 -24.191 -11.729  0.00  0.00    +0.175 C 
BRANCH  13  16
ATOM     16  O2* I   A   1      36.271 -26.334 -14.641  0.00  0.00    -0.378 OA
ATOM     17  H2* I   A   1      37.033 -26.352 -15.240  0.00  0.00    +0.211 HD
ENDBRANCH  13  16
BRANCH  14  18
ATOM     18  O3* I   A   1      36.801 -26.551 -11.974  0.00  0.00    -0.379 OA
ATOM     19  H3* I   A   1      37.241 -26.596 -11.111  0.00  0.00    +0.211 HD
ENDBRANCH  14  18
BRANCH  15  20
ATOM     20  C5* I   A   1      37.246 -22.854 -11.942  0.00  0.00    +0.169 C 
BRANCH  20  21
ATOM     21  O5* I   A   1      38.611 -22.992 -11.589  0.00  0.00    -0.379 OA
ATOM     22  H5* I   A   1      38.794 -22.466 -10.794  0.00  0.00    +0.211 HD
ENDBRANCH  20  21
ENDBRANCH  15  20
ENDBRANCH   1  12
BRANCH   8  23
ATOM     23  O6  I   A   1      30.596 -22.649 -16.878  0.00  0.00    -0.494 OA
ATOM     24  H6  I   A   1      30.230 -23.216 -17.528  0.00  0.00    +0.293 HD
ENDBRANCH   8  23
TORSDOF 6
ENDMDL
MODEL 4
REMARK VINA RESULT:      -8.0      1.990      2.528
REMARK  Name = 5288579
REMARK  6 active torsions:
REMARK  status: ('A' for Active; 'I' for Inactive)
REMARK    1  A    between atoms: N9_1  and  C1*_12
REMARK    2  A    between atoms: C6_8  and  O6_23
REMARK    3  A    between atoms: C2*_13  and  O2*_16
REMARK    4  A    between atoms: C3*_14  and  O3*_18
REMARK    5  A    between atoms: C4*_15  and  C5*_20
REMARK    6  A    between atoms: C5*_20  and  O5*_21
REMARK                            x       y       z     vdW  Elec       q    Type
REMARK                         _______ _______ _______ _____ _____    ______ ____
ROOT
ATOM      1  N9  I   A   1      35.134 -23.767 -14.777  0.00  0.00    -0.257 N 
ATOM      2  N7  I   A   1      35.120 -22.878 -16.967  0.00  0.00    -0.268 NA
ATOM      3  N3  I   A   1      32.681 -24.041 -14.619  0.00  0.00    -0.232 NA
ATOM      4  N1  I   A   1      31.461 -23.294 -16.581  0.00  0.00    -0.213 NA
ATOM      5  C8  I   A   1      35.984 -23.420 -15.918  0.00  0.00    +0.169 C 
ATOM      6  C4  I   A   1      33.811 -23.691 -15.254  0.00  0.00    +0.132 C 
ATOM      7  C5  I   A   1      33.832 -23.176 -16.546  0.00  0.00    +0.186 C 
ATOM      8  C6  I   A   1      32.632 -22.969 -17.169  0.00  0.00    +0.216 C 
ATOM      9  C2  I   A   1      31.557 -23.818 -15.335  0.00  0.00    +0.254 C 
ATOM     10  H7  I   A   1      35.392 -22.407 -17.787  0.00  0.00    +0.126 HD
ENDROOT
BRANCH   1  12
ATOM     11  O4* I   A   1      35.478 -23.884 -12.467  0.00  0.00    -0.333 OA
ATOM     12  C1* I   A   1      35.528 -24.626 -13.697  0.00  0.00    +0.224 C 
ATOM     13  C2* I   A   1      36.955 -25.126 -13.844  0.00  0.00    +0.187 C 
ATOM     14  C3* I   A   1      37.377 -25.298 -12.399  0.00  0.00    +0.171 C 
ATOM     15  C4* I   A   1      36.694 -24.117 -11.724  0.00  0.00    +0.175 C 
BRANCH  13  16
ATOM     16  O2* I   A   1      37.037 -26.331 -14.575  0.00  0.00    -0.378 OA
ATOM     17  H2* I   A   1      36.446 -26.285 -15.342  0.00  0.00    +0.211 HD
ENDBRANCH  13  16
BRANCH  14  18
ATOM     18  O3* I   A   1      36.818 -26.496 -11.861  0.00  0.00    -0.379 OA
ATOM     19  H3* I   A   1      37.289 -27.264 -12.222  0.00  0.00    +0.211 HD
ENDBRANCH  14  18
BRANCH  15  20
ATOM     20  C5* I   A   1      37.524 -22.841 -11.760  0.00  0.00    +0.169 C 
BRANCH  20  21
ATOM     21  O5* I   A   1      38.893 -23.186 -11.642  0.00  0.00    -0.379 OA
ATOM     22  H5* I   A   1      39.418 -22.635 -12.242  0.00  0.00    +0.211 HD
ENDBRANCH  20  21
ENDBRANCH  15  20
ENDBRANCH   1  12
BRANCH   8  23
ATOM     23  O6  I   A   1      32.579 -22.430 -18.422  0.00  0.00    -0.494 OA
ATOM     24  H6  I   A   1      32.104 -21.636 -18.570  0.00  0.00    +0.293 HD
ENDBRANCH   8  23
TORSDOF 6
ENDMDL
MODEL 5
REMARK VINA RESULT:      -8.0      5.082      9.576
REMARK  Name = 5288579
REMARK  6 active torsions:
REMARK  status: ('A' for Active; 'I' for Inactive)
REMARK    1  A    between atoms: N9_1  and  C1*_12
REMARK    2  A    between atoms: C6_8  and  O6_23
REMARK    3  A    between atoms: C2*_13  and  O2*_16
REMARK    4  A    between atoms: C3*_14  and  O3*_18
REMARK    5  A    between atoms: C4*_15  and  C5*_20
REMARK    6  A    between atoms: C5*_20  and  O5*_21
REMARK                            x       y       z     vdW  Elec       q    Type
REMARK                         _______ _______ _______ _____ _____    ______ ____
ROOT
ATOM      1  N9  I   A   1      34.209 -19.153 -20.758  0.00  0.00    -0.257 N 
ATOM      2  N7  I   A   1      32.731 -20.936 -20.290  0.00  0.00    -0.268 NA
ATOM      3  N3  I   A   1      36.198 -20.228 -19.754  0.00  0.00    -0.232 NA
ATOM      4  N1  I   A   1      35.772 -22.410 -18.779  0.00  0.00    -0.213 NA
ATOM      5  C8  I   A   1      32.876 -19.687 -21.039  0.00  0.00    +0.169 C 
ATOM      6  C4  I   A   1      34.902 -20.189 -20.102  0.00  0.00    +0.132 C 
ATOM      7  C5  I   A   1      34.013 -21.228 -19.849  0.00  0.00    +0.186 C 
ATOM      8  C6  I   A   1      34.482 -22.315 -19.162  0.00  0.00    +0.216 C 
ATOM      9  C2  I   A   1      36.559 -21.356 -19.105  0.00  0.00    +0.254 C 
ATOM     10  H7  I   A   1      31.907 -21.452 -20.134  0.00  0.00    +0.126 HD
ENDROOT
BRANCH   1  12
ATOM     11  O4* I   A   1      34.827 -16.899 -20.828  0.00  0.00    -0.333 OA
ATOM     12  C1* I   A   1      34.867 -18.146 -21.540  0.00  0.00    +0.224 C 
ATOM     13  C2* I   A   1      34.179 -17.905 -22.873  0.00  0.00    +0.187 C 
ATOM     14  C3* I   A   1      34.490 -16.445 -23.128  0.00  0.00    +0.171 C 
ATOM     15  C4* I   A   1      34.406 -15.851 -21.729  0.00  0.00    +0.175 C 
BRANCH  13  16
ATOM     16  O2* I   A   1      34.668 -18.745 -23.898  0.00  0.00    -0.378 OA
ATOM     17  H2* I   A   1      35.138 -19.496 -23.504  0.00  0.00    +0.211 HD
ENDBRANCH  13  16
BRANCH  14  18
ATOM     18  O3* I   A   1      35.833 -16.299 -23.588  0.00  0.00    -0.379 OA
ATOM     19  H3* I   A   1      36.373 -15.899 -22.889  0.00  0.00    +0.211 HD
ENDBRANCH  14  18
BRANCH  15  20
ATOM     20  C5* I   A   1      32.996 -15.429 -21.338  0.00  0.00    +0.169 C 
BRANCH  20  21
ATOM     21  O5* I   A   1      32.423 -14.709 -22.414  0.00  0.00    -0.379 OA
ATOM     22  H5* I   A   1      31.503 -14.989 -22.539  0.00  0.00    +0.211 HD
ENDBRANCH  20  21
ENDBRANCH  15  20
ENDBRANCH   1  12
BRANCH   8  23
ATOM     23  O6  I   A   1      33.653 -23.352 -18.846  0.00  0.00    -0.494 OA
ATOM     24  H6  I   A   1      33.816 -24.206 -19.197  0.00  0.00    +0.293 HD
ENDBRANCH   8  23
TORSDOF 6
ENDMDL
MODEL 6
REMARK VINA RESULT:      -7.9      1.783      1.929
REMARK  Name = 5288579
REMARK  6 active torsions:
REMARK  status: ('A' for Active; 'I' for Inactive)
REMARK    1  A    between atoms: N9_1  and  C1*_12
REMARK    2  A    between atoms: C6_8  and  O6_23
REMARK    3  A    between atoms: C2*_13  and  O2*_16
REMARK    4  A    between atoms: C3*_14  and  O3*_18
REMARK    5  A    between atoms: C4*_15  and  C5*_20
REMARK    6  A    between atoms: C5*_20  and  O5*_21
REMARK                            x       y       z     vdW  Elec       q    Type
REMARK                         _______ _______ _______ _____ _____    ______ ____
ROOT
ATOM      1  N9  I   A   1      35.803 -22.969 -14.826  0.00  0.00    -0.257 N 
ATOM      2  N7  I   A   1      35.500 -22.767 -17.160  0.00  0.00    -0.268 NA
ATOM      3  N3  I   A   1      33.424 -23.419 -14.318  0.00  0.00    -0.232 NA
ATOM      4  N1  I   A   1      31.966 -23.402 -16.258  0.00  0.00    -0.213 NA
ATOM      5  C8  I   A   1      36.508 -22.892 -16.107  0.00  0.00    +0.169 C 
ATOM      6  C4  I   A   1      34.447 -23.164 -15.151  0.00  0.00    +0.132 C 
ATOM      7  C5  I   A   1      34.298 -23.051 -16.529  0.00  0.00    +0.186 C 
ATOM      8  C6  I   A   1      33.035 -23.153 -17.044  0.00  0.00    +0.216 C 
ATOM      9  C2  I   A   1      32.227 -23.526 -14.935  0.00  0.00    +0.254 C 
ATOM     10  H7  I   A   1      35.644 -22.534 -18.106  0.00  0.00    +0.126 HD
ENDROOT
BRANCH   1  12
ATOM     11  O4* I   A   1      37.818 -23.334 -13.696  0.00  0.00    -0.333 OA
ATOM     12  C1* I   A   1      36.387 -23.431 -13.599  0.00  0.00    +0.224 C 
ATOM     13  C2* I   A   1      36.070 -24.890 -13.319  0.00  0.00    +0.187 C 
ATOM     14  C3* I   A   1      37.290 -25.333 -12.538  0.00  0.00    +0.171 C 
ATOM     15  C4* I   A   1      38.409 -24.569 -13.234  0.00  0.00    +0.175 C 
BRANCH  13  16
ATOM     16  O2* I   A   1      34.875 -25.056 -12.585  0.00  0.00    -0.378 OA
ATOM     17  H2* I   A   1      34.114 -24.919 -13.171  0.00  0.00    +0.211 HD
ENDBRANCH  13  16
BRANCH  14  18
ATOM     18  O3* I   A   1      37.211 -24.866 -11.192  0.00  0.00    -0.379 OA
ATOM     19  H3* I   A   1      36.285 -24.695 -10.962  0.00  0.00    +0.211 HD
ENDBRANCH  14  18
BRANCH  15  20
ATOM     20  C5* I   A   1      38.978 -25.303 -14.441  0.00  0.00    +0.169 C 
BRANCH  20  21
ATOM     21  O5* I   A   1      39.493 -24.348 -15.351  0.00  0.00    -0.379 OA
ATOM     22  H5* I   A   1      39.482 -23.469 -14.940  0.00  0.00    +0.211 HD
ENDBRANCH  20  21
ENDBRANCH  15  20
ENDBRANCH   1  12
BRANCH   8  23
ATOM     23  O6  I   A   1      32.813 -23.013 -18.383  0.00  0.00    -0.494 OA
ATOM     24  H6  I   A   1      32.122 -23.492 -18.796  0.00  0.00    +0.293 HD
ENDBRANCH   8  23
TORSDOF 6
ENDMDL
MODEL 7
REMARK VINA RESULT:      -7.8      2.741      5.688
REMARK  Name = 5288579
REMARK  6 active torsions:
REMARK  status: ('A' for Active; 'I' for Inactive)
REMARK    1  A    between atoms: N9_1  and  C1*_12
REMARK    2  A    between atoms: C6_8  and  O6_23
REMARK    3  A    between atoms: C2*_13  and  O2*_16
REMARK    4  A    between atoms: C3*_14  and  O3*_18
REMARK    5  A    between atoms: C4*_15  and  C5*_20
REMARK    6  A    between atoms: C5*_20  and  O5*_21
REMARK                            x       y       z     vdW  Elec       q    Type
REMARK                         _______ _______ _______ _____ _____    ______ ____
ROOT
ATOM      1  N9  I   A   1      35.519 -24.044 -14.722  0.00  0.00    -0.257 N 
ATOM      2  N7  I   A   1      37.602 -23.003 -14.317  0.00  0.00    -0.268 NA
ATOM      3  N3  I   A   1      35.025 -24.513 -12.344  0.00  0.00    -0.232 NA
ATOM      4  N1  I   A   1      36.763 -23.809 -10.802  0.00  0.00    -0.213 NA
ATOM      5  C8  I   A   1      36.579 -23.242 -15.336  0.00  0.00    +0.169 C 
ATOM      6  C4  I   A   1      35.785 -24.026 -13.339  0.00  0.00    +0.132 C 
ATOM      7  C5  I   A   1      37.008 -23.400 -13.128  0.00  0.00    +0.186 C 
ATOM      8  C6  I   A   1      37.476 -23.331 -11.844  0.00  0.00    +0.216 C 
ATOM      9  C2  I   A   1      35.571 -24.370 -11.116  0.00  0.00    +0.254 C 
ATOM     10  H7  I   A   1      38.509 -22.641 -14.447  0.00  0.00    +0.126 HD
ENDROOT
BRANCH   1  12
ATOM     11  O4* I   A   1      34.299 -24.427 -16.679  0.00  0.00    -0.333 OA
ATOM     12  C1* I   A   1      34.200 -24.205 -15.263  0.00  0.00    +0.224 C 
ATOM     13  C2* I   A   1      33.342 -22.965 -15.078  0.00  0.00    +0.187 C 
ATOM     14  C3* I   A   1      32.423 -23.037 -16.280  0.00  0.00    +0.171 C 
ATOM     15  C4* I   A   1      33.350 -23.576 -17.360  0.00  0.00    +0.175 C 
BRANCH  13  16
ATOM     16  O2* I   A   1      32.632 -22.971 -13.858  0.00  0.00    -0.378 OA
ATOM     17  H2* I   A   1      31.899 -23.604 -13.913  0.00  0.00    +0.211 HD
ENDBRANCH  13  16
BRANCH  14  18
ATOM     18  O3* I   A   1      31.396 -24.004 -16.059  0.00  0.00    -0.379 OA
ATOM     19  H3* I   A   1      31.553 -24.455 -15.215  0.00  0.00    +0.211 HD
ENDBRANCH  14  18
BRANCH  15  20
ATOM     20  C5* I   A   1      34.128 -22.485 -18.085  0.00  0.00    +0.169 C 
BRANCH  20  21
ATOM     21  O5* I   A   1      34.617 -23.012 -19.305  0.00  0.00    -0.379 OA
ATOM     22  H5* I   A   1      34.254 -23.901 -19.443  0.00  0.00    +0.211 HD
ENDBRANCH  20  21
ENDBRANCH  15  20
ENDBRANCH   1  12
BRANCH   8  23
ATOM     23  O6  I   A   1      38.688 -22.765 -11.571  0.00  0.00    -0.494 OA
ATOM     24  H6  I   A   1      39.394 -22.852 -12.181  0.00  0.00    +0.293 HD
ENDBRANCH   8  23
TORSDOF 6
ENDMDL
MODEL 8
REMARK VINA RESULT:      -7.8      2.198      3.450
REMARK  Name = 5288579
REMARK  6 active torsions:
REMARK  status: ('A' for Active; 'I' for Inactive)
REMARK    1  A    between atoms: N9_1  and  C1*_12
REMARK    2  A    between atoms: C6_8  and  O6_23
REMARK    3  A    between atoms: C2*_13  and  O2*_16
REMARK    4  A    between atoms: C3*_14  and  O3*_18
REMARK    5  A    between atoms: C4*_15  and  C5*_20
REMARK    6  A    between atoms: C5*_20  and  O5*_21
REMARK                            x       y       z     vdW  Elec       q    Type
REMARK                         _______ _______ _______ _____ _____    ______ ____
ROOT
ATOM      1  N9  I   A   1      34.981 -24.484 -14.667  0.00  0.00    -0.257 N 
ATOM      2  N7  I   A   1      33.127 -23.777 -13.385  0.00  0.00    -0.268 NA
ATOM      3  N3  I   A   1      34.035 -23.795 -16.847  0.00  0.00    -0.232 NA
ATOM      4  N1  I   A   1      31.809 -22.837 -16.715  0.00  0.00    -0.213 NA
ATOM      5  C8  I   A   1      34.515 -24.233 -13.303  0.00  0.00    +0.169 C 
ATOM      6  C4  I   A   1      33.999 -23.929 -15.511  0.00  0.00    +0.132 C 
ATOM      7  C5  I   A   1      32.926 -23.511 -14.731  0.00  0.00    +0.186 C 
ATOM      8  C6  I   A   1      31.837 -22.990 -15.374  0.00  0.00    +0.216 C 
ATOM      9  C2  I   A   1      32.919 -23.246 -17.374  0.00  0.00    +0.254 C 
ATOM     10  H7  I   A   1      32.480 -23.681 -12.648  0.00  0.00    +0.126 HD
ENDROOT
BRANCH   1  12
ATOM     11  O4* I   A   1      36.879 -25.842 -14.517  0.00  0.00    -0.333 OA
ATOM     12  C1* I   A   1      36.358 -24.613 -15.049  0.00  0.00    +0.224 C 
ATOM     13  C2* I   A   1      37.223 -23.497 -14.487  0.00  0.00    +0.187 C 
ATOM     14  C3* I   A   1      38.562 -24.186 -14.331  0.00  0.00    +0.171 C 
ATOM     15  C4* I   A   1      38.154 -25.584 -13.888  0.00  0.00    +0.175 C 
BRANCH  13  16
ATOM     16  O2* I   A   1      37.291 -22.377 -15.344  0.00  0.00    -0.378 OA
ATOM     17  H2* I   A   1      37.378 -22.676 -16.262  0.00  0.00    +0.211 HD
ENDBRANCH  13  16
BRANCH  14  18
ATOM     18  O3* I   A   1      39.210 -24.298 -15.598  0.00  0.00    -0.379 OA
ATOM     19  H3* I   A   1      40.011 -23.750 -15.601  0.00  0.00    +0.211 HD
ENDBRANCH  14  18
BRANCH  15  20
ATOM     20  C5* I   A   1      37.972 -25.709 -12.381  0.00  0.00    +0.169 C 
BRANCH  20  21
ATOM     21  O5* I   A   1      36.827 -26.502 -12.126  0.00  0.00    -0.379 OA
ATOM     22  H5* I   A   1      36.207 -26.005 -11.570  0.00  0.00    +0.211 HD
ENDBRANCH  20  21
ENDBRANCH  15  20
ENDBRANCH   1  12
BRANCH   8  23
ATOM     23  O6  I   A   1      30.734 -22.598 -14.672  0.00  0.00    -0.494 OA
ATOM     24  H6  I   A   1      30.820 -22.318 -13.782  0.00  0.00    +0.293 HD
ENDBRANCH   8  23
TORSDOF 6
ENDMDL
MODEL 9
REMARK VINA RESULT:      -7.6      1.700      2.550
REMARK  Name = 5288579
REMARK  6 active torsions:
REMARK  status: ('A' for Active; 'I' for Inactive)
REMARK    1  A    between atoms: N9_1  and  C1*_12
REMARK    2  A    between atoms: C6_8  and  O6_23
REMARK    3  A    between atoms: C2*_13  and  O2*_16
REMARK    4  A    between atoms: C3*_14  and  O3*_18
REMARK    5  A    between atoms: C4*_15  and  C5*_20
REMARK    6  A    between atoms: C5*_20  and  O5*_21
REMARK                            x       y       z     vdW  Elec       q    Type
REMARK                         _______ _______ _______ _____ _____    ______ ____
ROOT
ATOM      1  N9  I   A   1      35.681 -23.505 -15.340  0.00  0.00    -0.257 N 
ATOM      2  N7  I   A   1      33.528 -23.627 -16.307  0.00  0.00    -0.268 NA
ATOM      3  N3  I   A   1      36.700 -22.230 -17.199  0.00  0.00    -0.232 NA
ATOM      4  N1  I   A   1      35.189 -21.763 -19.041  0.00  0.00    -0.213 NA
ATOM      5  C8  I   A   1      34.283 -23.850 -15.074  0.00  0.00    +0.169 C 
ATOM      6  C4  I   A   1      35.677 -22.847 -16.586  0.00  0.00    +0.132 C 
ATOM      7  C5  I   A   1      34.399 -22.924 -17.127  0.00  0.00    +0.186 C 
ATOM      8  C6  I   A   1      34.199 -22.389 -18.370  0.00  0.00    +0.216 C 
ATOM      9  C2  I   A   1      36.387 -21.716 -18.409  0.00  0.00    +0.254 C 
ATOM     10  H7  I   A   1      32.608 -23.914 -16.510  0.00  0.00    +0.126 HD
ENDROOT
BRANCH   1  12
ATOM     11  O4* I   A   1      37.932 -23.782 -14.771  0.00  0.00    -0.333 OA
ATOM     12  C1* I   A   1      36.668 -23.258 -14.329  0.00  0.00    +0.224 C 
ATOM     13  C2* I   A   1      36.344 -23.957 -13.019  0.00  0.00    +0.187 C 
ATOM     14  C3* I   A   1      37.724 -24.215 -12.451  0.00  0.00    +0.171 C 
ATOM     15  C4* I   A   1      38.527 -24.548 -13.700  0.00  0.00    +0.175 C 
BRANCH  13  16
ATOM     16  O2* I   A   1      35.550 -23.164 -12.162  0.00  0.00    -0.378 OA
ATOM     17  H2* I   A   1      36.120 -22.573 -11.647  0.00  0.00    +0.211 HD
ENDBRANCH  13  16
BRANCH  14  18
ATOM     18  O3* I   A   1      38.259 -23.016 -11.891  0.00  0.00    -0.379 OA
ATOM     19  H3* I   A   1      39.124 -23.202 -11.494  0.00  0.00    +0.211 HD
ENDBRANCH  14  18
BRANCH  15  20
ATOM     20  C5* I   A   1      38.465 -26.021 -14.081  0.00  0.00    +0.169 C 
BRANCH  20  21
ATOM     21  O5* I   A   1      38.908 -26.164 -15.418  0.00  0.00    -0.379 OA
ATOM     22  H5* I   A   1      38.292 -26.735 -15.904  0.00  0.00    +0.211 HD
ENDBRANCH  20  21
ENDBRANCH  15  20
ENDBRANCH   1  12
BRANCH   8  23
ATOM     23  O6  I   A   1      32.979 -22.466 -18.976  0.00  0.00    -0.494 OA
ATOM     24  H6  I   A   1      32.240 -22.795 -18.502  0.00  0.00    +0.293 HD
ENDBRANCH   8  23
TORSDOF 6
ENDMDL
