MODEL 1
REMARK VINA RESULT:      -7.9      0.000      0.000
REMARK  Name = 151483
REMARK  8 active torsions:
REMARK  status: ('A' for Active; 'I' for Inactive)
REMARK    1  A    between atoms: N_2  and  CA_15
REMARK    2  A    between atoms: C_3  and  C_5
REMARK    3  A    between atoms: C_6  and  O_11
REMARK    4  A    between atoms: C_8  and  O_13
REMARK    5  A    between atoms: CA_15  and  C_17
REMARK    6  A    between atoms: CA_15  and  CB_20
REMARK    7  A    between atoms: C_17  and  O_18
REMARK    8  A    between atoms: CB_20  and  O_21
REMARK                            x       y       z     vdW  Elec       q    Type
REMARK                         _______ _______ _______ _____ _____    ______ ____
ROOT
ATOM      1  O   UNL     1      35.560 -22.866 -14.986  0.00  0.00    -0.270 OA
ATOM      2  N   UNL     1      35.497 -25.124 -14.462  0.00  0.00    -0.291 N 
ATOM      3  C   ACE A   0      34.930 -23.901 -14.786  0.00  0.00    +0.249 C 
ATOM      4  H   UNL     1      34.905 -25.898 -14.321  0.00  0.00    +0.150 HD
ENDROOT
BRANCH   3   5
ATOM      5  C   UNL     1      33.447 -23.872 -14.865  0.00  0.00    +0.090 C 
ATOM      6  C   UNL     1      32.691 -24.409 -13.843  0.00  0.00    +0.172 C 
ATOM      7  C   UNL     1      32.868 -23.298 -15.980  0.00  0.00    +0.008 C 
ATOM      8  C   UNL     1      31.300 -24.371 -13.938  0.00  0.00    +0.168 C 
ATOM      9  C   UNL     1      31.477 -23.260 -16.075  0.00  0.00    +0.003 C 
ATOM     10  C   UNL     1      30.693 -23.797 -15.055  0.00  0.00    +0.040 C 
BRANCH   6  11
ATOM     11  O   UNL     1      33.278 -24.973 -12.748  0.00  0.00    -0.503 OA
ATOM     12  H   UNL     1      32.830 -24.975 -11.925  0.00  0.00    +0.292 HD
ENDBRANCH   6  11
BRANCH   8  13
ATOM     13  O   UNL     1      30.522 -24.891 -12.947  0.00  0.00    -0.503 OA
ATOM     14  H   UNL     1      29.625 -24.631 -12.871  0.00  0.00    +0.292 HD
ENDBRANCH   8  13
ENDBRANCH   3   5
BRANCH   2  15
ATOM     15  CA  UNL     1      36.921 -25.306 -14.322  0.00  0.00    +0.201 C 
BRANCH  15  17
ATOM     16  OXT UNL     1      38.263 -27.301 -14.702  0.00  0.00    -0.248 OA
ATOM     17  C   UNL     1      37.270 -26.633 -14.962  0.00  0.00    +0.334 C 
BRANCH  17  18
ATOM     18  O   UNL     1      36.370 -26.990 -15.915  0.00  0.00    -0.479 OA
ATOM     19  H   UNL     1      36.462 -26.669 -16.790  0.00  0.00    +0.295 HD
ENDBRANCH  17  18
ENDBRANCH  15  17
BRANCH  15  20
ATOM     20  CB  UNL     1      37.350 -25.286 -12.863  0.00  0.00    +0.168 C 
BRANCH  20  21
ATOM     21  O   UNL     1      36.839 -26.442 -12.210  0.00  0.00    -0.380 OA
ATOM     22  H   UNL     1      36.396 -27.011 -12.858  0.00  0.00    +0.211 HD
ENDBRANCH  20  21
ENDBRANCH  15  20
ENDBRANCH   2  15
TORSDOF 8
ENDMDL
MODEL 2
REMARK VINA RESULT:      -7.7      2.090      3.293
REMARK  Name = 151483
REMARK  8 active torsions:
REMARK  status: ('A' for Active; 'I' for Inactive)
REMARK    1  A    between atoms: N_2  and  CA_15
REMARK    2  A    between atoms: C_3  and  C_5
REMARK    3  A    between atoms: C_6  and  O_11
REMARK    4  A    between atoms: C_8  and  O_13
REMARK    5  A    between atoms: CA_15  and  C_17
REMARK    6  A    between atoms: CA_15  and  CB_20
REMARK    7  A    between atoms: C_17  and  O_18
REMARK    8  A    between atoms: CB_20  and  O_21
REMARK                            x       y       z     vdW  Elec       q    Type
REMARK                         _______ _______ _______ _____ _____    ______ ____
ROOT
ATOM      1  O   UNL     1      35.691 -25.105 -15.435  0.00  0.00    -0.270 OA
ATOM      2  N   UNL     1      35.397 -23.654 -13.650  0.00  0.00    -0.291 N 
ATOM      3  C   ACE A   0      35.037 -24.244 -14.853  0.00  0.00    +0.249 C 
ATOM      4  H   UNL     1      34.804 -22.970 -13.263  0.00  0.00    +0.150 HD
ENDROOT
BRANCH   3   5
ATOM      5  C   UNL     1      33.774 -23.755 -15.465  0.00  0.00    +0.090 C 
ATOM      6  C   UNL     1      33.782 -23.248 -16.748  0.00  0.00    +0.172 C 
ATOM      7  C   UNL     1      32.618 -23.830 -14.712  0.00  0.00    +0.008 C 
ATOM      8  C   UNL     1      32.584 -22.795 -17.303  0.00  0.00    +0.168 C 
ATOM      9  C   UNL     1      31.421 -23.378 -15.268  0.00  0.00    +0.003 C 
ATOM     10  C   UNL     1      31.404 -22.860 -16.562  0.00  0.00    +0.040 C 
BRANCH   6  11
ATOM     11  O   UNL     1      34.932 -23.180 -17.478  0.00  0.00    -0.503 OA
ATOM     12  H   UNL     1      35.715 -23.583 -17.156  0.00  0.00    +0.292 HD
ENDBRANCH   6  11
BRANCH   8  13
ATOM     13  O   UNL     1      32.553 -22.287 -18.567  0.00  0.00    -0.503 OA
ATOM     14  H   UNL     1      31.733 -22.061 -18.961  0.00  0.00    +0.292 HD
ENDBRANCH   8  13
ENDBRANCH   3   5
BRANCH   2  15
ATOM     15  CA  UNL     1      36.607 -24.003 -12.947  0.00  0.00    +0.201 C 
BRANCH  15  17
ATOM     16  OXT UNL     1      37.008 -26.090 -11.760  0.00  0.00    -0.248 OA
ATOM     17  C   UNL     1      36.270 -25.146 -12.012  0.00  0.00    +0.334 C 
BRANCH  17  18
ATOM     18  O   UNL     1      35.013 -25.037 -11.509  0.00  0.00    -0.479 OA
ATOM     19  H   UNL     1      34.666 -24.193 -11.294  0.00  0.00    +0.295 HD
ENDBRANCH  17  18
ENDBRANCH  15  17
BRANCH  15  20
ATOM     20  CB  UNL     1      37.165 -22.822 -12.168  0.00  0.00    +0.168 C 
BRANCH  20  21
ATOM     21  O   UNL     1      37.141 -23.125 -10.779  0.00  0.00    -0.380 OA
ATOM     22  H   UNL     1      37.131 -24.087 -10.657  0.00  0.00    +0.211 HD
ENDBRANCH  20  21
ENDBRANCH  15  20
ENDBRANCH   2  15
TORSDOF 8
ENDMDL
MODEL 3
REMARK VINA RESULT:      -7.5      1.556      2.157
REMARK  Name = 151483
REMARK  8 active torsions:
REMARK  status: ('A' for Active; 'I' for Inactive)
REMARK    1  A    between atoms: N_2  and  CA_15
REMARK    2  A    between atoms: C_3  and  C_5
REMARK    3  A    between atoms: C_6  and  O_11
REMARK    4  A    between atoms: C_8  and  O_13
REMARK    5  A    between atoms: CA_15  and  C_17
REMARK    6  A    between atoms: CA_15  and  CB_20
REMARK    7  A    between atoms: C_17  and  O_18
REMARK    8  A    between atoms: CB_20  and  O_21
REMARK                            x       y       z     vdW  Elec       q    Type
REMARK                         _______ _______ _______ _____ _____    ______ ____
ROOT
ATOM      1  O   UNL     1      35.988 -24.898 -15.504  0.00  0.00    -0.270 OA
ATOM      2  N   UNL     1      35.620 -23.821 -13.483  0.00  0.00    -0.291 N 
ATOM      3  C   ACE A   0      35.247 -24.294 -14.732  0.00  0.00    +0.249 C 
ATOM      4  H   UNL     1      34.951 -23.348 -12.937  0.00  0.00    +0.150 HD
ENDROOT
BRANCH   3   5
ATOM      5  C   UNL     1      33.848 -24.010 -15.145  0.00  0.00    +0.090 C 
ATOM      6  C   UNL     1      32.802 -24.354 -14.314  0.00  0.00    +0.172 C 
ATOM      7  C   UNL     1      33.644 -23.399 -16.367  0.00  0.00    +0.008 C 
ATOM      8  C   UNL     1      31.496 -24.078 -14.721  0.00  0.00    +0.168 C 
ATOM      9  C   UNL     1      32.338 -23.123 -16.773  0.00  0.00    +0.003 C 
ATOM     10  C   UNL     1      31.265 -23.463 -15.951  0.00  0.00    +0.040 C 
BRANCH   6  11
ATOM     11  O   UNL     1      33.021 -24.958 -13.110  0.00  0.00    -0.503 OA
ATOM     12  H   UNL     1      32.967 -24.457 -12.319  0.00  0.00    +0.292 HD
ENDBRANCH   6  11
BRANCH   8  13
ATOM     13  O   UNL     1      30.438 -24.404 -13.927  0.00  0.00    -0.503 OA
ATOM     14  H   UNL     1      29.623 -23.952 -14.023  0.00  0.00    +0.292 HD
ENDBRANCH   8  13
ENDBRANCH   3   5
BRANCH   2  15
ATOM     15  CA  UNL     1      36.950 -23.996 -12.953  0.00  0.00    +0.201 C 
BRANCH  15  17
ATOM     16  OXT UNL     1      37.868 -26.018 -11.955  0.00  0.00    -0.248 OA
ATOM     17  C   UNL     1      36.931 -25.242 -12.092  0.00  0.00    +0.334 C 
BRANCH  17  18
ATOM     18  O   UNL     1      35.719 -25.439 -11.511  0.00  0.00    -0.479 OA
ATOM     19  H   UNL     1      35.444 -26.305 -11.282  0.00  0.00    +0.295 HD
ENDBRANCH  17  18
ENDBRANCH  15  17
BRANCH  15  20
ATOM     20  CB  UNL     1      37.393 -22.790 -12.139  0.00  0.00    +0.168 C 
BRANCH  20  21
ATOM     21  O   UNL     1      37.300 -23.100 -10.754  0.00  0.00    -0.380 OA
ATOM     22  H   UNL     1      38.112 -23.544 -10.465  0.00  0.00    +0.211 HD
ENDBRANCH  20  21
ENDBRANCH  15  20
ENDBRANCH   2  15
TORSDOF 8
ENDMDL
MODEL 4
REMARK VINA RESULT:      -7.5      1.398      2.042
REMARK  Name = 151483
REMARK  8 active torsions:
REMARK  status: ('A' for Active; 'I' for Inactive)
REMARK    1  A    between atoms: N_2  and  CA_15
REMARK    2  A    between atoms: C_3  and  C_5
REMARK    3  A    between atoms: C_6  and  O_11
REMARK    4  A    between atoms: C_8  and  O_13
REMARK    5  A    between atoms: CA_15  and  C_17
REMARK    6  A    between atoms: CA_15  and  CB_20
REMARK    7  A    between atoms: C_17  and  O_18
REMARK    8  A    between atoms: CB_20  and  O_21
REMARK                            x       y       z     vdW  Elec       q    Type
REMARK                         _______ _______ _______ _____ _____    ______ ____
ROOT
ATOM      1  O   UNL     1      34.132 -23.986 -12.820  0.00  0.00    -0.270 OA
ATOM      2  N   UNL     1      34.922 -24.951 -14.775  0.00  0.00    -0.291 N 
ATOM      3  C   ACE A   0      33.959 -24.345 -13.982  0.00  0.00    +0.249 C 
ATOM      4  H   UNL     1      34.685 -25.202 -15.697  0.00  0.00    +0.150 HD
ENDROOT
BRANCH   3   5
ATOM      5  C   UNL     1      32.626 -24.152 -14.609  0.00  0.00    +0.090 C 
ATOM      6  C   UNL     1      31.526 -24.817 -14.107  0.00  0.00    +0.172 C 
ATOM      7  C   UNL     1      32.535 -23.298 -15.690  0.00  0.00    +0.008 C 
ATOM      8  C   UNL     1      30.284 -24.622 -14.710  0.00  0.00    +0.168 C 
ATOM      9  C   UNL     1      31.293 -23.103 -16.294  0.00  0.00    +0.003 C 
ATOM     10  C   UNL     1      30.168 -23.764 -15.805  0.00  0.00    +0.040 C 
BRANCH   6  11
ATOM     11  O   UNL     1      31.632 -25.658 -13.038  0.00  0.00    -0.503 OA
ATOM     12  H   UNL     1      31.499 -25.331 -12.169  0.00  0.00    +0.292 HD
ENDBRANCH   6  11
BRANCH   8  13
ATOM     13  O   UNL     1      29.175 -25.262 -14.242  0.00  0.00    -0.503 OA
ATOM     14  H   UNL     1      29.171 -25.618 -13.375  0.00  0.00    +0.292 HD
ENDBRANCH   8  13
ENDBRANCH   3   5
BRANCH   2  15
ATOM     15  CA  UNL     1      36.255 -25.229 -14.301  0.00  0.00    +0.201 C 
BRANCH  15  17
ATOM     16  OXT UNL     1      38.245 -23.835 -14.453  0.00  0.00    -0.248 OA
ATOM     17  C   UNL     1      37.178 -24.203 -14.926  0.00  0.00    +0.334 C 
BRANCH  17  18
ATOM     18  O   UNL     1      36.659 -23.684 -16.070  0.00  0.00    -0.479 OA
ATOM     19  H   UNL     1      37.149 -23.055 -16.563  0.00  0.00    +0.295 HD
ENDBRANCH  17  18
ENDBRANCH  15  17
BRANCH  15  20
ATOM     20  CB  UNL     1      36.698 -26.637 -14.663  0.00  0.00    +0.168 C 
BRANCH  20  21
ATOM     21  O   UNL     1      37.516 -26.586 -15.826  0.00  0.00    -0.380 OA
ATOM     22  H   UNL     1      37.323 -27.349 -16.392  0.00  0.00    +0.211 HD
ENDBRANCH  20  21
ENDBRANCH  15  20
ENDBRANCH   2  15
TORSDOF 8
ENDMDL
MODEL 5
REMARK VINA RESULT:      -7.5      1.701      2.849
REMARK  Name = 151483
REMARK  8 active torsions:
REMARK  status: ('A' for Active; 'I' for Inactive)
REMARK    1  A    between atoms: N_2  and  CA_15
REMARK    2  A    between atoms: C_3  and  C_5
REMARK    3  A    between atoms: C_6  and  O_11
REMARK    4  A    between atoms: C_8  and  O_13
REMARK    5  A    between atoms: CA_15  and  C_17
REMARK    6  A    between atoms: CA_15  and  CB_20
REMARK    7  A    between atoms: C_17  and  O_18
REMARK    8  A    between atoms: CB_20  and  O_21
REMARK                            x       y       z     vdW  Elec       q    Type
REMARK                         _______ _______ _______ _____ _____    ______ ____
ROOT
ATOM      1  O   UNL     1      34.807 -23.842 -13.051  0.00  0.00    -0.270 OA
ATOM      2  N   UNL     1      35.495 -25.117 -14.861  0.00  0.00    -0.291 N 
ATOM      3  C   ACE A   0      34.638 -24.253 -14.196  0.00  0.00    +0.249 C 
ATOM      4  H   UNL     1      35.271 -25.390 -15.781  0.00  0.00    +0.150 HD
ENDROOT
BRANCH   3   5
ATOM      5  C   UNL     1      33.426 -23.833 -14.945  0.00  0.00    +0.090 C 
ATOM      6  C   UNL     1      33.542 -23.380 -16.243  0.00  0.00    +0.172 C 
ATOM      7  C   UNL     1      32.206 -23.914 -14.303  0.00  0.00    +0.008 C 
ATOM      8  C   UNL     1      32.391 -22.990 -16.929  0.00  0.00    +0.168 C 
ATOM      9  C   UNL     1      31.055 -23.525 -14.989  0.00  0.00    +0.003 C 
ATOM     10  C   UNL     1      31.147 -23.063 -16.301  0.00  0.00    +0.040 C 
BRANCH   6  11
ATOM     11  O   UNL     1      34.755 -23.305 -16.864  0.00  0.00    -0.503 OA
ATOM     12  H   UNL     1      35.450 -22.812 -16.474  0.00  0.00    +0.292 HD
ENDBRANCH   6  11
BRANCH   8  13
ATOM     13  O   UNL     1      32.466 -22.537 -18.212  0.00  0.00    -0.503 OA
ATOM     14  H   UNL     1      31.761 -22.698 -18.808  0.00  0.00    +0.292 HD
ENDBRANCH   8  13
ENDBRANCH   3   5
BRANCH   2  15
ATOM     15  CA  UNL     1      36.698 -25.634 -14.258  0.00  0.00    +0.201 C 
BRANCH  15  17
ATOM     16  OXT UNL     1      38.805 -24.460 -13.924  0.00  0.00    -0.248 OA
ATOM     17  C   UNL     1      37.825 -24.689 -14.620  0.00  0.00    +0.334 C 
BRANCH  17  18
ATOM     18  O   UNL     1      37.604 -24.068 -15.808  0.00  0.00    -0.479 OA
ATOM     19  H   UNL     1      38.314 -23.928 -16.404  0.00  0.00    +0.295 HD
ENDBRANCH  17  18
ENDBRANCH  15  17
BRANCH  15  20
ATOM     20  CB  UNL     1      37.008 -27.043 -14.737  0.00  0.00    +0.168 C 
BRANCH  20  21
ATOM     21  O   UNL     1      36.838 -27.105 -16.148  0.00  0.00    -0.380 OA
ATOM     22  H   UNL     1      36.030 -26.631 -16.399  0.00  0.00    +0.211 HD
ENDBRANCH  20  21
ENDBRANCH  15  20
ENDBRANCH   2  15
TORSDOF 8
ENDMDL
MODEL 6
REMARK VINA RESULT:      -7.5      4.381      7.030
REMARK  Name = 151483
REMARK  8 active torsions:
REMARK  status: ('A' for Active; 'I' for Inactive)
REMARK    1  A    between atoms: N_2  and  CA_15
REMARK    2  A    between atoms: C_3  and  C_5
REMARK    3  A    between atoms: C_6  and  O_11
REMARK    4  A    between atoms: C_8  and  O_13
REMARK    5  A    between atoms: CA_15  and  C_17
REMARK    6  A    between atoms: CA_15  and  CB_20
REMARK    7  A    between atoms: C_17  and  O_18
REMARK    8  A    between atoms: CB_20  and  O_21
REMARK                            x       y       z     vdW  Elec       q    Type
REMARK                         _______ _______ _______ _____ _____    ______ ____
ROOT
ATOM      1  O   UNL     1      33.765 -23.860 -18.792  0.00  0.00    -0.270 OA
ATOM      2  N   UNL     1      32.468 -22.414 -17.526  0.00  0.00    -0.291 N 
ATOM      3  C   ACE A   0      33.341 -22.732 -18.555  0.00  0.00    +0.249 C 
ATOM      4  H   UNL     1      32.186 -21.477 -17.418  0.00  0.00    +0.150 HD
ENDROOT
BRANCH   3   5
ATOM      5  C   UNL     1      33.794 -21.597 -19.399  0.00  0.00    +0.090 C 
ATOM      6  C   UNL     1      35.142 -21.334 -19.535  0.00  0.00    +0.172 C 
ATOM      7  C   UNL     1      32.831 -20.832 -20.028  0.00  0.00    +0.008 C 
ATOM      8  C   UNL     1      35.545 -20.263 -20.333  0.00  0.00    +0.168 C 
ATOM      9  C   UNL     1      33.235 -19.761 -20.826  0.00  0.00    +0.003 C 
ATOM     10  C   UNL     1      34.591 -19.476 -20.978  0.00  0.00    +0.040 C 
BRANCH   6  11
ATOM     11  O   UNL     1      36.081 -22.099 -18.906  0.00  0.00    -0.503 OA
ATOM     12  H   UNL     1      35.918 -22.422 -18.042  0.00  0.00    +0.292 HD
ENDBRANCH   6  11
BRANCH   8  13
ATOM     13  O   UNL     1      36.868 -19.974 -20.490  0.00  0.00    -0.503 OA
ATOM     14  H   UNL     1      37.498 -20.667 -20.527  0.00  0.00    +0.292 HD
ENDBRANCH   8  13
ENDBRANCH   3   5
BRANCH   2  15
ATOM     15  CA  UNL     1      31.960 -23.402 -16.606  0.00  0.00    +0.201 C 
BRANCH  15  17
ATOM     16  OXT UNL     1      29.858 -22.226 -16.958  0.00  0.00    -0.248 OA
ATOM     17  C   UNL     1      30.469 -23.169 -16.474  0.00  0.00    +0.334 C 
BRANCH  17  18
ATOM     18  O   UNL     1      29.875 -24.113 -15.698  0.00  0.00    -0.479 OA
ATOM     19  H   UNL     1      29.197 -23.869 -15.099  0.00  0.00    +0.295 HD
ENDBRANCH  17  18
ENDBRANCH  15  17
BRANCH  15  20
ATOM     20  CB  UNL     1      32.638 -23.308 -15.249  0.00  0.00    +0.168 C 
BRANCH  20  21
ATOM     21  O   UNL     1      31.873 -22.461 -14.400  0.00  0.00    -0.380 OA
ATOM     22  H   UNL     1      31.780 -21.588 -14.812  0.00  0.00    +0.211 HD
ENDBRANCH  20  21
ENDBRANCH  15  20
ENDBRANCH   2  15
TORSDOF 8
ENDMDL
MODEL 7
REMARK VINA RESULT:      -7.4      8.256     10.683
REMARK  Name = 151483
REMARK  8 active torsions:
REMARK  status: ('A' for Active; 'I' for Inactive)
REMARK    1  A    between atoms: N_2  and  CA_15
REMARK    2  A    between atoms: C_3  and  C_5
REMARK    3  A    between atoms: C_6  and  O_11
REMARK    4  A    between atoms: C_8  and  O_13
REMARK    5  A    between atoms: CA_15  and  C_17
REMARK    6  A    between atoms: CA_15  and  CB_20
REMARK    7  A    between atoms: C_17  and  O_18
REMARK    8  A    between atoms: CB_20  and  O_21
REMARK                            x       y       z     vdW  Elec       q    Type
REMARK                         _______ _______ _______ _____ _____    ______ ____
ROOT
ATOM      1  O   UNL     1      36.313 -18.546 -22.314  0.00  0.00    -0.270 OA
ATOM      2  N   UNL     1      34.517 -17.215 -21.696  0.00  0.00    -0.291 N 
ATOM      3  C   ACE A   0      35.261 -18.385 -21.700  0.00  0.00    +0.249 C 
ATOM      4  H   UNL     1      33.685 -17.186 -21.170  0.00  0.00    +0.150 HD
ENDROOT
BRANCH   3   5
ATOM      5  C   UNL     1      34.704 -19.514 -20.911  0.00  0.00    +0.090 C 
ATOM      6  C   UNL     1      35.549 -20.348 -20.209  0.00  0.00    +0.172 C 
ATOM      7  C   UNL     1      33.334 -19.689 -20.908  0.00  0.00    +0.008 C 
ATOM      8  C   UNL     1      35.005 -21.401 -19.474  0.00  0.00    +0.168 C 
ATOM      9  C   UNL     1      32.789 -20.742 -20.174  0.00  0.00    +0.003 C 
ATOM     10  C   UNL     1      33.624 -21.598 -19.457  0.00  0.00    +0.040 C 
BRANCH   6  11
ATOM     11  O   UNL     1      36.901 -20.162 -20.222  0.00  0.00    -0.503 OA
ATOM     12  H   UNL     1      37.329 -19.889 -21.010  0.00  0.00    +0.292 HD
ENDBRANCH   6  11
BRANCH   8  13
ATOM     13  O   UNL     1      35.809 -22.245 -18.768  0.00  0.00    -0.503 OA
ATOM     14  H   UNL     1      36.459 -22.753 -19.213  0.00  0.00    +0.292 HD
ENDBRANCH   8  13
ENDBRANCH   3   5
BRANCH   2  15
ATOM     15  CA  UNL     1      34.913 -16.041 -22.434  0.00  0.00    +0.201 C 
BRANCH  15  17
ATOM     16  OXT UNL     1      33.704 -13.947 -22.159  0.00  0.00    -0.248 OA
ATOM     17  C   UNL     1      34.393 -14.837 -21.678  0.00  0.00    +0.334 C 
BRANCH  17  18
ATOM     18  O   UNL     1      34.822 -14.822 -20.389  0.00  0.00    -0.479 OA
ATOM     19  H   UNL     1      35.659 -14.456 -20.178  0.00  0.00    +0.295 HD
ENDBRANCH  17  18
ENDBRANCH  15  17
BRANCH  15  20
ATOM     20  CB  UNL     1      34.367 -16.059 -23.853  0.00  0.00    +0.168 C 
BRANCH  20  21
ATOM     21  O   UNL     1      35.300 -16.712 -24.706  0.00  0.00    -0.380 OA
ATOM     22  H   UNL     1      34.868 -16.941 -25.544  0.00  0.00    +0.211 HD
ENDBRANCH  20  21
ENDBRANCH  15  20
ENDBRANCH   2  15
TORSDOF 8
ENDMDL
MODEL 8
REMARK VINA RESULT:      -7.3      8.207     10.545
REMARK  Name = 151483
REMARK  8 active torsions:
REMARK  status: ('A' for Active; 'I' for Inactive)
REMARK    1  A    between atoms: N_2  and  CA_15
REMARK    2  A    between atoms: C_3  and  C_5
REMARK    3  A    between atoms: C_6  and  O_11
REMARK    4  A    between atoms: C_8  and  O_13
REMARK    5  A    between atoms: CA_15  and  C_17
REMARK    6  A    between atoms: CA_15  and  CB_20
REMARK    7  A    between atoms: C_17  and  O_18
REMARK    8  A    between atoms: CB_20  and  O_21
REMARK                            x       y       z     vdW  Elec       q    Type
REMARK                         _______ _______ _______ _____ _____    ______ ____
ROOT
ATOM      1  O   UNL     1      36.675 -18.551 -22.398  0.00  0.00    -0.270 OA
ATOM      2  N   UNL     1      34.903 -17.448 -21.387  0.00  0.00    -0.291 N 
ATOM      3  C   ACE A   0      35.765 -18.518 -21.573  0.00  0.00    +0.249 C 
ATOM      4  H   UNL     1      34.203 -17.519 -20.698  0.00  0.00    +0.150 HD
ENDROOT
BRANCH   3   5
ATOM      5  C   UNL     1      35.527 -19.704 -20.711  0.00  0.00    +0.090 C 
ATOM      6  C   UNL     1      34.253 -20.218 -20.583  0.00  0.00    +0.172 C 
ATOM      7  C   UNL     1      36.610 -20.258 -20.057  0.00  0.00    +0.008 C 
ATOM      8  C   UNL     1      34.051 -21.332 -19.768  0.00  0.00    +0.168 C 
ATOM      9  C   UNL     1      36.408 -21.372 -19.242  0.00  0.00    +0.003 C 
ATOM     10  C   UNL     1      35.129 -21.909 -19.097  0.00  0.00    +0.040 C 
BRANCH   6  11
ATOM     11  O   UNL     1      33.193 -19.658 -21.235  0.00  0.00    -0.503 OA
ATOM     12  H   UNL     1      32.528 -19.211 -20.750  0.00  0.00    +0.292 HD
ENDBRANCH   6  11
BRANCH   8  13
ATOM     13  O   UNL     1      32.807 -21.867 -19.618  0.00  0.00    -0.503 OA
ATOM     14  H   UNL     1      32.116 -21.618 -20.201  0.00  0.00    +0.292 HD
ENDBRANCH   8  13
ENDBRANCH   3   5
BRANCH   2  15
ATOM     15  CA  UNL     1      34.991 -16.237 -22.165  0.00  0.00    +0.201 C 
BRANCH  15  17
ATOM     16  OXT UNL     1      33.291 -14.542 -21.759  0.00  0.00    -0.248 OA
ATOM     17  C   UNL     1      34.286 -15.148 -21.384  0.00  0.00    +0.334 C 
BRANCH  17  18
ATOM     18  O   UNL     1      34.920 -14.871 -20.214  0.00  0.00    -0.479 OA
ATOM     19  H   UNL     1      35.747 -14.431 -20.222  0.00  0.00    +0.295 HD
ENDBRANCH  17  18
ENDBRANCH  15  17
BRANCH  15  20
ATOM     20  CB  UNL     1      34.359 -16.404 -23.538  0.00  0.00    +0.168 C 
BRANCH  20  21
ATOM     21  O   UNL     1      35.375 -16.702 -24.488  0.00  0.00    -0.380 OA
ATOM     22  H   UNL     1      35.056 -16.493 -25.380  0.00  0.00    +0.211 HD
ENDBRANCH  20  21
ENDBRANCH  15  20
ENDBRANCH   2  15
TORSDOF 8
ENDMDL
MODEL 9
REMARK VINA RESULT:      -7.3      8.451     10.500
REMARK  Name = 151483
REMARK  8 active torsions:
REMARK  status: ('A' for Active; 'I' for Inactive)
REMARK    1  A    between atoms: N_2  and  CA_15
REMARK    2  A    between atoms: C_3  and  C_5
REMARK    3  A    between atoms: C_6  and  O_11
REMARK    4  A    between atoms: C_8  and  O_13
REMARK    5  A    between atoms: CA_15  and  C_17
REMARK    6  A    between atoms: CA_15  and  CB_20
REMARK    7  A    between atoms: C_17  and  O_18
REMARK    8  A    between atoms: CB_20  and  O_21
REMARK                            x       y       z     vdW  Elec       q    Type
REMARK                         _______ _______ _______ _____ _____    ______ ____
ROOT
ATOM      1  O   UNL     1      33.578 -17.599 -20.821  0.00  0.00    -0.270 OA
ATOM      2  N   UNL     1      34.661 -18.361 -22.725  0.00  0.00    -0.291 N 
ATOM      3  C   ACE A   0      34.219 -18.463 -21.414  0.00  0.00    +0.249 C 
ATOM      4  H   UNL     1      35.169 -19.110 -23.112  0.00  0.00    +0.150 HD
ENDROOT
BRANCH   3   5
ATOM      5  C   UNL     1      34.585 -19.713 -20.700  0.00  0.00    +0.090 C 
ATOM      6  C   UNL     1      33.598 -20.514 -20.163  0.00  0.00    +0.172 C 
ATOM      7  C   UNL     1      35.924 -20.034 -20.599  0.00  0.00    +0.008 C 
ATOM      8  C   UNL     1      33.963 -21.683 -19.496  0.00  0.00    +0.168 C 
ATOM      9  C   UNL     1      36.290 -21.203 -19.932  0.00  0.00    +0.003 C 
ATOM     10  C   UNL     1      35.310 -22.027 -19.381  0.00  0.00    +0.040 C 
BRANCH   6  11
ATOM     11  O   UNL     1      32.278 -20.182 -20.271  0.00  0.00    -0.503 OA
ATOM     12  H   UNL     1      31.828 -20.311 -21.083  0.00  0.00    +0.292 HD
ENDBRANCH   6  11
BRANCH   8  13
ATOM     13  O   UNL     1      33.016 -22.498 -18.953  0.00  0.00    -0.503 OA
ATOM     14  H   UNL     1      32.722 -22.354 -18.075  0.00  0.00    +0.292 HD
ENDBRANCH   8  13
ENDBRANCH   3   5
BRANCH   2  15
ATOM     15  CA  UNL     1      34.408 -17.198 -23.540  0.00  0.00    +0.201 C 
BRANCH  15  17
ATOM     16  OXT UNL     1      34.821 -16.850 -25.914  0.00  0.00    -0.248 OA
ATOM     17  C   UNL     1      34.592 -17.614 -24.985  0.00  0.00    +0.334 C 
BRANCH  17  18
ATOM     18  O   UNL     1      34.422 -18.951 -25.154  0.00  0.00    -0.479 OA
ATOM     19  H   UNL     1      33.836 -19.423 -24.596  0.00  0.00    +0.295 HD
ENDBRANCH  17  18
ENDBRANCH  15  17
BRANCH  15  20
ATOM     20  CB  UNL     1      35.344 -16.052 -23.191  0.00  0.00    +0.168 C 
BRANCH  20  21
ATOM     21  O   UNL     1      34.727 -14.820 -23.546  0.00  0.00    -0.380 OA
ATOM     22  H   UNL     1      35.325 -14.086 -23.338  0.00  0.00    +0.211 HD
ENDBRANCH  20  21
ENDBRANCH  15  20
ENDBRANCH   2  15
TORSDOF 8
ENDMDL
