MODEL 1
REMARK VINA RESULT:      -9.4      0.000      0.000
REMARK  Name = 5288867
REMARK  12 active torsions:
REMARK  status: ('A' for Active; 'I' for Inactive)
REMARK    1  A    between atoms: CA_1  and  C_4
REMARK    2  A    between atoms: CA_1  and  N_14
REMARK    3  A    between atoms: CA_1  and  CB_26
REMARK    4  A    between atoms: N_3  and  CA_6
REMARK    5  A    between atoms: CA_6  and  C_8
REMARK    6  A    between atoms: CA_6  and  C_9
REMARK    7  A    between atoms: C_9  and  C_10
REMARK    8  A    between atoms: C_10  and  C_11
REMARK    9  A    between atoms: C_15  and  O_17
REMARK   10  A    between atoms: O_17  and  C_18
REMARK   11  A    between atoms: C_18  and  C_20
REMARK   12  A    between atoms: CB_26  and  CG_27
REMARK                            x       y       z     vdW  Elec       q    Type
REMARK                         _______ _______ _______ _____ _____    ______ ____
ROOT
ATOM      1  CA  UNL     1      33.055 -23.005 -14.308  0.00  0.00    +0.151 C 
ENDROOT
BRANCH   1   4
ATOM      2  O   UNL     1      33.306 -25.108 -13.125  0.00  0.00    -0.273 OA
ATOM      3  N   UNL     1      35.091 -23.621 -13.161  0.00  0.00    -0.298 N 
ATOM      4  C   UNL     1      33.798 -24.031 -13.458  0.00  0.00    +0.241 C 
ATOM      5  H   UNL     1      35.385 -22.737 -13.476  0.00  0.00    +0.150 HD
BRANCH   3   6
ATOM      6  CA  UNL     1      36.026 -24.430 -12.410  0.00  0.00    +0.137 C 
BRANCH   6   8
ATOM      7  O   UNL     1      35.263 -25.118 -10.216  0.00  0.00    -0.286 OA
ATOM      8  C   UNL     1      35.649 -24.220 -10.958  0.00  0.00    +0.227 C 
ENDBRANCH   6   8
BRANCH   6   9
ATOM      9  C   UNL     1      37.467 -24.032 -12.723  0.00  0.00    +0.028 C 
BRANCH   9  10
ATOM     10  C   UNL     1      38.014 -24.730 -13.973  0.00  0.00    +0.002 C 
BRANCH  10  11
ATOM     11  C   UNL     1      39.297 -25.501 -13.659  0.00  0.00    +0.000 C 
ATOM     12  C   UNL     1      40.235 -25.532 -14.856  0.00  0.00    +0.000 C 
ENDBRANCH  10  11
ENDBRANCH   9  10
ENDBRANCH   6   9
ENDBRANCH   3   6
ENDBRANCH   1   4
BRANCH   1  14
ATOM     13  O   UNL     1      35.531 -22.490 -15.735  0.00  0.00    -0.226 OA
ATOM     14  N   UNL     1      33.357 -23.298 -15.685  0.00  0.00    -0.264 N 
ATOM     15  C   UNL     1      34.570 -23.016 -16.284  0.00  0.00    +0.402 C 
ATOM     16  H   UNL     1      32.658 -23.724 -16.232  0.00  0.00    +0.153 HD
BRANCH  15  17
ATOM     17  O   UNL     1      34.544 -23.412 -17.592  0.00  0.00    -0.430 OA
BRANCH  17  18
ATOM     18  C   UNL     1      33.490 -22.861 -18.391  0.00  0.00    +0.237 C 
BRANCH  18  20
ATOM     19 BR   UNL     1      35.806 -18.402 -21.989  0.00  0.00    -0.049 Br
ATOM     20  C   UNL     1      34.052 -21.778 -19.264  0.00  0.00    +0.021 C 
ATOM     21  C   UNL     1      35.432 -21.670 -19.440  0.00  0.00    -0.000 C 
ATOM     22  C   UNL     1      33.195 -20.880 -19.901  0.00  0.00    -0.000 C 
ATOM     23  C   UNL     1      35.954 -20.663 -20.252  0.00  0.00    +0.006 C 
ATOM     24  C   UNL     1      33.718 -19.874 -20.713  0.00  0.00    +0.006 C 
ATOM     25  C   UNL     1      35.096 -19.765 -20.888  0.00  0.00    +0.035 C 
ENDBRANCH  18  20
ENDBRANCH  17  18
ENDBRANCH  15  17
ENDBRANCH   1  14
BRANCH   1  26
ATOM     26  CB  UNL     1      31.550 -23.067 -14.018  0.00  0.00    +0.029 C 
BRANCH  26  27
ATOM     27  CG  UNL     1      30.705 -23.734 -15.123  0.00  0.00    +0.002 C 
ATOM     28  CD1 UNL     1      30.182 -25.110 -14.707  0.00  0.00    +0.000 C 
ATOM     29  CD2 UNL     1      29.528 -22.825 -15.490  0.00  0.00    +0.000 C 
ENDBRANCH  26  27
ENDBRANCH   1  26
TORSDOF 12
ENDMDL
MODEL 2
REMARK VINA RESULT:      -9.3      1.325      1.896
REMARK  Name = 5288867
REMARK  12 active torsions:
REMARK  status: ('A' for Active; 'I' for Inactive)
REMARK    1  A    between atoms: CA_1  and  C_4
REMARK    2  A    between atoms: CA_1  and  N_14
REMARK    3  A    between atoms: CA_1  and  CB_26
REMARK    4  A    between atoms: N_3  and  CA_6
REMARK    5  A    between atoms: CA_6  and  C_8
REMARK    6  A    between atoms: CA_6  and  C_9
REMARK    7  A    between atoms: C_9  and  C_10
REMARK    8  A    between atoms: C_10  and  C_11
REMARK    9  A    between atoms: C_15  and  O_17
REMARK   10  A    between atoms: O_17  and  C_18
REMARK   11  A    between atoms: C_18  and  C_20
REMARK   12  A    between atoms: CB_26  and  CG_27
REMARK                            x       y       z     vdW  Elec       q    Type
REMARK                         _______ _______ _______ _____ _____    ______ ____
ROOT
ATOM      1  CA  UNL     1      34.158 -23.122 -15.481  0.00  0.00    +0.151 C 
ENDROOT
BRANCH   1   4
ATOM      2  O   UNL     1      35.472 -25.153 -15.302  0.00  0.00    -0.273 OA
ATOM      3  N   UNL     1      35.438 -23.679 -13.507  0.00  0.00    -0.298 N 
ATOM      4  C   UNL     1      35.076 -24.115 -14.774  0.00  0.00    +0.241 C 
ATOM      5  H   UNL     1      35.062 -22.830 -13.180  0.00  0.00    +0.150 HD
BRANCH   3   6
ATOM      6  CA  UNL     1      36.341 -24.408 -12.645  0.00  0.00    +0.137 C 
BRANCH   6   8
ATOM      7  O   UNL     1      35.410 -25.031 -10.496  0.00  0.00    -0.286 OA
ATOM      8  C   UNL     1      35.835 -24.152 -11.240  0.00  0.00    +0.227 C 
ENDBRANCH   6   8
BRANCH   6   9
ATOM      9  C   UNL     1      37.785 -23.958 -12.858  0.00  0.00    +0.028 C 
BRANCH   9  10
ATOM     10  C   UNL     1      38.737 -25.131 -13.110  0.00  0.00    +0.002 C 
BRANCH  10  11
ATOM     11  C   UNL     1      38.980 -25.335 -14.607  0.00  0.00    +0.000 C 
ATOM     12  C   UNL     1      40.465 -25.430 -14.923  0.00  0.00    +0.000 C 
ENDBRANCH  10  11
ENDBRANCH   9  10
ENDBRANCH   6   9
ENDBRANCH   3   6
ENDBRANCH   1   4
BRANCH   1  14
ATOM     13  O   UNL     1      36.740 -21.885 -15.968  0.00  0.00    -0.226 OA
ATOM     14  N   UNL     1      34.764 -22.815 -16.751  0.00  0.00    -0.264 N 
ATOM     15  C   UNL     1      36.004 -22.222 -16.889  0.00  0.00    +0.402 C 
ATOM     16  H   UNL     1      34.265 -23.042 -17.568  0.00  0.00    +0.153 HD
BRANCH  15  17
ATOM     17  O   UNL     1      36.296 -22.063 -18.214  0.00  0.00    -0.430 OA
BRANCH  17  18
ATOM     18  C   UNL     1      35.179 -22.106 -19.110  0.00  0.00    +0.237 C 
BRANCH  18  20
ATOM     19 BR   UNL     1      35.054 -16.893 -22.427  0.00  0.00    -0.049 Br
ATOM     20  C   UNL     1      35.149 -20.840 -19.915  0.00  0.00    +0.021 C 
ATOM     21  C   UNL     1      33.930 -20.322 -20.354  0.00  0.00    -0.000 C 
ATOM     22  C   UNL     1      36.339 -20.182 -20.225  0.00  0.00    -0.000 C 
ATOM     23  C   UNL     1      33.903 -19.146 -21.103  0.00  0.00    +0.006 C 
ATOM     24  C   UNL     1      36.311 -19.005 -20.974  0.00  0.00    +0.006 C 
ATOM     25  C   UNL     1      35.093 -18.487 -21.413  0.00  0.00    +0.035 C 
ENDBRANCH  18  20
ENDBRANCH  17  18
ENDBRANCH  15  17
ENDBRANCH   1  14
BRANCH   1  26
ATOM     26  CB  UNL     1      32.753 -23.717 -15.637  0.00  0.00    +0.029 C 
BRANCH  26  27
ATOM     27  CG  UNL     1      31.864 -23.618 -14.381  0.00  0.00    +0.002 C 
ATOM     28  CD1 UNL     1      30.495 -23.008 -14.681  0.00  0.00    +0.000 C 
ATOM     29  CD2 UNL     1      31.684 -25.010 -13.765  0.00  0.00    +0.000 C 
ENDBRANCH  26  27
ENDBRANCH   1  26
TORSDOF 12
ENDMDL
MODEL 3
REMARK VINA RESULT:      -9.3      1.919      2.850
REMARK  Name = 5288867
REMARK  12 active torsions:
REMARK  status: ('A' for Active; 'I' for Inactive)
REMARK    1  A    between atoms: CA_1  and  C_4
REMARK    2  A    between atoms: CA_1  and  N_14
REMARK    3  A    between atoms: CA_1  and  CB_26
REMARK    4  A    between atoms: N_3  and  CA_6
REMARK    5  A    between atoms: CA_6  and  C_8
REMARK    6  A    between atoms: CA_6  and  C_9
REMARK    7  A    between atoms: C_9  and  C_10
REMARK    8  A    between atoms: C_10  and  C_11
REMARK    9  A    between atoms: C_15  and  O_17
REMARK   10  A    between atoms: O_17  and  C_18
REMARK   11  A    between atoms: C_18  and  C_20
REMARK   12  A    between atoms: CB_26  and  CG_27
REMARK                            x       y       z     vdW  Elec       q    Type
REMARK                         _______ _______ _______ _____ _____    ______ ____
ROOT
ATOM      1  CA  UNL     1      33.765 -23.565 -15.334  0.00  0.00    +0.151 C 
ENDROOT
BRANCH   1   4
ATOM      2  O   UNL     1      35.974 -22.782 -14.710  0.00  0.00    -0.273 OA
ATOM      3  N   UNL     1      35.594 -25.069 -14.852  0.00  0.00    -0.298 N 
ATOM      4  C   UNL     1      35.231 -23.733 -14.948  0.00  0.00    +0.241 C 
ATOM      5  H   UNL     1      34.920 -25.753 -15.065  0.00  0.00    +0.150 HD
BRANCH   3   6
ATOM      6  CA  UNL     1      36.913 -25.506 -14.453  0.00  0.00    +0.137 C 
BRANCH   6   8
ATOM      7  O   UNL     1      36.517 -27.161 -16.178  0.00  0.00    -0.286 OA
ATOM      8  C   UNL     1      37.119 -26.830 -15.161  0.00  0.00    +0.227 C 
ENDBRANCH   6   8
BRANCH   6   9
ATOM      9  C   UNL     1      37.019 -25.612 -12.933  0.00  0.00    +0.028 C 
BRANCH   9  10
ATOM     10  C   UNL     1      37.902 -24.517 -12.326  0.00  0.00    +0.002 C 
BRANCH  10  11
ATOM     11  C   UNL     1      37.074 -23.538 -11.490  0.00  0.00    +0.000 C 
ATOM     12  C   UNL     1      35.675 -24.073 -11.231  0.00  0.00    +0.000 C 
ENDBRANCH  10  11
ENDBRANCH   9  10
ENDBRANCH   6   9
ENDBRANCH   3   6
ENDBRANCH   1   4
BRANCH   1  14
ATOM     13  O   UNL     1      31.494 -22.697 -16.923  0.00  0.00    -0.226 OA
ATOM     14  N   UNL     1      33.727 -23.303 -16.750  0.00  0.00    -0.264 N 
ATOM     15  C   UNL     1      32.595 -22.891 -17.426  0.00  0.00    +0.402 C 
ATOM     16  H   UNL     1      34.556 -23.424 -17.265  0.00  0.00    +0.153 HD
BRANCH  15  17
ATOM     17  O   UNL     1      32.881 -22.729 -18.752  0.00  0.00    -0.430 OA
BRANCH  17  18
ATOM     18  C   UNL     1      34.259 -22.505 -19.071  0.00  0.00    +0.237 C 
BRANCH  18  20
ATOM     19 BR   UNL     1      34.767 -17.217 -22.228  0.00  0.00    -0.049 Br
ATOM     20  C   UNL     1      34.383 -21.221 -19.837  0.00  0.00    +0.021 C 
ATOM     21  C   UNL     1      35.643 -20.733 -20.183  0.00  0.00    -0.000 C 
ATOM     22  C   UNL     1      33.237 -20.515 -20.204  0.00  0.00    -0.000 C 
ATOM     23  C   UNL     1      35.756 -19.539 -20.895  0.00  0.00    +0.006 C 
ATOM     24  C   UNL     1      33.351 -19.321 -20.916  0.00  0.00    +0.006 C 
ATOM     25  C   UNL     1      34.610 -18.833 -21.262  0.00  0.00    +0.035 C 
ENDBRANCH  18  20
ENDBRANCH  17  18
ENDBRANCH  15  17
ENDBRANCH   1  14
BRANCH   1  26
ATOM     26  CB  UNL     1      32.970 -24.820 -14.955  0.00  0.00    +0.029 C 
BRANCH  26  27
ATOM     27  CG  UNL     1      31.886 -24.601 -13.879  0.00  0.00    +0.002 C 
ATOM     28  CD1 UNL     1      31.695 -23.123 -13.536  0.00  0.00    +0.000 C 
ATOM     29  CD2 UNL     1      30.558 -25.195 -14.357  0.00  0.00    +0.000 C 
ENDBRANCH  26  27
ENDBRANCH   1  26
TORSDOF 12
ENDMDL
MODEL 4
REMARK VINA RESULT:      -9.1      1.531      2.540
REMARK  Name = 5288867
REMARK  12 active torsions:
REMARK  status: ('A' for Active; 'I' for Inactive)
REMARK    1  A    between atoms: CA_1  and  C_4
REMARK    2  A    between atoms: CA_1  and  N_14
REMARK    3  A    between atoms: CA_1  and  CB_26
REMARK    4  A    between atoms: N_3  and  CA_6
REMARK    5  A    between atoms: CA_6  and  C_8
REMARK    6  A    between atoms: CA_6  and  C_9
REMARK    7  A    between atoms: C_9  and  C_10
REMARK    8  A    between atoms: C_10  and  C_11
REMARK    9  A    between atoms: C_15  and  O_17
REMARK   10  A    between atoms: O_17  and  C_18
REMARK   11  A    between atoms: C_18  and  C_20
REMARK   12  A    between atoms: CB_26  and  CG_27
REMARK                            x       y       z     vdW  Elec       q    Type
REMARK                         _______ _______ _______ _____ _____    ______ ____
ROOT
ATOM      1  CA  UNL     1      32.881 -23.699 -14.796  0.00  0.00    +0.151 C 
ENDROOT
BRANCH   1   4
ATOM      2  O   UNL     1      34.377 -23.871 -12.894  0.00  0.00    -0.273 OA
ATOM      3  N   UNL     1      35.273 -23.414 -14.987  0.00  0.00    -0.298 N 
ATOM      4  C   UNL     1      34.237 -23.661 -14.098  0.00  0.00    +0.241 C 
ATOM      5  H   UNL     1      35.051 -23.258 -15.933  0.00  0.00    +0.150 HD
BRANCH   3   6
ATOM      6  CA  UNL     1      36.664 -23.375 -14.594  0.00  0.00    +0.137 C 
BRANCH   6   8
ATOM      7  O   UNL     1      37.204 -21.652 -16.210  0.00  0.00    -0.286 OA
ATOM      8  C   UNL     1      37.393 -22.788 -15.785  0.00  0.00    +0.227 C 
ENDBRANCH   6   8
BRANCH   6   9
ATOM      9  C   UNL     1      37.163 -24.767 -14.207  0.00  0.00    +0.028 C 
BRANCH   9  10
ATOM     10  C   UNL     1      38.388 -24.720 -13.289  0.00  0.00    +0.002 C 
BRANCH  10  11
ATOM     11  C   UNL     1      39.424 -25.769 -13.696  0.00  0.00    +0.000 C 
ATOM     12  C   UNL     1      40.244 -25.310 -14.891  0.00  0.00    +0.000 C 
ENDBRANCH  10  11
ENDBRANCH   9  10
ENDBRANCH   6   9
ENDBRANCH   3   6
ENDBRANCH   1   4
BRANCH   1  14
ATOM     13  O   UNL     1      31.016 -22.652 -16.760  0.00  0.00    -0.226 OA
ATOM     14  N   UNL     1      33.118 -23.453 -16.195  0.00  0.00    -0.264 N 
ATOM     15  C   UNL     1      32.166 -22.951 -17.061  0.00  0.00    +0.402 C 
ATOM     16  H   UNL     1      34.012 -23.655 -16.555  0.00  0.00    +0.153 HD
BRANCH  15  17
ATOM     17  O   UNL     1      32.696 -22.832 -18.314  0.00  0.00    -0.430 OA
BRANCH  17  18
ATOM     18  C   UNL     1      34.114 -22.633 -18.377  0.00  0.00    +0.237 C 
BRANCH  18  20
ATOM     19 BR   UNL     1      35.340 -18.082 -22.373  0.00  0.00    -0.049 Br
ATOM     20  C   UNL     1      34.411 -21.528 -19.347  0.00  0.00    +0.021 C 
ATOM     21  C   UNL     1      33.366 -20.829 -19.951  0.00  0.00    -0.000 C 
ATOM     22  C   UNL     1      35.734 -21.200 -19.646  0.00  0.00    -0.000 C 
ATOM     23  C   UNL     1      33.644 -19.802 -20.853  0.00  0.00    +0.006 C 
ATOM     24  C   UNL     1      36.011 -20.173 -20.548  0.00  0.00    +0.006 C 
ATOM     25  C   UNL     1      34.966 -19.474 -21.152  0.00  0.00    +0.035 C 
ENDBRANCH  18  20
ENDBRANCH  17  18
ENDBRANCH  15  17
ENDBRANCH   1  14
BRANCH   1  26
ATOM     26  CB  UNL     1      32.198 -25.050 -14.552  0.00  0.00    +0.029 C 
BRANCH  26  27
ATOM     27  CG  UNL     1      30.831 -24.967 -13.843  0.00  0.00    +0.002 C 
ATOM     28  CD1 UNL     1      30.556 -23.577 -13.268  0.00  0.00    +0.000 C 
ATOM     29  CD2 UNL     1      29.717 -25.349 -14.823  0.00  0.00    +0.000 C 
ENDBRANCH  26  27
ENDBRANCH   1  26
TORSDOF 12
ENDMDL
MODEL 5
REMARK VINA RESULT:      -8.8      1.655      5.779
REMARK  Name = 5288867
REMARK  12 active torsions:
REMARK  status: ('A' for Active; 'I' for Inactive)
REMARK    1  A    between atoms: CA_1  and  C_4
REMARK    2  A    between atoms: CA_1  and  N_14
REMARK    3  A    between atoms: CA_1  and  CB_26
REMARK    4  A    between atoms: N_3  and  CA_6
REMARK    5  A    between atoms: CA_6  and  C_8
REMARK    6  A    between atoms: CA_6  and  C_9
REMARK    7  A    between atoms: C_9  and  C_10
REMARK    8  A    between atoms: C_10  and  C_11
REMARK    9  A    between atoms: C_15  and  O_17
REMARK   10  A    between atoms: O_17  and  C_18
REMARK   11  A    between atoms: C_18  and  C_20
REMARK   12  A    between atoms: CB_26  and  CG_27
REMARK                            x       y       z     vdW  Elec       q    Type
REMARK                         _______ _______ _______ _____ _____    ______ ____
ROOT
ATOM      1  CA  UNL     1      33.694 -23.982 -14.004  0.00  0.00    +0.151 C 
ENDROOT
BRANCH   1   4
ATOM      2  O   UNL     1      31.791 -23.233 -12.700  0.00  0.00    -0.273 OA
ATOM      3  N   UNL     1      31.455 -23.872 -14.908  0.00  0.00    -0.298 N 
ATOM      4  C   UNL     1      32.220 -23.665 -13.769  0.00  0.00    +0.241 C 
ATOM      5  H   UNL     1      31.900 -24.221 -15.713  0.00  0.00    +0.150 HD
BRANCH   3   6
ATOM      6  CA  UNL     1      30.037 -23.598 -14.971  0.00  0.00    +0.137 C 
BRANCH   6   8
ATOM      7  O   UNL     1      29.985 -26.021 -14.948  0.00  0.00    -0.286 OA
ATOM      8  C   UNL     1      29.372 -24.958 -14.907  0.00  0.00    +0.227 C 
ENDBRANCH   6   8
BRANCH   6   9
ATOM      9  C   UNL     1      29.685 -22.814 -16.234  0.00  0.00    +0.028 C 
BRANCH   9  10
ATOM     10  C   UNL     1      28.484 -23.405 -16.980  0.00  0.00    +0.002 C 
BRANCH  10  11
ATOM     11  C   UNL     1      27.351 -22.384 -17.100  0.00  0.00    +0.000 C 
ATOM     12  C   UNL     1      26.745 -22.061 -15.744  0.00  0.00    +0.000 C 
ENDBRANCH  10  11
ENDBRANCH   9  10
ENDBRANCH   6   9
ENDBRANCH   3   6
ENDBRANCH   1   4
BRANCH   1  14
ATOM     13  O   UNL     1      35.736 -24.866 -15.871  0.00  0.00    -0.226 OA
ATOM     14  N   UNL     1      34.061 -23.381 -15.261  0.00  0.00    -0.264 N 
ATOM     15  C   UNL     1      35.052 -23.872 -16.089  0.00  0.00    +0.402 C 
ATOM     16  H   UNL     1      33.578 -22.572 -15.545  0.00  0.00    +0.153 HD
BRANCH  15  17
ATOM     17  O   UNL     1      35.160 -23.083 -17.199  0.00  0.00    -0.430 OA
BRANCH  17  18
ATOM     18  C   UNL     1      33.944 -22.844 -17.917  0.00  0.00    +0.237 C 
BRANCH  18  20
ATOM     19 BR   UNL     1      34.992 -18.633 -22.317  0.00  0.00    -0.049 Br
ATOM     20  C   UNL     1      34.198 -21.822 -18.985  0.00  0.00    +0.021 C 
ATOM     21  C   UNL     1      33.127 -21.163 -19.590  0.00  0.00    -0.000 C 
ATOM     22  C   UNL     1      35.506 -21.530 -19.374  0.00  0.00    -0.000 C 
ATOM     23  C   UNL     1      33.365 -20.214 -20.583  0.00  0.00    +0.006 C 
ATOM     24  C   UNL     1      35.743 -20.580 -20.367  0.00  0.00    +0.006 C 
ATOM     25  C   UNL     1      34.673 -19.922 -20.972  0.00  0.00    +0.035 C 
ENDBRANCH  18  20
ENDBRANCH  17  18
ENDBRANCH  15  17
ENDBRANCH   1  14
BRANCH   1  26
ATOM     26  CB  UNL     1      34.542 -23.457 -12.840  0.00  0.00    +0.029 C 
BRANCH  26  27
ATOM     27  CG  UNL     1      35.700 -24.383 -12.413  0.00  0.00    +0.002 C 
ATOM     28  CD1 UNL     1      37.068 -23.824 -12.805  0.00  0.00    +0.000 C 
ATOM     29  CD2 UNL     1      35.650 -24.606 -10.898  0.00  0.00    +0.000 C 
ENDBRANCH  26  27
ENDBRANCH   1  26
TORSDOF 12
ENDMDL
MODEL 6
REMARK VINA RESULT:      -8.8      7.629     12.420
REMARK  Name = 5288867
REMARK  12 active torsions:
REMARK  status: ('A' for Active; 'I' for Inactive)
REMARK    1  A    between atoms: CA_1  and  C_4
REMARK    2  A    between atoms: CA_1  and  N_14
REMARK    3  A    between atoms: CA_1  and  CB_26
REMARK    4  A    between atoms: N_3  and  CA_6
REMARK    5  A    between atoms: CA_6  and  C_8
REMARK    6  A    between atoms: CA_6  and  C_9
REMARK    7  A    between atoms: C_9  and  C_10
REMARK    8  A    between atoms: C_10  and  C_11
REMARK    9  A    between atoms: C_15  and  O_17
REMARK   10  A    between atoms: O_17  and  C_18
REMARK   11  A    between atoms: C_18  and  C_20
REMARK   12  A    between atoms: CB_26  and  CG_27
REMARK                            x       y       z     vdW  Elec       q    Type
REMARK                         _______ _______ _______ _____ _____    ______ ____
ROOT
ATOM      1  CA  UNL     1      34.089 -14.539 -22.891  0.00  0.00    +0.151 C 
ENDROOT
BRANCH   1   4
ATOM      2  O   UNL     1      32.049 -14.951 -21.644  0.00  0.00    -0.273 OA
ATOM      3  N   UNL     1      32.594 -12.765 -22.213  0.00  0.00    -0.298 N 
ATOM      4  C   UNL     1      32.792 -14.139 -22.193  0.00  0.00    +0.241 C 
ATOM      5  H   UNL     1      33.252 -12.204 -22.683  0.00  0.00    +0.150 HD
BRANCH   3   6
ATOM      6  CA  UNL     1      31.467 -12.118 -21.579  0.00  0.00    +0.137 C 
BRANCH   6   8
ATOM      7  O   UNL     1      32.136 -10.271 -22.998  0.00  0.00    -0.286 OA
ATOM      8  C   UNL     1      31.250 -10.844 -22.369  0.00  0.00    +0.227 C 
ENDBRANCH   6   8
BRANCH   6   9
ATOM      9  C   UNL     1      31.743 -11.869 -20.097  0.00  0.00    +0.028 C 
BRANCH   9  10
ATOM     10  C   UNL     1      31.113 -10.567 -19.591  0.00  0.00    +0.002 C 
BRANCH  10  11
ATOM     11  C   UNL     1      32.183  -9.586 -19.108  0.00  0.00    +0.000 C 
ATOM     12  C   UNL     1      32.306  -8.392 -20.041  0.00  0.00    +0.000 C 
ENDBRANCH  10  11
ENDBRANCH   9  10
ENDBRANCH   6   9
ENDBRANCH   3   6
ENDBRANCH   1   4
BRANCH   1  14
ATOM     13  O   UNL     1      35.134 -16.279 -20.813  0.00  0.00    -0.226 OA
ATOM     14  N   UNL     1      34.143 -15.979 -22.889  0.00  0.00    -0.264 N 
ATOM     15  C   UNL     1      34.662 -16.728 -21.851  0.00  0.00    +0.402 C 
ATOM     16  H   UNL     1      33.790 -16.456 -23.675  0.00  0.00    +0.153 HD
BRANCH  15  17
ATOM     17  O   UNL     1      34.571 -18.058 -22.150  0.00  0.00    -0.430 OA
BRANCH  17  18
ATOM     18  C   UNL     1      35.653 -18.877 -21.691  0.00  0.00    +0.237 C 
BRANCH  18  20
ATOM     19 BR   UNL     1      33.438 -23.198 -17.869  0.00  0.00    -0.049 Br
ATOM     20  C   UNL     1      35.115 -19.926 -20.763  0.00  0.00    +0.021 C 
ATOM     21  C   UNL     1      33.738 -20.057 -20.582  0.00  0.00    -0.000 C 
ATOM     22  C   UNL     1      35.992 -20.770 -20.082  0.00  0.00    -0.000 C 
ATOM     23  C   UNL     1      33.239 -21.032 -19.718  0.00  0.00    +0.006 C 
ATOM     24  C   UNL     1      35.492 -21.746 -19.219  0.00  0.00    +0.006 C 
ATOM     25  C   UNL     1      34.116 -21.876 -19.037  0.00  0.00    +0.035 C 
ENDBRANCH  18  20
ENDBRANCH  17  18
ENDBRANCH  15  17
ENDBRANCH   1  14
BRANCH   1  26
ATOM     26  CB  UNL     1      34.128 -13.959 -24.310  0.00  0.00    +0.029 C 
BRANCH  26  27
ATOM     27  CG  UNL     1      33.149 -14.614 -25.305  0.00  0.00    +0.002 C 
ATOM     28  CD1 UNL     1      32.881 -13.734 -26.526  0.00  0.00    +0.000 C 
ATOM     29  CD2 UNL     1      33.704 -15.968 -25.759  0.00  0.00    +0.000 C 
ENDBRANCH  26  27
ENDBRANCH   1  26
TORSDOF 12
ENDMDL
MODEL 7
REMARK VINA RESULT:      -8.7      7.250     10.803
REMARK  Name = 5288867
REMARK  12 active torsions:
REMARK  status: ('A' for Active; 'I' for Inactive)
REMARK    1  A    between atoms: CA_1  and  C_4
REMARK    2  A    between atoms: CA_1  and  N_14
REMARK    3  A    between atoms: CA_1  and  CB_26
REMARK    4  A    between atoms: N_3  and  CA_6
REMARK    5  A    between atoms: CA_6  and  C_8
REMARK    6  A    between atoms: CA_6  and  C_9
REMARK    7  A    between atoms: C_9  and  C_10
REMARK    8  A    between atoms: C_10  and  C_11
REMARK    9  A    between atoms: C_15  and  O_17
REMARK   10  A    between atoms: O_17  and  C_18
REMARK   11  A    between atoms: C_18  and  C_20
REMARK   12  A    between atoms: CB_26  and  CG_27
REMARK                            x       y       z     vdW  Elec       q    Type
REMARK                         _______ _______ _______ _____ _____    ______ ____
ROOT
ATOM      1  CA  UNL     1      34.143 -16.390 -22.604  0.00  0.00    +0.151 C 
ENDROOT
BRANCH   1   4
ATOM      2  O   UNL     1      35.233 -16.778 -20.473  0.00  0.00    -0.273 OA
ATOM      3  N   UNL     1      34.174 -18.555 -21.530  0.00  0.00    -0.298 N 
ATOM      4  C   UNL     1      34.600 -17.239 -21.422  0.00  0.00    +0.241 C 
ATOM      5  H   UNL     1      33.673 -18.820 -22.334  0.00  0.00    +0.150 HD
BRANCH   3   6
ATOM      6  CA  UNL     1      34.430 -19.557 -20.520  0.00  0.00    +0.137 C 
BRANCH   6   8
ATOM      7  O   UNL     1      36.779 -19.834 -19.994  0.00  0.00    -0.286 OA
ATOM      8  C   UNL     1      35.850 -20.019 -20.775  0.00  0.00    +0.227 C 
ENDBRANCH   6   8
BRANCH   6   9
ATOM      9  C   UNL     1      33.405 -20.687 -20.597  0.00  0.00    +0.028 C 
BRANCH   9  10
ATOM     10  C   UNL     1      33.064 -21.269 -19.221  0.00  0.00    +0.002 C 
BRANCH  10  11
ATOM     11  C   UNL     1      33.936 -22.485 -18.903  0.00  0.00    +0.000 C 
ATOM     12  C   UNL     1      33.418 -23.241 -17.690  0.00  0.00    +0.000 C 
ENDBRANCH  10  11
ENDBRANCH   9  10
ENDBRANCH   6   9
ENDBRANCH   3   6
ENDBRANCH   1   4
BRANCH   1  14
ATOM     13  O   UNL     1      31.830 -15.681 -20.997  0.00  0.00    -0.226 OA
ATOM     14  N   UNL     1      33.793 -15.093 -22.085  0.00  0.00    -0.264 N 
ATOM     15  C   UNL     1      32.665 -14.847 -21.325  0.00  0.00    +0.402 C 
ATOM     16  H   UNL     1      34.392 -14.338 -22.283  0.00  0.00    +0.153 HD
BRANCH  15  17
ATOM     17  O   UNL     1      32.615 -13.524 -20.987  0.00  0.00    -0.430 OA
BRANCH  17  18
ATOM     18  C   UNL     1      31.632 -12.740 -21.673  0.00  0.00    +0.237 C 
BRANCH  18  20
ATOM     19 BR   UNL     1      32.386  -6.793 -20.174  0.00  0.00    -0.049 Br
ATOM     20  C   UNL     1      31.815 -11.296 -21.309  0.00  0.00    +0.021 C 
ATOM     21  C   UNL     1      31.651 -10.884 -19.986  0.00  0.00    -0.000 C 
ATOM     22  C   UNL     1      32.148 -10.366 -22.293  0.00  0.00    -0.000 C 
ATOM     23  C   UNL     1      31.821  -9.541 -19.649  0.00  0.00    +0.006 C 
ATOM     24  C   UNL     1      32.319  -9.023 -21.955  0.00  0.00    +0.006 C 
ATOM     25  C   UNL     1      32.155  -8.611 -20.634  0.00  0.00    +0.035 C 
ENDBRANCH  18  20
ENDBRANCH  17  18
ENDBRANCH  15  17
ENDBRANCH   1  14
BRANCH   1  26
ATOM     26  CB  UNL     1      35.251 -16.312 -23.661  0.00  0.00    +0.029 C 
BRANCH  26  27
ATOM     27  CG  UNL     1      34.833 -16.768 -25.074  0.00  0.00    +0.002 C 
ATOM     28  CD1 UNL     1      34.357 -18.221 -25.101  0.00  0.00    +0.000 C 
ATOM     29  CD2 UNL     1      33.724 -15.853 -25.604  0.00  0.00    +0.000 C 
ENDBRANCH  26  27
ENDBRANCH   1  26
TORSDOF 12
ENDMDL
MODEL 8
REMARK VINA RESULT:      -8.7      1.783      5.241
REMARK  Name = 5288867
REMARK  12 active torsions:
REMARK  status: ('A' for Active; 'I' for Inactive)
REMARK    1  A    between atoms: CA_1  and  C_4
REMARK    2  A    between atoms: CA_1  and  N_14
REMARK    3  A    between atoms: CA_1  and  CB_26
REMARK    4  A    between atoms: N_3  and  CA_6
REMARK    5  A    between atoms: CA_6  and  C_8
REMARK    6  A    between atoms: CA_6  and  C_9
REMARK    7  A    between atoms: C_9  and  C_10
REMARK    8  A    between atoms: C_10  and  C_11
REMARK    9  A    between atoms: C_15  and  O_17
REMARK   10  A    between atoms: O_17  and  C_18
REMARK   11  A    between atoms: C_18  and  C_20
REMARK   12  A    between atoms: CB_26  and  CG_27
REMARK                            x       y       z     vdW  Elec       q    Type
REMARK                         _______ _______ _______ _____ _____    ______ ____
ROOT
ATOM      1  CA  UNL     1      35.872 -23.605 -15.147  0.00  0.00    +0.151 C 
ENDROOT
BRANCH   1   4
ATOM      2  O   UNL     1      34.081 -24.987 -14.273  0.00  0.00    -0.273 OA
ATOM      3  N   UNL     1      33.552 -23.247 -15.718  0.00  0.00    -0.298 N 
ATOM      4  C   UNL     1      34.421 -24.051 -14.994  0.00  0.00    +0.241 C 
ATOM      5  H   UNL     1      33.930 -22.522 -16.265  0.00  0.00    +0.150 HD
BRANCH   3   6
ATOM      6  CA  UNL     1      32.116 -23.421 -15.707  0.00  0.00    +0.137 C 
BRANCH   6   8
ATOM      7  O   UNL     1      32.354 -22.629 -17.985  0.00  0.00    -0.286 OA
ATOM      8  C   UNL     1      31.636 -22.805 -17.005  0.00  0.00    +0.227 C 
ENDBRANCH   6   8
BRANCH   6   9
ATOM      9  C   UNL     1      31.496 -22.778 -14.468  0.00  0.00    +0.028 C 
BRANCH   9  10
ATOM     10  C   UNL     1      30.823 -23.801 -13.547  0.00  0.00    +0.002 C 
BRANCH  10  11
ATOM     11  C   UNL     1      30.489 -25.089 -14.302  0.00  0.00    +0.000 C 
ATOM     12  C   UNL     1      29.056 -25.080 -14.812  0.00  0.00    +0.000 C 
ENDBRANCH  10  11
ENDBRANCH   9  10
ENDBRANCH   6   9
ENDBRANCH   3   6
ENDBRANCH   1   4
BRANCH   1  14
ATOM     13  O   UNL     1      38.215 -22.412 -16.381  0.00  0.00    -0.226 OA
ATOM     14  N   UNL     1      35.914 -22.663 -16.236  0.00  0.00    -0.264 N 
ATOM     15  C   UNL     1      37.081 -22.145 -16.762  0.00  0.00    +0.402 C 
ATOM     16  H   UNL     1      35.059 -22.372 -16.628  0.00  0.00    +0.153 HD
BRANCH  15  17
ATOM     17  O   UNL     1      36.788 -21.282 -17.780  0.00  0.00    -0.430 OA
BRANCH  17  18
ATOM     18  C   UNL     1      35.904 -21.784 -18.789  0.00  0.00    +0.237 C 
BRANCH  18  20
ATOM     19 BR   UNL     1      34.932 -17.369 -23.002  0.00  0.00    -0.049 Br
ATOM     20  C   UNL     1      35.668 -20.712 -19.811  0.00  0.00    +0.021 C 
ATOM     21  C   UNL     1      36.732 -19.928 -20.258  0.00  0.00    -0.000 C 
ATOM     22  C   UNL     1      34.385 -20.500 -20.316  0.00  0.00    -0.000 C 
ATOM     23  C   UNL     1      36.511 -18.931 -21.208  0.00  0.00    +0.006 C 
ATOM     24  C   UNL     1      34.165 -19.503 -21.267  0.00  0.00    +0.006 C 
ATOM     25  C   UNL     1      35.228 -18.719 -21.713  0.00  0.00    +0.035 C 
ENDBRANCH  18  20
ENDBRANCH  17  18
ENDBRANCH  15  17
ENDBRANCH   1  14
BRANCH   1  26
ATOM     26  CB  UNL     1      36.381 -22.997 -13.834  0.00  0.00    +0.029 C 
BRANCH  26  27
ATOM     27  CG  UNL     1      37.475 -23.818 -13.121  0.00  0.00    +0.002 C 
ATOM     28  CD1 UNL     1      37.029 -24.313 -11.745  0.00  0.00    +0.000 C 
ATOM     29  CD2 UNL     1      37.875 -25.011 -13.994  0.00  0.00    +0.000 C 
ENDBRANCH  26  27
ENDBRANCH   1  26
TORSDOF 12
ENDMDL
MODEL 9
REMARK VINA RESULT:      -8.7      8.364     13.213
REMARK  Name = 5288867
REMARK  12 active torsions:
REMARK  status: ('A' for Active; 'I' for Inactive)
REMARK    1  A    between atoms: CA_1  and  C_4
REMARK    2  A    between atoms: CA_1  and  N_14
REMARK    3  A    between atoms: CA_1  and  CB_26
REMARK    4  A    between atoms: N_3  and  CA_6
REMARK    5  A    between atoms: CA_6  and  C_8
REMARK    6  A    between atoms: CA_6  and  C_9
REMARK    7  A    between atoms: C_9  and  C_10
REMARK    8  A    between atoms: C_10  and  C_11
REMARK    9  A    between atoms: C_15  and  O_17
REMARK   10  A    between atoms: O_17  and  C_18
REMARK   11  A    between atoms: C_18  and  C_20
REMARK   12  A    between atoms: CB_26  and  CG_27
REMARK                            x       y       z     vdW  Elec       q    Type
REMARK                         _______ _______ _______ _____ _____    ______ ____
ROOT
ATOM      1  CA  UNL     1      33.439 -14.035 -23.338  0.00  0.00    +0.151 C 
ENDROOT
BRANCH   1   4
ATOM      2  O   UNL     1      32.674 -13.254 -21.173  0.00  0.00    -0.273 OA
ATOM      3  N   UNL     1      32.659 -11.778 -22.966  0.00  0.00    -0.298 N 
ATOM      4  C   UNL     1      32.870 -13.010 -22.362  0.00  0.00    +0.241 C 
ATOM      5  H   UNL     1      32.849 -11.690 -23.927  0.00  0.00    +0.150 HD
BRANCH   3   6
ATOM      6  CA  UNL     1      32.172 -10.618 -22.253  0.00  0.00    +0.137 C 
BRANCH   6   8
ATOM      7  O   UNL     1      30.339 -11.061 -20.731  0.00  0.00    -0.286 OA
ATOM      8  C   UNL     1      30.741 -10.954 -21.886  0.00  0.00    +0.227 C 
ENDBRANCH   6   8
BRANCH   6   9
ATOM      9  C   UNL     1      32.296  -9.358 -23.108  0.00  0.00    +0.028 C 
BRANCH   9  10
ATOM     10  C   UNL     1      32.561  -8.102 -22.272  0.00  0.00    +0.002 C 
BRANCH  10  11
ATOM     11  C   UNL     1      33.467  -7.121 -23.019  0.00  0.00    +0.000 C 
ATOM     12  C   UNL     1      34.737  -7.798 -23.509  0.00  0.00    +0.000 C 
ENDBRANCH  10  11
ENDBRANCH   9  10
ENDBRANCH   6   9
ENDBRANCH   3   6
ENDBRANCH   1   4
BRANCH   1  14
ATOM     13  O   UNL     1      35.515 -16.066 -23.343  0.00  0.00    -0.226 OA
ATOM     14  N   UNL     1      33.429 -15.309 -22.666  0.00  0.00    -0.264 N 
ATOM     15  C   UNL     1      34.468 -16.219 -22.725  0.00  0.00    +0.402 C 
ATOM     16  H   UNL     1      32.636 -15.546 -22.134  0.00  0.00    +0.153 HD
BRANCH  15  17
ATOM     17  O   UNL     1      34.157 -17.325 -21.987  0.00  0.00    -0.430 OA
BRANCH  17  18
ATOM     18  C   UNL     1      34.929 -18.500 -22.266  0.00  0.00    +0.237 C 
BRANCH  18  20
ATOM     19 BR   UNL     1      33.555 -22.856 -18.104  0.00  0.00    -0.049 Br
ATOM     20  C   UNL     1      34.595 -19.557 -21.255  0.00  0.00    +0.021 C 
ATOM     21  C   UNL     1      33.267 -19.780 -20.891  0.00  0.00    -0.000 C 
ATOM     22  C   UNL     1      35.613 -20.317 -20.680  0.00  0.00    -0.000 C 
ATOM     23  C   UNL     1      32.958 -20.763 -19.952  0.00  0.00    +0.006 C 
ATOM     24  C   UNL     1      35.303 -21.301 -19.740  0.00  0.00    +0.006 C 
ATOM     25  C   UNL     1      33.976 -21.523 -19.376  0.00  0.00    +0.035 C 
ENDBRANCH  18  20
ENDBRANCH  17  18
ENDBRANCH  15  17
ENDBRANCH   1  14
BRANCH   1  26
ATOM     26  CB  UNL     1      32.612 -14.053 -24.629  0.00  0.00    +0.029 C 
BRANCH  26  27
ATOM     27  CG  UNL     1      33.387 -14.490 -25.889  0.00  0.00    +0.002 C 
ATOM     28  CD1 UNL     1      33.028 -15.907 -26.334  0.00  0.00    +0.000 C 
ATOM     29  CD2 UNL     1      33.112 -13.505 -27.030  0.00  0.00    +0.000 C 
ENDBRANCH  26  27
ENDBRANCH   1  26
TORSDOF 12
ENDMDL
