MODEL 1
REMARK VINA RESULT:      -5.3      0.000      0.000
REMARK  Name = 4091
REMARK  2 active torsions:
REMARK  status: ('A' for Active; 'I' for Inactive)
REMARK    1  A    between atoms: N_1  and  C_4
REMARK    2  A    between atoms: N_1  and  C_13
REMARK                            x       y       z     vdW  Elec       q    Type
REMARK                         _______ _______ _______ _____ _____    ______ ____
ROOT
ATOM      1  N   UNL     1      38.316 -26.765 -14.350  0.00  0.00    -0.180 NA
ENDROOT
BRANCH   1   4
ATOM      2  N   UNL     1      40.629 -26.490 -14.225  0.00  0.00    -0.370 N 
ATOM      3  N   UNL     1      39.471 -25.015 -15.530  0.00  0.00    -0.370 N 
ATOM      4  C   UNL     1      39.395 -26.111 -14.697  0.00  0.00    +0.196 C 
ATOM      5  H   UNL     1      40.708 -27.262 -13.619  0.00  0.00    +0.159 HD
ATOM      6  H   UNL     1      41.433 -25.990 -14.494  0.00  0.00    +0.159 HD
ATOM      7  H   UNL     1      38.652 -24.647 -15.933  0.00  0.00    +0.159 HD
ATOM      8  H   UNL     1      40.344 -24.603 -15.722  0.00  0.00    +0.159 HD
ENDBRANCH   1   4
BRANCH   1  13
ATOM      9  N   UNL     1      36.303 -25.418 -14.357  0.00  0.00    -0.315 N 
ATOM     10  N   UNL     1      36.869 -27.001 -16.061  0.00  0.00    -0.267 NA
ATOM     11  C   UNL     1      36.650 -24.773 -13.096  0.00  0.00    +0.128 C 
ATOM     12  C   UNL     1      35.114 -24.912 -15.034  0.00  0.00    +0.128 C 
ATOM     13  C   UNL     1      37.123 -26.391 -14.941  0.00  0.00    +0.224 C 
ATOM     14  H   UNL     1      36.040 -26.800 -16.554  0.00  0.00    +0.190 HD
ENDBRANCH   1  13
TORSDOF 2
ENDMDL
MODEL 2
REMARK VINA RESULT:      -5.2      2.086      3.110
REMARK  Name = 4091
REMARK  2 active torsions:
REMARK  status: ('A' for Active; 'I' for Inactive)
REMARK    1  A    between atoms: N_1  and  C_4
REMARK    2  A    between atoms: N_1  and  C_13
REMARK                            x       y       z     vdW  Elec       q    Type
REMARK                         _______ _______ _______ _____ _____    ______ ____
ROOT
ATOM      1  N   UNL     1      37.071 -24.756 -14.258  0.00  0.00    -0.180 NA
ENDROOT
BRANCH   1   4
ATOM      2  N   UNL     1      38.156 -26.821 -14.302  0.00  0.00    -0.370 N 
ATOM      3  N   UNL     1      36.074 -26.715 -15.235  0.00  0.00    -0.370 N 
ATOM      4  C   UNL     1      37.075 -26.022 -14.590  0.00  0.00    +0.196 C 
ATOM      5  H   UNL     1      38.938 -26.441 -13.840  0.00  0.00    +0.159 HD
ATOM      6  H   UNL     1      38.147 -27.772 -14.556  0.00  0.00    +0.159 HD
ATOM      7  H   UNL     1      35.245 -26.253 -15.496  0.00  0.00    +0.159 HD
ATOM      8  H   UNL     1      36.187 -27.673 -15.434  0.00  0.00    +0.159 HD
ENDBRANCH   1   4
BRANCH   1  13
ATOM      9  N   UNL     1      36.636 -22.901 -15.752  0.00  0.00    -0.315 N 
ATOM     10  N   UNL     1      38.774 -23.947 -15.494  0.00  0.00    -0.267 NA
ATOM     11  C   UNL     1      35.227 -22.843 -15.379  0.00  0.00    +0.128 C 
ATOM     12  C   UNL     1      37.111 -21.846 -16.641  0.00  0.00    +0.128 C 
ATOM     13  C   UNL     1      37.510 -23.846 -15.202  0.00  0.00    +0.224 C 
ATOM     14  H   UNL     1      39.176 -23.341 -16.157  0.00  0.00    +0.190 HD
ENDBRANCH   1  13
TORSDOF 2
ENDMDL
MODEL 3
REMARK VINA RESULT:      -5.2      1.928      2.436
REMARK  Name = 4091
REMARK  2 active torsions:
REMARK  status: ('A' for Active; 'I' for Inactive)
REMARK    1  A    between atoms: N_1  and  C_4
REMARK    2  A    between atoms: N_1  and  C_13
REMARK                            x       y       z     vdW  Elec       q    Type
REMARK                         _______ _______ _______ _____ _____    ______ ____
ROOT
ATOM      1  N   UNL     1      39.250 -24.838 -13.274  0.00  0.00    -0.180 NA
ENDROOT
BRANCH   1   4
ATOM      2  N   UNL     1      39.622 -25.175 -15.552  0.00  0.00    -0.370 N 
ATOM      3  N   UNL     1      40.718 -26.555 -14.099  0.00  0.00    -0.370 N 
ATOM      4  C   UNL     1      39.842 -25.500 -14.234  0.00  0.00    +0.196 C 
ATOM      5  H   UNL     1      39.013 -24.436 -15.781  0.00  0.00    +0.159 HD
ATOM      6  H   UNL     1      40.074 -25.681 -16.265  0.00  0.00    +0.159 HD
ATOM      7  H   UNL     1      40.958 -26.883 -13.202  0.00  0.00    +0.159 HD
ATOM      8  H   UNL     1      41.106 -26.979 -14.898  0.00  0.00    +0.159 HD
ENDBRANCH   1   4
BRANCH   1  13
ATOM      9  N   UNL     1      37.114 -24.368 -12.234  0.00  0.00    -0.315 N 
ATOM     10  N   UNL     1      37.677 -26.452 -13.268  0.00  0.00    -0.267 NA
ATOM     11  C   UNL     1      37.517 -23.016 -11.861  0.00  0.00    +0.128 C 
ATOM     12  C   UNL     1      35.725 -24.723 -11.966  0.00  0.00    +0.128 C 
ATOM     13  C   UNL     1      37.977 -25.238 -12.910  0.00  0.00    +0.224 C 
ATOM     14  H   UNL     1      36.792 -26.824 -13.051  0.00  0.00    +0.190 HD
ENDBRANCH   1  13
TORSDOF 2
ENDMDL
MODEL 4
REMARK VINA RESULT:      -5.0      8.329      9.331
REMARK  Name = 4091
REMARK  2 active torsions:
REMARK  status: ('A' for Active; 'I' for Inactive)
REMARK    1  A    between atoms: N_1  and  C_4
REMARK    2  A    between atoms: N_1  and  C_13
REMARK                            x       y       z     vdW  Elec       q    Type
REMARK                         _______ _______ _______ _____ _____    ______ ____
ROOT
ATOM      1  N   UNL     1      35.929 -19.223 -20.665  0.00  0.00    -0.180 NA
ENDROOT
BRANCH   1   4
ATOM      2  N   UNL     1      36.165 -18.101 -22.697  0.00  0.00    -0.370 N 
ATOM      3  N   UNL     1      35.079 -17.000 -21.016  0.00  0.00    -0.370 N 
ATOM      4  C   UNL     1      35.723 -18.157 -21.396  0.00  0.00    +0.196 C 
ATOM      5  H   UNL     1      36.642 -18.869 -23.087  0.00  0.00    +0.159 HD
ATOM      6  H   UNL     1      36.004 -17.294 -23.237  0.00  0.00    +0.159 HD
ATOM      7  H   UNL     1      34.715 -16.917 -20.105  0.00  0.00    +0.159 HD
ATOM      8  H   UNL     1      34.981 -16.258 -21.655  0.00  0.00    +0.159 HD
ENDBRANCH   1   4
BRANCH   1  13
ATOM      9  N   UNL     1      34.979 -21.208 -19.654  0.00  0.00    -0.315 N 
ATOM     10  N   UNL     1      33.822 -19.808 -21.213  0.00  0.00    -0.267 NA
ATOM     11  C   UNL     1      36.196 -21.487 -18.898  0.00  0.00    +0.128 C 
ATOM     12  C   UNL     1      33.836 -22.071 -19.376  0.00  0.00    +0.128 C 
ATOM     13  C   UNL     1      34.877 -20.109 -20.514  0.00  0.00    +0.224 C 
ATOM     14  H   UNL     1      33.023 -20.382 -21.170  0.00  0.00    +0.190 HD
ENDBRANCH   1  13
TORSDOF 2
ENDMDL
MODEL 5
REMARK VINA RESULT:      -4.9     11.574     12.555
REMARK  Name = 4091
REMARK  2 active torsions:
REMARK  status: ('A' for Active; 'I' for Inactive)
REMARK    1  A    between atoms: N_1  and  C_4
REMARK    2  A    between atoms: N_1  and  C_13
REMARK                            x       y       z     vdW  Elec       q    Type
REMARK                         _______ _______ _______ _____ _____    ______ ____
ROOT
ATOM      1  N   UNL     1      34.957 -16.731 -21.370  0.00  0.00    -0.180 NA
ENDROOT
BRANCH   1   4
ATOM      2  N   UNL     1      36.033 -18.662 -20.624  0.00  0.00    -0.370 N 
ATOM      3  N   UNL     1      34.430 -18.913 -22.233  0.00  0.00    -0.370 N 
ATOM      4  C   UNL     1      35.112 -18.029 -21.425  0.00  0.00    +0.196 C 
ATOM      5  H   UNL     1      36.584 -18.137 -20.001  0.00  0.00    +0.159 HD
ATOM      6  H   UNL     1      36.139 -19.639 -20.674  0.00  0.00    +0.159 HD
ATOM      7  H   UNL     1      33.741 -18.582 -22.853  0.00  0.00    +0.159 HD
ATOM      8  H   UNL     1      34.630 -19.876 -22.188  0.00  0.00    +0.159 HD
ENDBRANCH   1   4
BRANCH   1  13
ATOM      9  N   UNL     1      33.591 -15.234 -22.695  0.00  0.00    -0.315 N 
ATOM     10  N   UNL     1      35.599 -16.271 -23.481  0.00  0.00    -0.267 NA
ATOM     11  C   UNL     1      32.629 -15.047 -21.614  0.00  0.00    +0.128 C 
ATOM     12  C   UNL     1      33.388 -14.417 -23.886  0.00  0.00    +0.128 C 
ATOM     13  C   UNL     1      34.708 -16.065 -22.556  0.00  0.00    +0.224 C 
ATOM     14  H   UNL     1      35.505 -15.839 -24.361  0.00  0.00    +0.190 HD
ENDBRANCH   1  13
TORSDOF 2
ENDMDL
MODEL 6
REMARK VINA RESULT:      -4.9     12.838     13.776
REMARK  Name = 4091
REMARK  2 active torsions:
REMARK  status: ('A' for Active; 'I' for Inactive)
REMARK    1  A    between atoms: N_1  and  C_4
REMARK    2  A    between atoms: N_1  and  C_13
REMARK                            x       y       z     vdW  Elec       q    Type
REMARK                         _______ _______ _______ _____ _____    ______ ____
ROOT
ATOM      1  N   UNL     1      34.740 -16.704 -23.369  0.00  0.00    -0.180 NA
ENDROOT
BRANCH   1   4
ATOM      2  N   UNL     1      36.518 -18.143 -22.912  0.00  0.00    -0.370 N 
ATOM      3  N   UNL     1      34.426 -19.057 -22.982  0.00  0.00    -0.370 N 
ATOM      4  C   UNL     1      35.177 -17.909 -23.104  0.00  0.00    +0.196 C 
ATOM      5  H   UNL     1      37.160 -17.400 -22.974  0.00  0.00    +0.159 HD
ATOM      6  H   UNL     1      36.834 -19.053 -22.713  0.00  0.00    +0.159 HD
ATOM      7  H   UNL     1      33.449 -19.020 -23.097  0.00  0.00    +0.159 HD
ATOM      8  H   UNL     1      34.865 -19.914 -22.777  0.00  0.00    +0.159 HD
ENDBRANCH   1   4
BRANCH   1  13
ATOM      9  N   UNL     1      33.545 -15.301 -24.940  0.00  0.00    -0.315 N 
ATOM     10  N   UNL     1      34.600 -17.371 -25.517  0.00  0.00    -0.267 NA
ATOM     11  C   UNL     1      33.217 -14.317 -23.915  0.00  0.00    +0.128 C 
ATOM     12  C   UNL     1      33.170 -14.957 -26.307  0.00  0.00    +0.128 C 
ATOM     13  C   UNL     1      34.276 -16.458 -24.648  0.00  0.00    +0.224 C 
ATOM     14  H   UNL     1      34.313 -17.282 -26.455  0.00  0.00    +0.190 HD
ENDBRANCH   1  13
TORSDOF 2
ENDMDL
MODEL 7
REMARK VINA RESULT:      -4.9     10.520     11.608
REMARK  Name = 4091
REMARK  2 active torsions:
REMARK  status: ('A' for Active; 'I' for Inactive)
REMARK    1  A    between atoms: N_1  and  C_4
REMARK    2  A    between atoms: N_1  and  C_13
REMARK                            x       y       z     vdW  Elec       q    Type
REMARK                         _______ _______ _______ _____ _____    ______ ____
ROOT
ATOM      1  N   UNL     1      35.387 -18.443 -22.107  0.00  0.00    -0.180 NA
ENDROOT
BRANCH   1   4
ATOM      2  N   UNL     1      34.130 -19.843 -20.728  0.00  0.00    -0.370 N 
ATOM      3  N   UNL     1      36.362 -19.661 -20.277  0.00  0.00    -0.370 N 
ATOM      4  C   UNL     1      35.324 -19.266 -21.092  0.00  0.00    +0.196 C 
ATOM      5  H   UNL     1      33.311 -19.639 -21.235  0.00  0.00    +0.159 HD
ATOM      6  H   UNL     1      34.096 -20.460 -19.963  0.00  0.00    +0.159 HD
ATOM      7  H   UNL     1      37.270 -19.316 -20.435  0.00  0.00    +0.159 HD
ATOM      8  H   UNL     1      36.196 -20.290 -19.538  0.00  0.00    +0.159 HD
ENDBRANCH   1   4
BRANCH   1  13
ATOM      9  N   UNL     1      34.843 -16.225 -22.912  0.00  0.00    -0.315 N 
ATOM     10  N   UNL     1      35.183 -16.774 -20.607  0.00  0.00    -0.267 NA
ATOM     11  C   UNL     1      34.809 -16.664 -24.303  0.00  0.00    +0.128 C 
ATOM     12  C   UNL     1      34.441 -14.845 -22.663  0.00  0.00    +0.128 C 
ATOM     13  C   UNL     1      35.137 -17.105 -21.864  0.00  0.00    +0.224 C 
ATOM     14  H   UNL     1      35.018 -15.841 -20.337  0.00  0.00    +0.190 HD
ENDBRANCH   1  13
TORSDOF 2
ENDMDL
MODEL 8
REMARK VINA RESULT:      -4.9      9.340     10.465
REMARK  Name = 4091
REMARK  2 active torsions:
REMARK  status: ('A' for Active; 'I' for Inactive)
REMARK    1  A    between atoms: N_1  and  C_4
REMARK    2  A    between atoms: N_1  and  C_13
REMARK                            x       y       z     vdW  Elec       q    Type
REMARK                         _______ _______ _______ _____ _____    ______ ____
ROOT
ATOM      1  N   UNL     1      34.507 -18.239 -21.752  0.00  0.00    -0.180 NA
ENDROOT
BRANCH   1   4
ATOM      2  N   UNL     1      35.039 -18.998 -23.893  0.00  0.00    -0.370 N 
ATOM      3  N   UNL     1      35.675 -16.872 -23.351  0.00  0.00    -0.370 N 
ATOM      4  C   UNL     1      35.049 -18.023 -22.924  0.00  0.00    +0.196 C 
ATOM      5  H   UNL     1      34.619 -19.870 -23.709  0.00  0.00    +0.159 HD
ATOM      6  H   UNL     1      35.449 -18.824 -24.770  0.00  0.00    +0.159 HD
ATOM      7  H   UNL     1      35.747 -16.099 -22.746  0.00  0.00    +0.159 HD
ATOM      8  H   UNL     1      36.047 -16.823 -24.260  0.00  0.00    +0.159 HD
ENDBRANCH   1   4
BRANCH   1  13
ATOM      9  N   UNL     1      34.322 -20.222 -20.375  0.00  0.00    -0.315 N 
ATOM     10  N   UNL     1      36.374 -19.064 -20.796  0.00  0.00    -0.267 NA
ATOM     11  C   UNL     1      32.881 -20.314 -20.583  0.00  0.00    +0.128 C 
ATOM     12  C   UNL     1      34.937 -21.320 -19.637  0.00  0.00    +0.128 C 
ATOM     13  C   UNL     1      35.089 -19.199 -20.944  0.00  0.00    +0.224 C 
ATOM     14  H   UNL     1      36.875 -19.701 -20.236  0.00  0.00    +0.190 HD
ENDBRANCH   1  13
TORSDOF 2
ENDMDL
MODEL 9
REMARK VINA RESULT:      -4.8     13.008     14.094
REMARK  Name = 4091
REMARK  2 active torsions:
REMARK  status: ('A' for Active; 'I' for Inactive)
REMARK    1  A    between atoms: N_1  and  C_4
REMARK    2  A    between atoms: N_1  and  C_13
REMARK                            x       y       z     vdW  Elec       q    Type
REMARK                         _______ _______ _______ _____ _____    ______ ____
ROOT
ATOM      1  N   UNL     1      34.950 -15.358 -23.304  0.00  0.00    -0.180 NA
ENDROOT
BRANCH   1   4
ATOM      2  N   UNL     1      32.912 -14.618 -22.443  0.00  0.00    -0.370 N 
ATOM      3  N   UNL     1      34.169 -13.103 -23.602  0.00  0.00    -0.370 N 
ATOM      4  C   UNL     1      34.077 -14.398 -23.140  0.00  0.00    +0.196 C 
ATOM      5  H   UNL     1      32.729 -15.507 -22.062  0.00  0.00    +0.159 HD
ATOM      6  H   UNL     1      32.263 -13.888 -22.326  0.00  0.00    +0.159 HD
ATOM      7  H   UNL     1      34.959 -12.819 -24.117  0.00  0.00    +0.159 HD
ATOM      8  H   UNL     1      33.446 -12.461 -23.416  0.00  0.00    +0.159 HD
ENDBRANCH   1   4
BRANCH   1  13
ATOM      9  N   UNL     1      34.982 -17.707 -23.890  0.00  0.00    -0.315 N 
ATOM     10  N   UNL     1      33.943 -16.005 -25.213  0.00  0.00    -0.267 NA
ATOM     11  C   UNL     1      35.742 -18.064 -22.697  0.00  0.00    +0.128 C 
ATOM     12  C   UNL     1      34.522 -18.818 -24.717  0.00  0.00    +0.128 C 
ATOM     13  C   UNL     1      34.618 -16.385 -24.169  0.00  0.00    +0.224 C 
ATOM     14  H   UNL     1      33.662 -16.667 -25.886  0.00  0.00    +0.190 HD
ENDBRANCH   1  13
TORSDOF 2
ENDMDL
