MODEL 1
REMARK VINA RESULT:     -10.5      0.000      0.000
REMARK  Name = 2375
REMARK  8 active torsions:
REMARK  status: ('A' for Active; 'I' for Inactive)
REMARK    1  A    between atoms: N_2  and  C_5
REMARK    2  A    between atoms: C_3  and  C_17
REMARK    3  A    between atoms: C_8  and  C_14
REMARK    4  A    between atoms: C_9  and  C_16
REMARK    5  A    between atoms: C_17  and  O_19
REMARK    6  A    between atoms: C_17  and  C_21
REMARK    7  A    between atoms: C_21  and  S_22
REMARK    8  A    between atoms: S_22  and  C_26
REMARK                            x       y       z     vdW  Elec       q    Type
REMARK                         _______ _______ _______ _____ _____    ______ ____
ROOT
ATOM      1  O   UNL     1      33.084 -13.577 -25.025  0.00  0.00    -0.272 OA
ATOM      2  N   UNL     1      34.432 -13.297 -23.131  0.00  0.00    -0.282 N 
ATOM      3  C   UNL     1      33.746 -12.874 -24.264  0.00  0.00    +0.252 C 
ATOM      4  H   UNL     1      34.914 -12.600 -22.629  0.00  0.00    +0.155 HD
ENDROOT
BRANCH   2   5
ATOM      5  C   UNL     1      34.520 -14.612 -22.614  0.00  0.00    +0.050 C 
ATOM      6  C   UNL     1      34.742 -15.668 -23.481  0.00  0.00    +0.019 C 
ATOM      7  C   UNL     1      34.380 -14.814 -21.250  0.00  0.00    +0.015 C 
ATOM      8  C   UNL     1      34.828 -16.963 -22.971  0.00  0.00    +0.082 C 
ATOM      9  C   UNL     1      34.690 -17.184 -21.600  0.00  0.00    +0.072 C 
ATOM     10  C   UNL     1      34.466 -16.109 -20.740  0.00  0.00    +0.011 C 
BRANCH   8  14
ATOM     11  F   UNL     1      36.237 -18.737 -23.678  0.00  0.00    -0.166 F 
ATOM     12  F   UNL     1      34.091 -19.034 -23.869  0.00  0.00    -0.166 F 
ATOM     13  F   UNL     1      35.121 -17.653 -25.206  0.00  0.00    -0.166 F 
ATOM     14  C   UNL     1      35.068 -18.091 -23.923  0.00  0.00    +0.419 C 
ENDBRANCH   8  14
BRANCH   9  16
ATOM     15  N   UNL     1      34.839 -19.573 -20.609  0.00  0.00    -0.191 NA
ATOM     16  C   UNL     1      34.772 -18.504 -21.053  0.00  0.00    +0.100 C 
ENDBRANCH   9  16
ENDBRANCH   2   5
BRANCH   3  17
ATOM     17  C   UNL     1      33.881 -11.360 -24.514  0.00  0.00    +0.179 C 
ATOM     18  C   UNL     1      34.574 -11.097 -25.856  0.00  0.00    +0.041 C 
BRANCH  17  19
ATOM     19  O   UNL     1      34.716 -10.818 -23.492  0.00  0.00    -0.377 OA
ATOM     20  H   UNL     1      35.619 -11.153 -23.601  0.00  0.00    +0.211 HD
ENDBRANCH  17  19
BRANCH  17  21
ATOM     21  C   UNL     1      32.540 -10.620 -24.460  0.00  0.00    +0.191 C 
BRANCH  21  22
ATOM     22  S   UNL     1      32.588  -9.154 -23.471  0.00  0.00    +0.012 S 
ATOM     23  O   UNL     1      31.535  -8.261 -23.914  0.00  0.00    -0.169 OA
ATOM     24  O   UNL     1      33.966  -8.699 -23.425  0.00  0.00    -0.169 OA
BRANCH  22  26
ATOM     25  F   UNL     1      31.117 -11.030 -18.102  0.00  0.00    -0.204 F 
ATOM     26  C   UNL     1      32.145  -9.718 -21.856  0.00  0.00    +0.106 C 
ATOM     27  C   UNL     1      31.648 -11.000 -21.700  0.00  0.00    +0.021 C 
ATOM     28  C   UNL     1      32.305  -8.867 -20.775  0.00  0.00    +0.021 C 
ATOM     29  C   UNL     1      31.299 -11.446 -20.426  0.00  0.00    +0.031 C 
ATOM     30  C   UNL     1      31.955  -9.313 -19.501  0.00  0.00    +0.031 C 
ATOM     31  C   UNL     1      31.452 -10.602 -19.326  0.00  0.00    +0.140 C 
ENDBRANCH  22  26
ENDBRANCH  21  22
ENDBRANCH  17  21
ENDBRANCH   3  17
TORSDOF 8
ENDMDL
MODEL 2
REMARK VINA RESULT:     -10.4      7.070     10.577
REMARK  Name = 2375
REMARK  8 active torsions:
REMARK  status: ('A' for Active; 'I' for Inactive)
REMARK    1  A    between atoms: N_2  and  C_5
REMARK    2  A    between atoms: C_3  and  C_17
REMARK    3  A    between atoms: C_8  and  C_14
REMARK    4  A    between atoms: C_9  and  C_16
REMARK    5  A    between atoms: C_17  and  O_19
REMARK    6  A    between atoms: C_17  and  C_21
REMARK    7  A    between atoms: C_21  and  S_22
REMARK    8  A    between atoms: S_22  and  C_26
REMARK                            x       y       z     vdW  Elec       q    Type
REMARK                         _______ _______ _______ _____ _____    ______ ____
ROOT
ATOM      1  O   UNL     1      32.773 -20.595 -20.695  0.00  0.00    -0.272 OA
ATOM      2  N   UNL     1      34.951 -19.959 -21.273  0.00  0.00    -0.282 N 
ATOM      3  C   UNL     1      33.993 -20.668 -20.557  0.00  0.00    +0.252 C 
ATOM      4  H   UNL     1      35.890 -20.139 -21.037  0.00  0.00    +0.155 HD
ENDROOT
BRANCH   2   5
ATOM      5  C   UNL     1      34.736 -19.010 -22.301  0.00  0.00    +0.050 C 
ATOM      6  C   UNL     1      34.517 -17.685 -21.964  0.00  0.00    +0.019 C 
ATOM      7  C   UNL     1      34.749 -19.428 -23.621  0.00  0.00    +0.015 C 
ATOM      8  C   UNL     1      34.305 -16.750 -22.978  0.00  0.00    +0.082 C 
ATOM      9  C   UNL     1      34.316 -17.154 -24.313  0.00  0.00    +0.072 C 
ATOM     10  C   UNL     1      34.537 -18.493 -24.635  0.00  0.00    +0.011 C 
BRANCH   8  14
ATOM     11  F   UNL     1      34.893 -14.468 -23.254  0.00  0.00    -0.166 F 
ATOM     12  F   UNL     1      32.801 -14.917 -22.864  0.00  0.00    -0.166 F 
ATOM     13  F   UNL     1      34.274 -15.127 -21.269  0.00  0.00    -0.166 F 
ATOM     14  C   UNL     1      34.069 -15.324 -22.596  0.00  0.00    +0.419 C 
ENDBRANCH   8  14
BRANCH   9  16
ATOM     15  N   UNL     1      33.923 -15.453 -26.228  0.00  0.00    -0.191 NA
ATOM     16  C   UNL     1      34.098 -16.215 -25.371  0.00  0.00    +0.100 C 
ENDBRANCH   9  16
ENDBRANCH   2   5
BRANCH   3  17
ATOM     17  C   UNL     1      34.607 -21.617 -19.511  0.00  0.00    +0.179 C 
ATOM     18  C   UNL     1      35.973 -21.095 -19.049  0.00  0.00    +0.041 C 
BRANCH  17  19
ATOM     19  O   UNL     1      34.827 -22.880 -20.138  0.00  0.00    -0.377 OA
ATOM     20  H   UNL     1      34.100 -23.065 -20.753  0.00  0.00    +0.211 HD
ENDBRANCH  17  19
BRANCH  17  21
ATOM     21  C   UNL     1      33.695 -21.850 -18.302  0.00  0.00    +0.191 C 
BRANCH  21  22
ATOM     22  S   UNL     1      34.006 -23.383 -17.475  0.00  0.00    +0.012 S 
ATOM     23  O   UNL     1      35.343 -23.344 -16.913  0.00  0.00    -0.169 OA
ATOM     24  O   UNL     1      33.617 -24.455 -18.374  0.00  0.00    -0.169 OA
BRANCH  22  26
ATOM     25  F   UNL     1      30.239 -23.341 -12.967  0.00  0.00    -0.204 F 
ATOM     26  C   UNL     1      32.873 -23.369 -16.119  0.00  0.00    +0.106 C 
ATOM     27  C   UNL     1      31.533 -23.120 -16.359  0.00  0.00    +0.021 C 
ATOM     28  C   UNL     1      33.346 -23.611 -14.840  0.00  0.00    +0.021 C 
ATOM     29  C   UNL     1      30.638 -23.110 -15.290  0.00  0.00    +0.031 C 
ATOM     30  C   UNL     1      32.451 -23.601 -13.771  0.00  0.00    +0.031 C 
ATOM     31  C   UNL     1      31.098 -23.350 -13.995  0.00  0.00    +0.140 C 
ENDBRANCH  22  26
ENDBRANCH  21  22
ENDBRANCH  17  21
ENDBRANCH   3  17
TORSDOF 8
ENDMDL
MODEL 3
REMARK VINA RESULT:     -10.3      3.716      5.200
REMARK  Name = 2375
REMARK  8 active torsions:
REMARK  status: ('A' for Active; 'I' for Inactive)
REMARK    1  A    between atoms: N_2  and  C_5
REMARK    2  A    between atoms: C_3  and  C_17
REMARK    3  A    between atoms: C_8  and  C_14
REMARK    4  A    between atoms: C_9  and  C_16
REMARK    5  A    between atoms: C_17  and  O_19
REMARK    6  A    between atoms: C_17  and  C_21
REMARK    7  A    between atoms: C_21  and  S_22
REMARK    8  A    between atoms: S_22  and  C_26
REMARK                            x       y       z     vdW  Elec       q    Type
REMARK                         _______ _______ _______ _____ _____    ______ ____
ROOT
ATOM      1  O   UNL     1      34.233 -18.872 -24.225  0.00  0.00    -0.272 OA
ATOM      2  N   UNL     1      34.458 -17.982 -22.071  0.00  0.00    -0.282 N 
ATOM      3  C   UNL     1      34.423 -17.928 -23.460  0.00  0.00    +0.252 C 
ATOM      4  H   UNL     1      34.621 -17.129 -21.607  0.00  0.00    +0.155 HD
ENDROOT
BRANCH   2   5
ATOM      5  C   UNL     1      34.289 -19.119 -21.245  0.00  0.00    +0.050 C 
ATOM      6  C   UNL     1      35.394 -19.678 -20.626  0.00  0.00    +0.019 C 
ATOM      7  C   UNL     1      33.020 -19.648 -21.074  0.00  0.00    +0.015 C 
ATOM      8  C   UNL     1      35.226 -20.798 -19.812  0.00  0.00    +0.082 C 
ATOM      9  C   UNL     1      33.955 -21.344 -19.629  0.00  0.00    +0.072 C 
ATOM     10  C   UNL     1      32.852 -20.769 -20.261  0.00  0.00    +0.011 C 
BRANCH   8  14
ATOM     11  F   UNL     1      37.169 -20.460 -18.493  0.00  0.00    -0.166 F 
ATOM     12  F   UNL     1      36.111 -22.343 -18.241  0.00  0.00    -0.166 F 
ATOM     13  F   UNL     1      37.254 -21.973 -20.061  0.00  0.00    -0.166 F 
ATOM     14  C   UNL     1      36.432 -21.390 -19.153  0.00  0.00    +0.419 C 
ENDBRANCH   8  14
BRANCH   9  16
ATOM     15  N   UNL     1      33.598 -23.426 -18.130  0.00  0.00    -0.191 NA
ATOM     16  C   UNL     1      33.757 -22.495 -18.802  0.00  0.00    +0.100 C 
ENDBRANCH   9  16
ENDBRANCH   2   5
BRANCH   3  17
ATOM     17  C   UNL     1      34.651 -16.507 -24.010  0.00  0.00    +0.179 C 
ATOM     18  C   UNL     1      34.960 -16.556 -25.510  0.00  0.00    +0.041 C 
BRANCH  17  19
ATOM     19  O   UNL     1      35.797 -15.962 -23.358  0.00  0.00    -0.377 OA
ATOM     20  H   UNL     1      36.525 -16.602 -23.396  0.00  0.00    +0.211 HD
ENDBRANCH  17  19
BRANCH  17  21
ATOM     21  C   UNL     1      33.473 -15.564 -23.745  0.00  0.00    +0.191 C 
BRANCH  21  22
ATOM     22  S   UNL     1      33.349 -15.055 -22.055  0.00  0.00    +0.012 S 
ATOM     23  O   UNL     1      34.682 -15.016 -21.484  0.00  0.00    -0.169 OA
ATOM     24  O   UNL     1      32.306 -15.849 -21.431  0.00  0.00    -0.169 OA
BRANCH  22  26
ATOM     25  F   UNL     1      31.450  -9.506 -22.392  0.00  0.00    -0.204 F 
ATOM     26  C   UNL     1      32.779 -13.386 -22.156  0.00  0.00    +0.106 C 
ATOM     27  C   UNL     1      33.189 -12.593 -23.214  0.00  0.00    +0.021 C 
ATOM     28  C   UNL     1      31.930 -12.901 -21.176  0.00  0.00    +0.021 C 
ATOM     29  C   UNL     1      32.738 -11.277 -23.295  0.00  0.00    +0.031 C 
ATOM     30  C   UNL     1      31.480 -11.584 -21.256  0.00  0.00    +0.031 C 
ATOM     31  C   UNL     1      31.883 -10.771 -22.315  0.00  0.00    +0.140 C 
ENDBRANCH  22  26
ENDBRANCH  21  22
ENDBRANCH  17  21
ENDBRANCH   3  17
TORSDOF 8
ENDMDL
MODEL 4
REMARK VINA RESULT:     -10.2      6.683     10.489
REMARK  Name = 2375
REMARK  8 active torsions:
REMARK  status: ('A' for Active; 'I' for Inactive)
REMARK    1  A    between atoms: N_2  and  C_5
REMARK    2  A    between atoms: C_3  and  C_17
REMARK    3  A    between atoms: C_8  and  C_14
REMARK    4  A    between atoms: C_9  and  C_16
REMARK    5  A    between atoms: C_17  and  O_19
REMARK    6  A    between atoms: C_17  and  C_21
REMARK    7  A    between atoms: C_21  and  S_22
REMARK    8  A    between atoms: S_22  and  C_26
REMARK                            x       y       z     vdW  Elec       q    Type
REMARK                         _______ _______ _______ _____ _____    ______ ____
ROOT
ATOM      1  O   UNL     1      33.392 -20.481 -20.625  0.00  0.00    -0.272 OA
ATOM      2  N   UNL     1      35.465 -19.407 -20.808  0.00  0.00    -0.282 N 
ATOM      3  C   UNL     1      34.604 -20.430 -20.425  0.00  0.00    +0.252 C 
ATOM      4  H   UNL     1      36.413 -19.525 -20.569  0.00  0.00    +0.155 HD
ENDROOT
BRANCH   2   5
ATOM      5  C   UNL     1      35.139 -18.216 -21.500  0.00  0.00    +0.050 C 
ATOM      6  C   UNL     1      34.963 -18.257 -22.873  0.00  0.00    +0.019 C 
ATOM      7  C   UNL     1      35.002 -17.036 -20.788  0.00  0.00    +0.015 C 
ATOM      8  C   UNL     1      34.641 -17.083 -23.554  0.00  0.00    +0.082 C 
ATOM      9  C   UNL     1      34.500 -15.885 -22.852  0.00  0.00    +0.072 C 
ATOM     10  C   UNL     1      34.681 -15.862 -21.470  0.00  0.00    +0.011 C 
BRANCH   8  14
ATOM     11  F   UNL     1      33.293 -16.573 -25.439  0.00  0.00    -0.166 F 
ATOM     12  F   UNL     1      35.449 -16.509 -25.712  0.00  0.00    -0.166 F 
ATOM     13  F   UNL     1      34.440 -18.428 -25.479  0.00  0.00    -0.166 F 
ATOM     14  C   UNL     1      34.457 -17.145 -25.037  0.00  0.00    +0.419 C 
ENDBRANCH   8  14
BRANCH   9  16
ATOM     15  N   UNL     1      33.909 -13.680 -24.077  0.00  0.00    -0.191 NA
ATOM     16  C   UNL     1      34.173 -14.667 -23.529  0.00  0.00    +0.100 C 
ENDBRANCH   9  16
ENDBRANCH   2   5
BRANCH   3  17
ATOM     17  C   UNL     1      35.325 -21.573 -19.684  0.00  0.00    +0.179 C 
ATOM     18  C   UNL     1      36.843 -21.367 -19.726  0.00  0.00    +0.041 C 
BRANCH  17  19
ATOM     19  O   UNL     1      35.043 -22.790 -20.375  0.00  0.00    -0.377 OA
ATOM     20  H   UNL     1      34.431 -22.612 -21.105  0.00  0.00    +0.211 HD
ENDBRANCH  17  19
BRANCH  17  21
ATOM     21  C   UNL     1      34.855 -21.741 -18.236  0.00  0.00    +0.191 C 
BRANCH  21  22
ATOM     22  S   UNL     1      33.530 -22.900 -18.059  0.00  0.00    +0.012 S 
ATOM     23  O   UNL     1      33.815 -24.060 -18.883  0.00  0.00    -0.169 OA
ATOM     24  O   UNL     1      32.284 -22.172 -18.221  0.00  0.00    -0.169 OA
BRANCH  22  26
ATOM     25  F   UNL     1      33.909 -24.625 -12.456  0.00  0.00    -0.204 F 
ATOM     26  C   UNL     1      33.644 -23.419 -16.374  0.00  0.00    +0.106 C 
ATOM     27  C   UNL     1      34.885 -23.721 -15.841  0.00  0.00    +0.021 C 
ATOM     28  C   UNL     1      32.489 -23.514 -15.616  0.00  0.00    +0.021 C 
ATOM     29  C   UNL     1      34.976 -24.130 -14.511  0.00  0.00    +0.031 C 
ATOM     30  C   UNL     1      32.579 -23.924 -14.286  0.00  0.00    +0.031 C 
ATOM     31  C   UNL     1      33.822 -24.232 -13.733  0.00  0.00    +0.140 C 
ENDBRANCH  22  26
ENDBRANCH  21  22
ENDBRANCH  17  21
ENDBRANCH   3  17
TORSDOF 8
ENDMDL
MODEL 5
REMARK VINA RESULT:     -10.2      2.844      3.457
REMARK  Name = 2375
REMARK  8 active torsions:
REMARK  status: ('A' for Active; 'I' for Inactive)
REMARK    1  A    between atoms: N_2  and  C_5
REMARK    2  A    between atoms: C_3  and  C_17
REMARK    3  A    between atoms: C_8  and  C_14
REMARK    4  A    between atoms: C_9  and  C_16
REMARK    5  A    between atoms: C_17  and  O_19
REMARK    6  A    between atoms: C_17  and  C_21
REMARK    7  A    between atoms: C_21  and  S_22
REMARK    8  A    between atoms: S_22  and  C_26
REMARK                            x       y       z     vdW  Elec       q    Type
REMARK                         _______ _______ _______ _____ _____    ______ ____
ROOT
ATOM      1  O   UNL     1      32.274 -12.452 -22.894  0.00  0.00    -0.272 OA
ATOM      2  N   UNL     1      34.429 -13.190 -23.437  0.00  0.00    -0.282 N 
ATOM      3  C   UNL     1      33.372 -12.287 -23.423  0.00  0.00    +0.252 C 
ATOM      4  H   UNL     1      35.244 -12.897 -23.906  0.00  0.00    +0.155 HD
ENDROOT
BRANCH   2   5
ATOM      5  C   UNL     1      34.472 -14.480 -22.856  0.00  0.00    +0.050 C 
ATOM      6  C   UNL     1      34.699 -15.580 -23.666  0.00  0.00    +0.019 C 
ATOM      7  C   UNL     1      34.284 -14.614 -21.490  0.00  0.00    +0.015 C 
ATOM      8  C   UNL     1      34.741 -16.852 -23.093  0.00  0.00    +0.082 C 
ATOM      9  C   UNL     1      34.555 -17.004 -21.719  0.00  0.00    +0.072 C 
ATOM     10  C   UNL     1      34.326 -15.886 -20.918  0.00  0.00    +0.011 C 
BRANCH   8  14
ATOM     11  F   UNL     1      34.018 -18.974 -23.870  0.00  0.00    -0.166 F 
ATOM     12  F   UNL     1      35.035 -17.686 -25.296  0.00  0.00    -0.166 F 
ATOM     13  F   UNL     1      36.164 -18.633 -23.689  0.00  0.00    -0.166 F 
ATOM     14  C   UNL     1      34.986 -18.028 -23.983  0.00  0.00    +0.419 C 
ENDBRANCH   8  14
BRANCH   9  16
ATOM     15  N   UNL     1      34.620 -19.346 -20.613  0.00  0.00    -0.191 NA
ATOM     16  C   UNL     1      34.591 -18.298 -21.108  0.00  0.00    +0.100 C 
ENDBRANCH   9  16
ENDBRANCH   2   5
BRANCH   3  17
ATOM     17  C   UNL     1      33.695 -10.975 -24.163  0.00  0.00    +0.179 C 
ATOM     18  C   UNL     1      33.761 -11.215 -25.676  0.00  0.00    +0.041 C 
BRANCH  17  19
ATOM     19  O   UNL     1      34.989 -10.542 -23.745  0.00  0.00    -0.377 OA
ATOM     20  H   UNL     1      35.620 -11.273 -23.840  0.00  0.00    +0.211 HD
ENDBRANCH  17  19
BRANCH  17  21
ATOM     21  C   UNL     1      32.705  -9.849 -23.851  0.00  0.00    +0.191 C 
BRANCH  21  22
ATOM     22  S   UNL     1      33.425  -8.515 -22.939  0.00  0.00    +0.012 S 
ATOM     23  O   UNL     1      34.817  -8.387 -23.326  0.00  0.00    -0.169 OA
ATOM     24  O   UNL     1      33.064  -8.690 -21.543  0.00  0.00    -0.169 OA
BRANCH  22  26
ATOM     25  F   UNL     1      30.630  -3.757 -24.954  0.00  0.00    -0.204 F 
ATOM     26  C   UNL     1      32.584  -7.084 -23.545  0.00  0.00    +0.106 C 
ATOM     27  C   UNL     1      31.493  -6.594 -22.848  0.00  0.00    +0.021 C 
ATOM     28  C   UNL     1      33.032  -6.478 -24.706  0.00  0.00    +0.021 C 
ATOM     29  C   UNL     1      30.830  -5.465 -23.325  0.00  0.00    +0.031 C 
ATOM     30  C   UNL     1      32.368  -5.349 -25.185  0.00  0.00    +0.031 C 
ATOM     31  C   UNL     1      31.267  -4.842 -24.494  0.00  0.00    +0.140 C 
ENDBRANCH  22  26
ENDBRANCH  21  22
ENDBRANCH  17  21
ENDBRANCH   3  17
TORSDOF 8
ENDMDL
MODEL 6
REMARK VINA RESULT:     -10.2      6.902     10.699
REMARK  Name = 2375
REMARK  8 active torsions:
REMARK  status: ('A' for Active; 'I' for Inactive)
REMARK    1  A    between atoms: N_2  and  C_5
REMARK    2  A    between atoms: C_3  and  C_17
REMARK    3  A    between atoms: C_8  and  C_14
REMARK    4  A    between atoms: C_9  and  C_16
REMARK    5  A    between atoms: C_17  and  O_19
REMARK    6  A    between atoms: C_17  and  C_21
REMARK    7  A    between atoms: C_21  and  S_22
REMARK    8  A    between atoms: S_22  and  C_26
REMARK                            x       y       z     vdW  Elec       q    Type
REMARK                         _______ _______ _______ _____ _____    ______ ____
ROOT
ATOM      1  O   UNL     1      33.241 -20.445 -20.441  0.00  0.00    -0.272 OA
ATOM      2  N   UNL     1      35.305 -20.005 -21.455  0.00  0.00    -0.282 N 
ATOM      3  C   UNL     1      34.453 -20.627 -20.550  0.00  0.00    +0.252 C 
ATOM      4  H   UNL     1      36.253 -20.268 -21.410  0.00  0.00    +0.155 HD
ENDROOT
BRANCH   2   5
ATOM      5  C   UNL     1      34.971 -19.038 -22.433  0.00  0.00    +0.050 C 
ATOM      6  C   UNL     1      34.732 -17.732 -22.041  0.00  0.00    +0.019 C 
ATOM      7  C   UNL     1      34.890 -19.420 -23.763  0.00  0.00    +0.015 C 
ATOM      8  C   UNL     1      34.403 -16.779 -23.005  0.00  0.00    +0.082 C 
ATOM      9  C   UNL     1      34.318 -17.147 -24.349  0.00  0.00    +0.072 C 
ATOM     10  C   UNL     1      34.561 -18.467 -24.727  0.00  0.00    +0.011 C 
BRANCH   8  14
ATOM     11  F   UNL     1      34.880 -14.469 -23.261  0.00  0.00    -0.166 F 
ATOM     12  F   UNL     1      32.846 -15.011 -22.714  0.00  0.00    -0.166 F 
ATOM     13  F   UNL     1      34.454 -15.205 -21.253  0.00  0.00    -0.166 F 
ATOM     14  C   UNL     1      34.146 -15.374 -22.563  0.00  0.00    +0.419 C 
ENDBRANCH   8  14
BRANCH   9  16
ATOM     15  N   UNL     1      33.704 -15.414 -26.174  0.00  0.00    -0.191 NA
ATOM     16  C   UNL     1      33.979 -16.189 -25.357  0.00  0.00    +0.100 C 
ENDBRANCH   9  16
ENDBRANCH   2   5
BRANCH   3  17
ATOM     17  C   UNL     1      35.180 -21.630 -19.634  0.00  0.00    +0.179 C 
ATOM     18  C   UNL     1      36.683 -21.332 -19.599  0.00  0.00    +0.041 C 
BRANCH  17  19
ATOM     19  O   UNL     1      35.019 -22.933 -20.193  0.00  0.00    -0.377 OA
ATOM     20  H   UNL     1      35.346 -22.935 -21.106  0.00  0.00    +0.211 HD
ENDBRANCH  17  19
BRANCH  17  21
ATOM     21  C   UNL     1      34.616 -21.662 -18.210  0.00  0.00    +0.191 C 
BRANCH  21  22
ATOM     22  S   UNL     1      33.430 -22.949 -17.955  0.00  0.00    +0.012 S 
ATOM     23  O   UNL     1      33.790 -24.083 -18.787  0.00  0.00    -0.169 OA
ATOM     24  O   UNL     1      32.108 -22.356 -18.054  0.00  0.00    -0.169 OA
BRANCH  22  26
ATOM     25  F   UNL     1      34.285 -24.564 -12.372  0.00  0.00    -0.204 F 
ATOM     26  C   UNL     1      33.687 -23.436 -16.276  0.00  0.00    +0.106 C 
ATOM     27  C   UNL     1      34.966 -23.753 -15.852  0.00  0.00    +0.021 C 
ATOM     28  C   UNL     1      32.605 -23.489 -15.414  0.00  0.00    +0.021 C 
ATOM     29  C   UNL     1      35.170 -24.136 -14.527  0.00  0.00    +0.031 C 
ATOM     30  C   UNL     1      32.808 -23.873 -14.089  0.00  0.00    +0.031 C 
ATOM     31  C   UNL     1      34.090 -24.196 -13.645  0.00  0.00    +0.140 C 
ENDBRANCH  22  26
ENDBRANCH  21  22
ENDBRANCH  17  21
ENDBRANCH   3  17
TORSDOF 8
ENDMDL
MODEL 7
REMARK VINA RESULT:     -10.1      6.661      9.910
REMARK  Name = 2375
REMARK  8 active torsions:
REMARK  status: ('A' for Active; 'I' for Inactive)
REMARK    1  A    between atoms: N_2  and  C_5
REMARK    2  A    between atoms: C_3  and  C_17
REMARK    3  A    between atoms: C_8  and  C_14
REMARK    4  A    between atoms: C_9  and  C_16
REMARK    5  A    between atoms: C_17  and  O_19
REMARK    6  A    between atoms: C_17  and  C_21
REMARK    7  A    between atoms: C_21  and  S_22
REMARK    8  A    between atoms: S_22  and  C_26
REMARK                            x       y       z     vdW  Elec       q    Type
REMARK                         _______ _______ _______ _____ _____    ______ ____
ROOT
ATOM      1  O   UNL     1      33.051 -21.059 -19.404  0.00  0.00    -0.272 OA
ATOM      2  N   UNL     1      34.777 -22.129 -18.239  0.00  0.00    -0.282 N 
ATOM      3  C   UNL     1      34.237 -21.345 -19.252  0.00  0.00    +0.252 C 
ATOM      4  H   UNL     1      35.753 -22.258 -18.263  0.00  0.00    +0.155 HD
ENDROOT
BRANCH   2   5
ATOM      5  C   UNL     1      34.089 -22.765 -17.178  0.00  0.00    +0.050 C 
ATOM      6  C   UNL     1      32.705 -22.738 -17.155  0.00  0.00    +0.019 C 
ATOM      7  C   UNL     1      34.816 -23.399 -16.184  0.00  0.00    +0.015 C 
ATOM      8  C   UNL     1      32.027 -23.364 -16.109  0.00  0.00    +0.082 C 
ATOM      9  C   UNL     1      32.745 -24.008 -15.100  0.00  0.00    +0.072 C 
ATOM     10  C   UNL     1      34.139 -24.025 -15.137  0.00  0.00    +0.011 C 
BRANCH   8  14
ATOM     11  F   UNL     1      29.981 -24.562 -16.193  0.00  0.00    -0.166 F 
ATOM     12  F   UNL     1      30.034 -22.766 -14.968  0.00  0.00    -0.166 F 
ATOM     13  F   UNL     1      30.052 -22.599 -17.142  0.00  0.00    -0.166 F 
ATOM     14  C   UNL     1      30.533 -23.324 -16.101  0.00  0.00    +0.419 C 
ENDBRANCH   8  14
BRANCH   9  16
ATOM     15  N   UNL     1      31.528 -25.179 -13.135  0.00  0.00    -0.191 NA
ATOM     16  C   UNL     1      32.073 -24.656 -14.015  0.00  0.00    +0.100 C 
ENDBRANCH   9  16
ENDBRANCH   2   5
BRANCH   3  17
ATOM     17  C   UNL     1      35.301 -20.820 -20.235  0.00  0.00    +0.179 C 
ATOM     18  C   UNL     1      36.003 -21.987 -20.939  0.00  0.00    +0.041 C 
BRANCH  17  19
ATOM     19  O   UNL     1      36.292 -20.123 -19.480  0.00  0.00    -0.377 OA
ATOM     20  H   UNL     1      35.928 -19.884 -18.613  0.00  0.00    +0.211 HD
ENDBRANCH  17  19
BRANCH  17  21
ATOM     21  C   UNL     1      34.734 -19.844 -21.270  0.00  0.00    +0.191 C 
BRANCH  21  22
ATOM     22  S   UNL     1      35.721 -18.390 -21.477  0.00  0.00    +0.012 S 
ATOM     23  O   UNL     1      37.077 -18.793 -21.800  0.00  0.00    -0.169 OA
ATOM     24  O   UNL     1      35.464 -17.518 -20.345  0.00  0.00    -0.169 OA
BRANCH  22  26
ATOM     25  F   UNL     1      33.491 -15.846 -26.280  0.00  0.00    -0.204 F 
ATOM     26  C   UNL     1      35.050 -17.625 -22.922  0.00  0.00    +0.106 C 
ATOM     27  C   UNL     1      34.719 -16.282 -22.884  0.00  0.00    +0.021 C 
ATOM     28  C   UNL     1      34.869 -18.383 -24.066  0.00  0.00    +0.021 C 
ATOM     29  C   UNL     1      34.190 -15.677 -24.023  0.00  0.00    +0.031 C 
ATOM     30  C   UNL     1      34.339 -17.778 -25.206  0.00  0.00    +0.031 C 
ATOM     31  C   UNL     1      33.999 -16.426 -25.185  0.00  0.00    +0.140 C 
ENDBRANCH  22  26
ENDBRANCH  21  22
ENDBRANCH  17  21
ENDBRANCH   3  17
TORSDOF 8
ENDMDL
MODEL 8
REMARK VINA RESULT:     -10.0      6.585     10.454
REMARK  Name = 2375
REMARK  8 active torsions:
REMARK  status: ('A' for Active; 'I' for Inactive)
REMARK    1  A    between atoms: N_2  and  C_5
REMARK    2  A    between atoms: C_3  and  C_17
REMARK    3  A    between atoms: C_8  and  C_14
REMARK    4  A    between atoms: C_9  and  C_16
REMARK    5  A    between atoms: C_17  and  O_19
REMARK    6  A    between atoms: C_17  and  C_21
REMARK    7  A    between atoms: C_21  and  S_22
REMARK    8  A    between atoms: S_22  and  C_26
REMARK                            x       y       z     vdW  Elec       q    Type
REMARK                         _______ _______ _______ _____ _____    ______ ____
ROOT
ATOM      1  O   UNL     1      33.594 -20.313 -20.958  0.00  0.00    -0.272 OA
ATOM      2  N   UNL     1      35.547 -19.022 -20.897  0.00  0.00    -0.282 N 
ATOM      3  C   UNL     1      34.772 -20.149 -20.645  0.00  0.00    +0.252 C 
ATOM      4  H   UNL     1      36.478 -19.055 -20.578  0.00  0.00    +0.155 HD
ENDROOT
BRANCH   2   5
ATOM      5  C   UNL     1      35.155 -17.833 -21.557  0.00  0.00    +0.050 C 
ATOM      6  C   UNL     1      34.290 -16.959 -20.921  0.00  0.00    +0.019 C 
ATOM      7  C   UNL     1      35.644 -17.571 -22.826  0.00  0.00    +0.015 C 
ATOM      8  C   UNL     1      33.903 -15.787 -21.573  0.00  0.00    +0.082 C 
ATOM      9  C   UNL     1      34.388 -15.508 -22.851  0.00  0.00    +0.072 C 
ATOM     10  C   UNL     1      35.258 -16.399 -23.478  0.00  0.00    +0.011 C 
BRANCH   8  14
ATOM     11  F   UNL     1      31.893 -14.528 -21.635  0.00  0.00    -0.166 F 
ATOM     12  F   UNL     1      32.473 -15.383 -19.722  0.00  0.00    -0.166 F 
ATOM     13  F   UNL     1      33.584 -13.694 -20.539  0.00  0.00    -0.166 F 
ATOM     14  C   UNL     1      32.967 -14.855 -20.871  0.00  0.00    +0.419 C 
ENDBRANCH   8  14
BRANCH   9  16
ATOM     15  N   UNL     1      33.694 -13.346 -24.100  0.00  0.00    -0.191 NA
ATOM     16  C   UNL     1      34.004 -14.314 -23.541  0.00  0.00    +0.100 C 
ENDBRANCH   9  16
ENDBRANCH   2   5
BRANCH   3  17
ATOM     17  C   UNL     1      35.546 -21.253 -19.898  0.00  0.00    +0.179 C 
ATOM     18  C   UNL     1      37.037 -20.907 -19.824  0.00  0.00    +0.041 C 
BRANCH  17  19
ATOM     19  O   UNL     1      35.427 -22.459 -20.652  0.00  0.00    -0.377 OA
ATOM     20  H   UNL     1      36.132 -23.072 -20.392  0.00  0.00    +0.211 HD
ENDBRANCH  17  19
BRANCH  17  21
ATOM     21  C   UNL     1      34.997 -21.526 -18.494  0.00  0.00    +0.191 C 
BRANCH  21  22
ATOM     22  S   UNL     1      33.644 -22.665 -18.480  0.00  0.00    +0.012 S 
ATOM     23  O   UNL     1      33.988 -23.805 -19.309  0.00  0.00    -0.169 OA
ATOM     24  O   UNL     1      32.430 -21.911 -18.737  0.00  0.00    -0.169 OA
BRANCH  22  26
ATOM     25  F   UNL     1      33.462 -24.569 -12.925  0.00  0.00    -0.204 F 
ATOM     26  C   UNL     1      33.589 -23.237 -16.809  0.00  0.00    +0.106 C 
ATOM     27  C   UNL     1      32.361 -23.418 -16.195  0.00  0.00    +0.021 C 
ATOM     28  C   UNL     1      34.775 -23.497 -16.144  0.00  0.00    +0.021 C 
ATOM     29  C   UNL     1      32.318 -23.870 -14.877  0.00  0.00    +0.031 C 
ATOM     30  C   UNL     1      34.732 -23.948 -14.826  0.00  0.00    +0.031 C 
ATOM     31  C   UNL     1      33.503 -24.135 -14.192  0.00  0.00    +0.140 C 
ENDBRANCH  22  26
ENDBRANCH  21  22
ENDBRANCH  17  21
ENDBRANCH   3  17
TORSDOF 8
ENDMDL
MODEL 9
REMARK VINA RESULT:      -9.8      2.973      4.381
REMARK  Name = 2375
REMARK  8 active torsions:
REMARK  status: ('A' for Active; 'I' for Inactive)
REMARK    1  A    between atoms: N_2  and  C_5
REMARK    2  A    between atoms: C_3  and  C_17
REMARK    3  A    between atoms: C_8  and  C_14
REMARK    4  A    between atoms: C_9  and  C_16
REMARK    5  A    between atoms: C_17  and  O_19
REMARK    6  A    between atoms: C_17  and  C_21
REMARK    7  A    between atoms: C_21  and  S_22
REMARK    8  A    between atoms: S_22  and  C_26
REMARK                            x       y       z     vdW  Elec       q    Type
REMARK                         _______ _______ _______ _____ _____    ______ ____
ROOT
ATOM      1  O   UNL     1      34.585 -16.110 -20.035  0.00  0.00    -0.272 OA
ATOM      2  N   UNL     1      34.055 -17.625 -21.741  0.00  0.00    -0.282 N 
ATOM      3  C   UNL     1      34.326 -16.369 -21.210  0.00  0.00    +0.252 C 
ATOM      4  H   UNL     1      33.869 -17.657 -22.707  0.00  0.00    +0.155 HD
ENDROOT
BRANCH   2   5
ATOM      5  C   UNL     1      34.013 -18.863 -21.056  0.00  0.00    +0.050 C 
ATOM      6  C   UNL     1      35.196 -19.535 -20.798  0.00  0.00    +0.019 C 
ATOM      7  C   UNL     1      32.789 -19.376 -20.658  0.00  0.00    +0.015 C 
ATOM      8  C   UNL     1      35.154 -20.755 -20.123  0.00  0.00    +0.082 C 
ATOM      9  C   UNL     1      33.930 -21.285 -19.715  0.00  0.00    +0.072 C 
ATOM     10  C   UNL     1      32.747 -20.596 -19.983  0.00  0.00    +0.011 C 
BRANCH   8  14
ATOM     11  F   UNL     1      37.526 -20.714 -20.173  0.00  0.00    -0.166 F 
ATOM     12  F   UNL     1      36.584 -21.811 -18.549  0.00  0.00    -0.166 F 
ATOM     13  F   UNL     1      36.532 -22.613 -20.577  0.00  0.00    -0.166 F 
ATOM     14  C   UNL     1      36.442 -21.467 -19.855  0.00  0.00    +0.419 C 
ENDBRANCH   8  14
BRANCH   9  16
ATOM     15  N   UNL     1      33.804 -23.549 -18.462  0.00  0.00    -0.191 NA
ATOM     16  C   UNL     1      33.860 -22.536 -19.023  0.00  0.00    +0.100 C 
ENDBRANCH   9  16
ENDBRANCH   2   5
BRANCH   3  17
ATOM     17  C   UNL     1      34.282 -15.249 -22.267  0.00  0.00    +0.179 C 
ATOM     18  C   UNL     1      34.941 -15.714 -23.570  0.00  0.00    +0.041 C 
BRANCH  17  19
ATOM     19  O   UNL     1      35.046 -14.149 -21.774  0.00  0.00    -0.377 OA
ATOM     20  H   UNL     1      34.738 -13.915 -20.885  0.00  0.00    +0.211 HD
ENDBRANCH  17  19
BRANCH  17  21
ATOM     21  C   UNL     1      32.863 -14.742 -22.545  0.00  0.00    +0.191 C 
BRANCH  21  22
ATOM     22  S   UNL     1      32.827 -13.191 -23.395  0.00  0.00    +0.012 S 
ATOM     23  O   UNL     1      31.796 -13.243 -24.413  0.00  0.00    -0.169 OA
ATOM     24  O   UNL     1      34.194 -12.852 -23.750  0.00  0.00    -0.169 OA
BRANCH  22  26
ATOM     25  F   UNL     1      31.021  -9.384 -19.301  0.00  0.00    -0.204 F 
ATOM     26  C   UNL     1      32.283 -12.046 -22.163  0.00  0.00    +0.106 C 
ATOM     27  C   UNL     1      32.025 -12.502 -20.882  0.00  0.00    +0.021 C 
ATOM     28  C   UNL     1      32.127 -10.712 -22.502  0.00  0.00    +0.021 C 
ATOM     29  C   UNL     1      31.596 -11.599 -19.910  0.00  0.00    +0.031 C 
ATOM     30  C   UNL     1      31.698  -9.809 -21.530  0.00  0.00    +0.031 C 
ATOM     31  C   UNL     1      31.433 -10.252 -20.234  0.00  0.00    +0.140 C 
ENDBRANCH  22  26
ENDBRANCH  21  22
ENDBRANCH  17  21
ENDBRANCH   3  17
TORSDOF 8
ENDMDL
