MODEL 1
REMARK VINA RESULT:      -9.7      0.000      0.000
REMARK  Name = 28864
REMARK  3 active torsions:
REMARK  status: ('A' for Active; 'I' for Inactive)
REMARK    1  A    between atoms: C_6  and  N_21
REMARK    2  A    between atoms: N_22  and  C_25
REMARK    3  A    between atoms: N_22  and  C_27
REMARK                            x       y       z     vdW  Elec       q    Type
REMARK                         _______ _______ _______ _____ _____    ______ ____
ROOT
ATOM      1  N   UNL     1      32.829 -13.359 -21.638  0.00  0.00    +0.391 N 
ATOM      2  N   UNL     1      35.823 -18.555 -21.778  0.00  0.00    -0.312 N 
ATOM      3  C   UNL     1      33.162 -14.775 -21.956  0.00  0.00    -0.030 C 
ATOM      4  C   UNL     1      33.436 -15.017 -23.470  0.00  0.00    -0.044 C 
ATOM      5  C   UNL     1      34.346 -15.252 -21.035  0.00  0.00    +0.011 C 
ATOM      6  C   UNL     1      32.538 -12.765 -24.026  0.00  0.00    +0.074 C 
ATOM      7  C   UNL     1      31.902 -12.791 -22.632  0.00  0.00    -0.052 C 
ATOM      8  C   UNL     1      34.875 -16.566 -21.486  0.00  0.00    -0.008 C 
ATOM      9  C   UNL     1      34.014 -16.322 -23.862  0.00  0.00    -0.005 C 
ATOM     10  C   UNL     1      34.679 -16.980 -22.820  0.00  0.00    +0.010 C 
ATOM     11  C   UNL     1      33.174 -14.070 -24.390  0.00  0.00    -0.015 C 
ATOM     12  C   UNL     1      35.276 -18.217 -22.997  0.00  0.00    +0.048 C 
ATOM     13  C   UNL     1      32.251 -13.212 -20.297  0.00  0.00    -0.100 C 
ATOM     14  C   UNL     1      35.588 -17.558 -20.856  0.00  0.00    +0.058 C 
ATOM     15  C   UNL     1      33.976 -16.966 -25.104  0.00  0.00    -0.000 C 
ATOM     16  C   UNL     1      35.246 -18.874 -24.227  0.00  0.00    +0.015 C 
ATOM     17  C   UNL     1      34.583 -18.219 -25.278  0.00  0.00    +0.001 C 
ATOM     18  H   UNL     1      33.710 -12.845 -21.665  0.00  0.00    -0.079 HD
ATOM     19  H   UNL     1      36.312 -19.389 -21.593  0.00  0.00    +0.152 HD
ENDROOT
BRANCH   6  21
ATOM     20  O   UNL     1      32.269 -10.097 -23.140  0.00  0.00    -0.253 OA
ATOM     21  N   UNL     1      33.541 -11.734 -24.136  0.00  0.00    -0.289 N 
ATOM     22  N   UNL     1      34.408  -9.554 -23.870  0.00  0.00    -0.264 N 
ATOM     23  C   UNL     1      33.330 -10.436 -23.672  0.00  0.00    +0.304 C 
ATOM     24  H   UNL     1      34.404 -11.954 -24.554  0.00  0.00    +0.151 HD
BRANCH  22  25
ATOM     25  C   UNL     1      34.351  -8.159 -23.454  0.00  0.00    +0.095 C 
ATOM     26  C   UNL     1      34.508  -7.225 -24.643  0.00  0.00    +0.023 C 
ENDBRANCH  22  25
BRANCH  22  27
ATOM     27  C   UNL     1      35.654  -9.980 -24.503  0.00  0.00    +0.095 C 
ATOM     28  C   UNL     1      35.441 -10.302 -25.972  0.00  0.00    +0.023 C 
ENDBRANCH  22  27
ENDBRANCH   6  21
TORSDOF 3
ENDMDL
MODEL 2
REMARK VINA RESULT:      -8.5      2.083      7.403
REMARK  Name = 28864
REMARK  3 active torsions:
REMARK  status: ('A' for Active; 'I' for Inactive)
REMARK    1  A    between atoms: C_6  and  N_21
REMARK    2  A    between atoms: N_22  and  C_25
REMARK    3  A    between atoms: N_22  and  C_27
REMARK                            x       y       z     vdW  Elec       q    Type
REMARK                         _______ _______ _______ _____ _____    ______ ____
ROOT
ATOM      1  N   UNL     1      33.626 -12.973 -25.899  0.00  0.00    +0.391 N 
ATOM      2  N   UNL     1      34.500  -7.687 -23.201  0.00  0.00    -0.312 N 
ATOM      3  C   UNL     1      33.330 -11.692 -25.199  0.00  0.00    -0.030 C 
ATOM      4  C   UNL     1      32.750 -11.894 -23.767  0.00  0.00    -0.044 C 
ATOM      5  C   UNL     1      34.612 -10.779 -25.218  0.00  0.00    +0.011 C 
ATOM      6  C   UNL     1      32.401 -14.315 -24.213  0.00  0.00    +0.074 C 
ATOM      7  C   UNL     1      32.547 -13.954 -25.696  0.00  0.00    -0.052 C 
ATOM      8  C   UNL     1      34.444  -9.607 -24.321  0.00  0.00    -0.008 C 
ATOM      9  C   UNL     1      32.653 -10.703 -22.893  0.00  0.00    -0.005 C 
ATOM     10  C   UNL     1      33.514  -9.662 -23.262  0.00  0.00    +0.010 C 
ATOM     11  C   UNL     1      32.366 -13.107 -23.331  0.00  0.00    -0.015 C 
ATOM     12  C   UNL     1      33.557  -8.465 -22.566  0.00  0.00    +0.048 C 
ATOM     13  C   UNL     1      33.844 -12.782 -27.337  0.00  0.00    -0.100 C 
ATOM     14  C   UNL     1      35.046  -8.371 -24.265  0.00  0.00    +0.058 C 
ATOM     15  C   UNL     1      31.830 -10.490 -21.781  0.00  0.00    -0.000 C 
ATOM     16  C   UNL     1      32.742  -8.235 -21.456  0.00  0.00    +0.015 C 
ATOM     17  C   UNL     1      31.878  -9.276 -21.080  0.00  0.00    +0.001 C 
ATOM     18  H   UNL     1      34.489 -13.330 -25.488  0.00  0.00    -0.079 HD
ATOM     19  H   UNL     1      34.748  -6.772 -22.933  0.00  0.00    +0.152 HD
ENDROOT
BRANCH   6  21
ATOM     20  O   UNL     1      32.634 -15.468 -21.645  0.00  0.00    -0.253 OA
ATOM     21  N   UNL     1      33.477 -15.166 -23.763  0.00  0.00    -0.289 N 
ATOM     22  N   UNL     1      34.643 -16.496 -22.199  0.00  0.00    -0.264 N 
ATOM     23  C   UNL     1      33.518 -15.697 -22.475  0.00  0.00    +0.304 C 
ATOM     24  H   UNL     1      34.207 -15.378 -24.388  0.00  0.00    +0.151 HD
BRANCH  22  25
ATOM     25  C   UNL     1      34.848 -17.120 -20.899  0.00  0.00    +0.095 C 
ATOM     26  C   UNL     1      34.492 -18.596 -20.936  0.00  0.00    +0.023 C 
ENDBRANCH  22  25
BRANCH  22  27
ATOM     27  C   UNL     1      35.677 -16.752 -23.200  0.00  0.00    +0.095 C 
ATOM     28  C   UNL     1      35.292 -17.910 -24.103  0.00  0.00    +0.023 C 
ENDBRANCH  22  27
ENDBRANCH   6  21
TORSDOF 3
ENDMDL
MODEL 3
REMARK VINA RESULT:      -8.4      1.727      2.433
REMARK  Name = 28864
REMARK  3 active torsions:
REMARK  status: ('A' for Active; 'I' for Inactive)
REMARK    1  A    between atoms: C_6  and  N_21
REMARK    2  A    between atoms: N_22  and  C_25
REMARK    3  A    between atoms: N_22  and  C_27
REMARK                            x       y       z     vdW  Elec       q    Type
REMARK                         _______ _______ _______ _____ _____    ______ ____
ROOT
ATOM      1  N   UNL     1      31.954 -11.876 -20.797  0.00  0.00    +0.391 N 
ATOM      2  N   UNL     1      35.184 -16.621 -22.538  0.00  0.00    -0.312 N 
ATOM      3  C   UNL     1      32.319 -13.145 -21.486  0.00  0.00    -0.030 C 
ATOM      4  C   UNL     1      32.404 -13.001 -23.035  0.00  0.00    -0.044 C 
ATOM      5  C   UNL     1      33.638 -13.722 -20.850  0.00  0.00    +0.011 C 
ATOM      6  C   UNL     1      31.319 -10.766 -22.920  0.00  0.00    +0.074 C 
ATOM      7  C   UNL     1      30.875 -11.172 -21.510  0.00  0.00    -0.052 C 
ATOM      8  C   UNL     1      34.175 -14.843 -21.665  0.00  0.00    -0.008 C 
ATOM      9  C   UNL     1      32.996 -14.124 -23.796  0.00  0.00    -0.005 C 
ATOM     10  C   UNL     1      33.828 -14.949 -23.028  0.00  0.00    +0.010 C 
ATOM     11  C   UNL     1      31.972 -11.891 -23.660  0.00  0.00    -0.015 C 
ATOM     12  C   UNL     1      34.463 -16.055 -23.567  0.00  0.00    +0.048 C 
ATOM     13  C   UNL     1      31.551 -12.096 -19.404  0.00  0.00    -0.100 C 
ATOM     14  C   UNL     1      35.018 -15.892 -21.381  0.00  0.00    +0.058 C 
ATOM     15  C   UNL     1      32.830 -14.461 -25.144  0.00  0.00    -0.000 C 
ATOM     16  C   UNL     1      34.307 -16.405 -24.909  0.00  0.00    +0.015 C 
ATOM     17  C   UNL     1      33.476 -15.582 -25.685  0.00  0.00    +0.001 C 
ATOM     18  H   UNL     1      32.794 -11.297 -20.800  0.00  0.00    -0.079 HD
ATOM     19  H   UNL     1      35.738 -17.431 -22.619  0.00  0.00    +0.152 HD
ENDROOT
BRANCH   6  21
ATOM     20  O   UNL     1      30.676  -8.070 -23.461  0.00  0.00    -0.253 OA
ATOM     21  N   UNL     1      32.240  -9.657 -22.891  0.00  0.00    -0.289 N 
ATOM     22  N   UNL     1      32.871  -7.392 -23.108  0.00  0.00    -0.264 N 
ATOM     23  C   UNL     1      31.843  -8.350 -23.171  0.00  0.00    +0.304 C 
ATOM     24  H   UNL     1      33.182  -9.828 -22.666  0.00  0.00    +0.151 HD
BRANCH  22  25
ATOM     25  C   UNL     1      32.631  -5.981 -23.383  0.00  0.00    +0.095 C 
ATOM     26  C   UNL     1      32.657  -5.701 -24.876  0.00  0.00    +0.023 C 
ENDBRANCH  22  25
BRANCH  22  27
ATOM     27  C   UNL     1      34.245  -7.749 -22.763  0.00  0.00    +0.095 C 
ATOM     28  C   UNL     1      34.962  -8.378 -23.945  0.00  0.00    +0.023 C 
ENDBRANCH  22  27
ENDBRANCH   6  21
TORSDOF 3
ENDMDL
MODEL 4
REMARK VINA RESULT:      -7.8      3.731      9.715
REMARK  Name = 28864
REMARK  3 active torsions:
REMARK  status: ('A' for Active; 'I' for Inactive)
REMARK    1  A    between atoms: C_6  and  N_21
REMARK    2  A    between atoms: N_22  and  C_25
REMARK    3  A    between atoms: N_22  and  C_27
REMARK                            x       y       z     vdW  Elec       q    Type
REMARK                         _______ _______ _______ _____ _____    ______ ____
ROOT
ATOM      1  N   UNL     1      32.538  -6.947 -22.144  0.00  0.00    +0.391 N 
ATOM      2  N   UNL     1      31.044  -3.272 -26.644  0.00  0.00    -0.312 N 
ATOM      3  C   UNL     1      32.664  -5.911 -23.206  0.00  0.00    -0.030 C 
ATOM      4  C   UNL     1      33.599  -6.340 -24.376  0.00  0.00    -0.044 C 
ATOM      5  C   UNL     1      31.228  -5.486 -23.693  0.00  0.00    +0.011 C 
ATOM      6  C   UNL     1      34.421  -8.277 -23.050  0.00  0.00    +0.074 C 
ATOM      7  C   UNL     1      33.843  -7.552 -21.830  0.00  0.00    -0.052 C 
ATOM      8  C   UNL     1      31.308  -4.647 -24.917  0.00  0.00    -0.008 C 
ATOM      9  C   UNL     1      33.601  -5.501 -25.595  0.00  0.00    -0.005 C 
ATOM     10  C   UNL     1      32.447  -4.722 -25.746  0.00  0.00    +0.010 C 
ATOM     11  C   UNL     1      34.364  -7.443 -24.292  0.00  0.00    -0.015 C 
ATOM     12  C   UNL     1      32.274  -3.868 -26.822  0.00  0.00    +0.048 C 
ATOM     13  C   UNL     1      31.944  -6.411 -20.913  0.00  0.00    -0.100 C 
ATOM     14  C   UNL     1      30.449  -3.740 -25.493  0.00  0.00    +0.058 C 
ATOM     15  C   UNL     1      34.585  -5.384 -26.583  0.00  0.00    -0.000 C 
ATOM     16  C   UNL     1      33.246  -3.738 -27.815  0.00  0.00    +0.015 C 
ATOM     17  C   UNL     1      34.405  -4.517 -27.671  0.00  0.00    +0.001 C 
ATOM     18  H   UNL     1      31.913  -7.663 -22.515  0.00  0.00    -0.079 HD
ATOM     19  H   UNL     1      30.648  -2.607 -27.252  0.00  0.00    +0.152 HD
ENDROOT
BRANCH   6  21
ATOM     20  O   UNL     1      35.324 -10.348 -24.745  0.00  0.00    -0.253 OA
ATOM     21  N   UNL     1      33.730  -9.516 -23.312  0.00  0.00    -0.289 N 
ATOM     22  N   UNL     1      33.436 -11.633 -24.316  0.00  0.00    -0.264 N 
ATOM     23  C   UNL     1      34.245 -10.491 -24.165  0.00  0.00    +0.304 C 
ATOM     24  H   UNL     1      32.864  -9.678 -22.874  0.00  0.00    +0.151 HD
BRANCH  22  25
ATOM     25  C   UNL     1      33.819 -12.743 -25.178  0.00  0.00    +0.095 C 
ATOM     26  C   UNL     1      33.444 -12.469 -26.625  0.00  0.00    +0.023 C 
ENDBRANCH  22  25
BRANCH  22  27
ATOM     27  C   UNL     1      32.161 -11.779 -23.618  0.00  0.00    +0.095 C 
ATOM     28  C   UNL     1      32.260 -12.803 -22.500  0.00  0.00    +0.023 C 
ENDBRANCH  22  27
ENDBRANCH   6  21
TORSDOF 3
ENDMDL
MODEL 5
REMARK VINA RESULT:      -7.5      2.694      7.986
REMARK  Name = 28864
REMARK  3 active torsions:
REMARK  status: ('A' for Active; 'I' for Inactive)
REMARK    1  A    between atoms: C_6  and  N_21
REMARK    2  A    between atoms: N_22  and  C_25
REMARK    3  A    between atoms: N_22  and  C_27
REMARK                            x       y       z     vdW  Elec       q    Type
REMARK                         _______ _______ _______ _____ _____    ______ ____
ROOT
ATOM      1  N   UNL     1      31.663 -11.315 -22.317  0.00  0.00    +0.391 N 
ATOM      2  N   UNL     1      31.128  -5.743 -24.474  0.00  0.00    -0.312 N 
ATOM      3  C   UNL     1      31.973  -9.884 -22.593  0.00  0.00    -0.030 C 
ATOM      4  C   UNL     1      33.248  -9.689 -23.467  0.00  0.00    -0.044 C 
ATOM      5  C   UNL     1      30.701  -9.184 -23.200  0.00  0.00    +0.011 C 
ATOM      6  C   UNL     1      33.866 -12.078 -23.157  0.00  0.00    +0.074 C 
ATOM      7  C   UNL     1      32.882 -12.070 -21.981  0.00  0.00    -0.052 C 
ATOM      8  C   UNL     1      31.035  -7.833 -23.722  0.00  0.00    -0.008 C 
ATOM      9  C   UNL     1      33.508  -8.336 -24.008  0.00  0.00    -0.005 C 
ATOM     10  C   UNL     1      32.366  -7.528 -24.078  0.00  0.00    +0.010 C 
ATOM     11  C   UNL     1      34.076 -10.714 -23.736  0.00  0.00    -0.015 C 
ATOM     12  C   UNL     1      32.416  -6.227 -24.550  0.00  0.00    +0.048 C 
ATOM     13  C   UNL     1      30.683 -11.472 -21.236  0.00  0.00    -0.100 C 
ATOM     14  C   UNL     1      30.282  -6.710 -23.976  0.00  0.00    +0.058 C 
ATOM     15  C   UNL     1      34.715  -7.775 -24.439  0.00  0.00    -0.000 C 
ATOM     16  C   UNL     1      33.611  -5.652 -24.982  0.00  0.00    +0.015 C 
ATOM     17  C   UNL     1      34.760  -6.457 -24.916  0.00  0.00    +0.001 C 
ATOM     18  H   UNL     1      31.258 -11.690 -23.174  0.00  0.00    -0.079 HD
ATOM     19  H   UNL     1      30.852  -4.835 -24.738  0.00  0.00    +0.152 HD
ENDROOT
BRANCH   6  21
ATOM     20  O   UNL     1      34.350 -14.856 -23.320  0.00  0.00    -0.253 OA
ATOM     21  N   UNL     1      33.424 -12.951 -24.217  0.00  0.00    -0.289 N 
ATOM     22  N   UNL     1      33.209 -15.018 -25.338  0.00  0.00    -0.264 N 
ATOM     23  C   UNL     1      33.705 -14.317 -24.223  0.00  0.00    +0.304 C 
ATOM     24  H   UNL     1      32.907 -12.569 -24.961  0.00  0.00    +0.151 HD
BRANCH  22  25
ATOM     25  C   UNL     1      33.421 -16.449 -25.508  0.00  0.00    +0.095 C 
ATOM     26  C   UNL     1      34.893 -16.804 -25.382  0.00  0.00    +0.023 C 
ENDBRANCH  22  25
BRANCH  22  27
ATOM     27  C   UNL     1      32.448 -14.356 -26.396  0.00  0.00    +0.095 C 
ATOM     28  C   UNL     1      33.369 -13.629 -27.360  0.00  0.00    +0.023 C 
ENDBRANCH  22  27
ENDBRANCH   6  21
TORSDOF 3
ENDMDL
MODEL 6
REMARK VINA RESULT:      -6.7      3.018      9.444
REMARK  Name = 28864
REMARK  3 active torsions:
REMARK  status: ('A' for Active; 'I' for Inactive)
REMARK    1  A    between atoms: C_6  and  N_21
REMARK    2  A    between atoms: N_22  and  C_25
REMARK    3  A    between atoms: N_22  and  C_27
REMARK                            x       y       z     vdW  Elec       q    Type
REMARK                         _______ _______ _______ _____ _____    ______ ____
ROOT
ATOM      1  N   UNL     1      32.873  -8.305 -23.058  0.00  0.00    +0.391 N 
ATOM      2  N   UNL     1      31.334  -3.467 -26.253  0.00  0.00    -0.312 N 
ATOM      3  C   UNL     1      32.968  -6.971 -23.712  0.00  0.00    -0.030 C 
ATOM      4  C   UNL     1      34.016  -6.925 -24.864  0.00  0.00    -0.044 C 
ATOM      5  C   UNL     1      31.534  -6.510 -24.170  0.00  0.00    +0.011 C 
ATOM      6  C   UNL     1      34.932  -9.128 -24.163  0.00  0.00    +0.074 C 
ATOM      7  C   UNL     1      34.207  -8.887 -22.834  0.00  0.00    -0.052 C 
ATOM      8  C   UNL     1      31.614  -5.311 -25.044  0.00  0.00    -0.008 C 
ATOM      9  C   UNL     1      34.019  -5.733 -25.742  0.00  0.00    -0.005 C 
ATOM     10  C   UNL     1      32.807  -5.031 -25.742  0.00  0.00    +0.010 C 
ATOM     11  C   UNL     1      34.877  -7.938 -25.068  0.00  0.00    -0.015 C 
ATOM     12  C   UNL     1      32.625  -3.883 -26.496  0.00  0.00    +0.048 C 
ATOM     13  C   UNL     1      32.149  -8.247 -21.782  0.00  0.00    -0.100 C 
ATOM     14  C   UNL     1      30.712  -4.328 -25.376  0.00  0.00    +0.058 C 
ATOM     15  C   UNL     1      35.051  -5.229 -26.542  0.00  0.00    -0.000 C 
ATOM     16  C   UNL     1      33.643  -3.367 -27.298  0.00  0.00    +0.015 C 
ATOM     17  C   UNL     1      34.861  -4.067 -27.304  0.00  0.00    +0.001 C 
ATOM     18  H   UNL     1      32.347  -8.900 -23.698  0.00  0.00    -0.079 HD
ATOM     19  H   UNL     1      30.917  -2.667 -26.649  0.00  0.00    +0.152 HD
ENDROOT
BRANCH   6  21
ATOM     20  O   UNL     1      33.861 -11.462 -22.986  0.00  0.00    -0.253 OA
ATOM     21  N   UNL     1      34.383 -10.257 -24.874  0.00  0.00    -0.289 N 
ATOM     22  N   UNL     1      33.386 -12.389 -25.063  0.00  0.00    -0.264 N 
ATOM     23  C   UNL     1      33.872 -11.375 -24.217  0.00  0.00    +0.304 C 
ATOM     24  H   UNL     1      34.369 -10.236 -25.858  0.00  0.00    +0.151 HD
BRANCH  22  25
ATOM     25  C   UNL     1      32.827 -13.629 -24.542  0.00  0.00    +0.095 C 
ATOM     26  C   UNL     1      33.899 -14.478 -23.879  0.00  0.00    +0.023 C 
ENDBRANCH  22  25
BRANCH  22  27
ATOM     27  C   UNL     1      33.409 -12.262 -26.519  0.00  0.00    +0.095 C 
ATOM     28  C   UNL     1      33.212 -13.610 -27.190  0.00  0.00    +0.023 C 
ENDBRANCH  22  27
ENDBRANCH   6  21
TORSDOF 3
ENDMDL
