MODEL 1
REMARK VINA RESULT:     -10.0      0.000      0.000
REMARK  Name = 4735
REMARK  10 active torsions:
REMARK  status: ('A' for Active; 'I' for Inactive)
REMARK    1  A    between atoms: C_1  and  C_2
REMARK    2  A    between atoms: C_1  and  C_17
REMARK    3  A    between atoms: C_2  and  C_3
REMARK    4  A    between atoms: C_3  and  O_4
REMARK    5  A    between atoms: O_4  and  C_5
REMARK    6  A    between atoms: C_8  and  C_13
REMARK    7  A    between atoms: C_17  and  C_18
REMARK    8  A    between atoms: C_18  and  O_19
REMARK    9  A    between atoms: O_19  and  C_20
REMARK   10  A    between atoms: C_23  and  C_28
REMARK                            x       y       z     vdW  Elec       q    Type
REMARK                         _______ _______ _______ _____ _____    ______ ____
ROOT
ATOM      1  C   UNL     1      34.460 -23.303 -15.944  0.00  0.00    +0.008 C 
ENDROOT
BRANCH   1   2
ATOM      2  C   UNL     1      34.295 -24.451 -14.943  0.00  0.00    +0.047 C 
BRANCH   2   3
ATOM      3  C   UNL     1      33.630 -23.996 -13.649  0.00  0.00    +0.205 C 
BRANCH   3   4
ATOM      4  O   UNL     1      32.422 -24.716 -13.446  0.00  0.00    -0.475 OA
BRANCH   4   5
ATOM      5  C   UNL     1      31.331 -24.311 -14.172  0.00  0.00    +0.139 C 
ATOM      6  C   UNL     1      30.509 -25.257 -14.783  0.00  0.00    +0.037 C 
ATOM      7  C   UNL     1      31.043 -22.952 -14.297  0.00  0.00    +0.037 C 
ATOM      8  C   UNL     1      29.110 -23.487 -15.645  0.00  0.00    +0.031 C 
ATOM      9  C   UNL     1      29.398 -24.846 -15.519  0.00  0.00    +0.006 C 
ATOM     10  C   UNL     1      29.932 -22.540 -15.033  0.00  0.00    +0.006 C 
BRANCH   8  13
ATOM     11  N   UNL     1      26.960 -22.261 -15.843  0.00  0.00    -0.343 N 
ATOM     12  N   UNL     1      27.826 -23.424 -17.675  0.00  0.00    -0.285 NA
ATOM     13  C   UNL     1      27.952 -23.056 -16.412  0.00  0.00    +0.117 C 
ATOM     14  H   UNL     1      26.184 -21.981 -16.381  0.00  0.00    +0.144 HD
ATOM     15  H   UNL     1      27.034 -21.979 -14.902  0.00  0.00    +0.144 HD
ATOM     16  H   UNL     1      27.043 -23.134 -18.196  0.00  0.00    +0.188 HD
ENDBRANCH   8  13
ENDBRANCH   4   5
ENDBRANCH   3   4
ENDBRANCH   2   3
ENDBRANCH   1   2
BRANCH   1  17
ATOM     17  C   UNL     1      33.304 -23.265 -16.940  0.00  0.00    +0.047 C 
BRANCH  17  18
ATOM     18  C   UNL     1      33.798 -23.090 -18.369  0.00  0.00    +0.205 C 
BRANCH  18  19
ATOM     19  O   UNL     1      32.947 -22.171 -19.040  0.00  0.00    -0.475 OA
BRANCH  19  20
ATOM     20  C   UNL     1      33.555 -21.155 -19.731  0.00  0.00    +0.139 C 
ATOM     21  C   UNL     1      34.944 -21.122 -19.843  0.00  0.00    +0.037 C 
ATOM     22  C   UNL     1      32.783 -20.156 -20.326  0.00  0.00    +0.037 C 
ATOM     23  C   UNL     1      34.791 -19.091 -21.142  0.00  0.00    +0.031 C 
ATOM     24  C   UNL     1      35.563 -20.090 -20.548  0.00  0.00    +0.006 C 
ATOM     25  C   UNL     1      33.401 -19.124 -21.030  0.00  0.00    +0.006 C 
BRANCH  23  28
ATOM     26  N   UNL     1      35.066 -16.684 -21.689  0.00  0.00    -0.343 N 
ATOM     27  N   UNL     1      36.390 -18.292 -22.749  0.00  0.00    -0.285 NA
ATOM     28  C   UNL     1      35.436 -18.015 -21.878  0.00  0.00    +0.117 C 
ATOM     29  H   UNL     1      35.515 -15.971 -22.197  0.00  0.00    +0.144 HD
ATOM     30  H   UNL     1      34.355 -16.458 -21.047  0.00  0.00    +0.144 HD
ATOM     31  H   UNL     1      36.827 -17.565 -23.247  0.00  0.00    +0.188 HD
ENDBRANCH  23  28
ENDBRANCH  19  20
ENDBRANCH  18  19
ENDBRANCH  17  18
ENDBRANCH   1  17
TORSDOF 10
ENDMDL
MODEL 2
REMARK VINA RESULT:      -9.8      0.919      7.803
REMARK  Name = 4735
REMARK  10 active torsions:
REMARK  status: ('A' for Active; 'I' for Inactive)
REMARK    1  A    between atoms: C_1  and  C_2
REMARK    2  A    between atoms: C_1  and  C_17
REMARK    3  A    between atoms: C_2  and  C_3
REMARK    4  A    between atoms: C_3  and  O_4
REMARK    5  A    between atoms: O_4  and  C_5
REMARK    6  A    between atoms: C_8  and  C_13
REMARK    7  A    between atoms: C_17  and  C_18
REMARK    8  A    between atoms: C_18  and  O_19
REMARK    9  A    between atoms: O_19  and  C_20
REMARK   10  A    between atoms: C_23  and  C_28
REMARK                            x       y       z     vdW  Elec       q    Type
REMARK                         _______ _______ _______ _____ _____    ______ ____
ROOT
ATOM      1  C   UNL     1      35.413 -24.158 -15.424  0.00  0.00    +0.008 C 
ENDROOT
BRANCH   1   2
ATOM      2  C   UNL     1      34.600 -22.916 -15.803  0.00  0.00    +0.047 C 
BRANCH   2   3
ATOM      3  C   UNL     1      33.616 -23.195 -16.933  0.00  0.00    +0.205 C 
BRANCH   3   4
ATOM      4  O   UNL     1      34.320 -23.371 -18.155  0.00  0.00    -0.475 OA
BRANCH   4   5
ATOM      5  C   UNL     1      34.460 -22.266 -18.953  0.00  0.00    +0.139 C 
ATOM      6  C   UNL     1      35.732 -21.831 -19.326  0.00  0.00    +0.037 C 
ATOM      7  C   UNL     1      33.330 -21.577 -19.395  0.00  0.00    +0.037 C 
ATOM      8  C   UNL     1      34.745 -20.018 -20.582  0.00  0.00    +0.031 C 
ATOM      9  C   UNL     1      35.875 -20.707 -20.140  0.00  0.00    +0.006 C 
ATOM     10  C   UNL     1      33.473 -20.454 -20.209  0.00  0.00    +0.006 C 
BRANCH   8  13
ATOM     11  N   UNL     1      34.543 -18.879 -22.778  0.00  0.00    -0.343 N 
ATOM     12  N   UNL     1      35.371 -17.724 -20.924  0.00  0.00    -0.285 NA
ATOM     13  C   UNL     1      34.893 -18.847 -21.430  0.00  0.00    +0.117 C 
ATOM     14  H   UNL     1      34.651 -18.074 -23.335  0.00  0.00    +0.144 HD
ATOM     15  H   UNL     1      34.188 -19.708 -23.175  0.00  0.00    +0.144 HD
ATOM     16  H   UNL     1      35.472 -16.929 -21.497  0.00  0.00    +0.188 HD
ENDBRANCH   8  13
ENDBRANCH   4   5
ENDBRANCH   3   4
ENDBRANCH   2   3
ENDBRANCH   1   2
BRANCH   1  17
ATOM     17  C   UNL     1      34.769 -24.908 -14.260  0.00  0.00    +0.047 C 
BRANCH  17  18
ATOM     18  C   UNL     1      33.878 -23.997 -13.427  0.00  0.00    +0.205 C 
BRANCH  18  19
ATOM     19  O   UNL     1      32.672 -24.684 -13.127  0.00  0.00    -0.475 OA
BRANCH  19  20
ATOM     20  C   UNL     1      31.577 -24.376 -13.892  0.00  0.00    +0.139 C 
ATOM     21  C   UNL     1      30.776 -25.395 -14.405  0.00  0.00    +0.037 C 
ATOM     22  C   UNL     1      31.263 -23.042 -14.155  0.00  0.00    +0.037 C 
ATOM     23  C   UNL     1      29.347 -23.749 -15.446  0.00  0.00    +0.031 C 
ATOM     24  C   UNL     1      29.660 -25.082 -15.182  0.00  0.00    +0.006 C 
ATOM     25  C   UNL     1      30.148 -22.729 -14.933  0.00  0.00    +0.006 C 
BRANCH  23  28
ATOM     26  N   UNL     1      27.386 -22.317 -15.964  0.00  0.00    -0.343 N 
ATOM     27  N   UNL     1      27.865 -24.182 -17.288  0.00  0.00    -0.285 NA
ATOM     28  C   UNL     1      28.184 -23.422 -16.255  0.00  0.00    +0.117 C 
ATOM     29  H   UNL     1      26.603 -22.113 -16.525  0.00  0.00    +0.144 HD
ATOM     30  H   UNL     1      27.604 -21.741 -15.197  0.00  0.00    +0.144 HD
ATOM     31  H   UNL     1      27.079 -23.963 -17.836  0.00  0.00    +0.188 HD
ENDBRANCH  23  28
ENDBRANCH  19  20
ENDBRANCH  18  19
ENDBRANCH  17  18
ENDBRANCH   1  17
TORSDOF 10
ENDMDL
MODEL 3
REMARK VINA RESULT:      -9.6      2.847      4.772
REMARK  Name = 4735
REMARK  10 active torsions:
REMARK  status: ('A' for Active; 'I' for Inactive)
REMARK    1  A    between atoms: C_1  and  C_2
REMARK    2  A    between atoms: C_1  and  C_17
REMARK    3  A    between atoms: C_2  and  C_3
REMARK    4  A    between atoms: C_3  and  O_4
REMARK    5  A    between atoms: O_4  and  C_5
REMARK    6  A    between atoms: C_8  and  C_13
REMARK    7  A    between atoms: C_17  and  C_18
REMARK    8  A    between atoms: C_18  and  O_19
REMARK    9  A    between atoms: O_19  and  C_20
REMARK   10  A    between atoms: C_23  and  C_28
REMARK                            x       y       z     vdW  Elec       q    Type
REMARK                         _______ _______ _______ _____ _____    ______ ____
ROOT
ATOM      1  C   UNL     1      33.249 -20.646 -20.127  0.00  0.00    +0.008 C 
ENDROOT
BRANCH   1   2
ATOM      2  C   UNL     1      34.493 -21.368 -19.600  0.00  0.00    +0.047 C 
BRANCH   2   3
ATOM      3  C   UNL     1      34.178 -22.777 -19.111  0.00  0.00    +0.205 C 
BRANCH   3   4
ATOM      4  O   UNL     1      34.647 -22.944 -17.780  0.00  0.00    -0.475 OA
BRANCH   4   5
ATOM      5  C   UNL     1      33.709 -23.251 -16.828  0.00  0.00    +0.139 C 
ATOM      6  C   UNL     1      32.351 -23.163 -17.132  0.00  0.00    +0.037 C 
ATOM      7  C   UNL     1      34.115 -23.653 -15.555  0.00  0.00    +0.037 C 
ATOM      8  C   UNL     1      31.802 -23.880 -14.891  0.00  0.00    +0.031 C 
ATOM      9  C   UNL     1      31.397 -23.478 -16.164  0.00  0.00    +0.006 C 
ATOM     10  C   UNL     1      33.161 -23.967 -14.587  0.00  0.00    +0.006 C 
BRANCH   8  13
ATOM     11  N   UNL     1      29.757 -25.080 -14.154  0.00  0.00    -0.343 N 
ATOM     12  N   UNL     1      30.893 -23.672 -12.677  0.00  0.00    -0.285 NA
ATOM     13  C   UNL     1      30.809 -24.208 -13.882  0.00  0.00    +0.117 C 
ATOM     14  H   UNL     1      29.096 -25.289 -13.456  0.00  0.00    +0.144 HD
ATOM     15  H   UNL     1      29.675 -25.488 -15.047  0.00  0.00    +0.144 HD
ATOM     16  H   UNL     1      30.222 -23.892 -11.991  0.00  0.00    +0.188 HD
ENDBRANCH   8  13
ENDBRANCH   4   5
ENDBRANCH   3   4
ENDBRANCH   2   3
ENDBRANCH   1   2
BRANCH   1  17
ATOM     17  C   UNL     1      33.628 -19.410 -20.940  0.00  0.00    +0.047 C 
BRANCH  17  18
ATOM     18  C   UNL     1      35.136 -19.273 -21.085  0.00  0.00    +0.205 C 
BRANCH  18  19
ATOM     19  O   UNL     1      35.518 -17.960 -20.701  0.00  0.00    -0.475 OA
BRANCH  19  20
ATOM     20  C   UNL     1      35.094 -16.932 -21.503  0.00  0.00    +0.139 C 
ATOM     21  C   UNL     1      34.544 -15.784 -20.934  0.00  0.00    +0.037 C 
ATOM     22  C   UNL     1      35.217 -17.034 -22.890  0.00  0.00    +0.037 C 
ATOM     23  C   UNL     1      34.236 -14.839 -23.136  0.00  0.00    +0.031 C 
ATOM     24  C   UNL     1      34.115 -14.738 -21.750  0.00  0.00    +0.006 C 
ATOM     25  C   UNL     1      34.787 -15.988 -23.706  0.00  0.00    +0.006 C 
BRANCH  23  28
ATOM     26  N   UNL     1      33.061 -13.988 -25.151  0.00  0.00    -0.343 N 
ATOM     27  N   UNL     1      34.078 -12.500 -23.664  0.00  0.00    -0.285 NA
ATOM     28  C   UNL     1      33.790 -13.748 -23.988  0.00  0.00    +0.117 C 
ATOM     29  H   UNL     1      32.768 -13.235 -25.713  0.00  0.00    +0.144 HD
ATOM     30  H   UNL     1      32.839 -14.911 -25.411  0.00  0.00    +0.144 HD
ATOM     31  H   UNL     1      33.776 -11.761 -24.238  0.00  0.00    +0.188 HD
ENDBRANCH  23  28
ENDBRANCH  19  20
ENDBRANCH  18  19
ENDBRANCH  17  18
ENDBRANCH   1  17
TORSDOF 10
ENDMDL
MODEL 4
REMARK VINA RESULT:      -9.6      2.903      9.737
REMARK  Name = 4735
REMARK  10 active torsions:
REMARK  status: ('A' for Active; 'I' for Inactive)
REMARK    1  A    between atoms: C_1  and  C_2
REMARK    2  A    between atoms: C_1  and  C_17
REMARK    3  A    between atoms: C_2  and  C_3
REMARK    4  A    between atoms: C_3  and  O_4
REMARK    5  A    between atoms: O_4  and  C_5
REMARK    6  A    between atoms: C_8  and  C_13
REMARK    7  A    between atoms: C_17  and  C_18
REMARK    8  A    between atoms: C_18  and  O_19
REMARK    9  A    between atoms: O_19  and  C_20
REMARK   10  A    between atoms: C_23  and  C_28
REMARK                            x       y       z     vdW  Elec       q    Type
REMARK                         _______ _______ _______ _____ _____    ______ ____
ROOT
ATOM      1  C   UNL     1      33.250 -20.558 -20.172  0.00  0.00    +0.008 C 
ENDROOT
BRANCH   1   2
ATOM      2  C   UNL     1      33.668 -19.424 -21.114  0.00  0.00    +0.047 C 
BRANCH   2   3
ATOM      3  C   UNL     1      35.172 -19.178 -21.085  0.00  0.00    +0.205 C 
BRANCH   3   4
ATOM      4  O   UNL     1      35.437 -17.855 -20.638  0.00  0.00    -0.475 OA
BRANCH   4   5
ATOM      5  C   UNL     1      35.032 -16.832 -21.456  0.00  0.00    +0.139 C 
ATOM      6  C   UNL     1      35.249 -16.911 -22.832  0.00  0.00    +0.037 C 
ATOM      7  C   UNL     1      34.401 -15.713 -20.912  0.00  0.00    +0.037 C 
ATOM      8  C   UNL     1      34.204 -14.752 -23.121  0.00  0.00    +0.031 C 
ATOM      9  C   UNL     1      34.835 -15.871 -23.664  0.00  0.00    +0.006 C 
ATOM     10  C   UNL     1      33.987 -14.673 -21.745  0.00  0.00    +0.006 C 
BRANCH   8  13
ATOM     11  N   UNL     1      34.092 -12.342 -23.706  0.00  0.00    -0.343 N 
ATOM     12  N   UNL     1      33.057 -13.934 -25.067  0.00  0.00    -0.285 NA
ATOM     13  C   UNL     1      33.772 -13.668 -23.988  0.00  0.00    +0.117 C 
ATOM     14  H   UNL     1      33.789 -11.623 -24.307  0.00  0.00    +0.144 HD
ATOM     15  H   UNL     1      34.621 -12.122 -22.905  0.00  0.00    +0.144 HD
ATOM     16  H   UNL     1      32.763 -13.201 -25.656  0.00  0.00    +0.188 HD
ENDBRANCH   8  13
ENDBRANCH   4   5
ENDBRANCH   3   4
ENDBRANCH   2   3
ENDBRANCH   1   2
BRANCH   1  17
ATOM     17  C   UNL     1      34.467 -21.256 -19.570  0.00  0.00    +0.047 C 
BRANCH  17  18
ATOM     18  C   UNL     1      34.155 -22.691 -19.176  0.00  0.00    +0.205 C 
BRANCH  18  19
ATOM     19  O   UNL     1      34.680 -22.937 -17.879  0.00  0.00    -0.475 OA
BRANCH  19  20
ATOM     20  C   UNL     1      33.779 -23.252 -16.895  0.00  0.00    +0.139 C 
ATOM     21  C   UNL     1      34.230 -23.720 -15.662  0.00  0.00    +0.037 C 
ATOM     22  C   UNL     1      32.412 -23.101 -17.127  0.00  0.00    +0.037 C 
ATOM     23  C   UNL     1      31.946 -23.889 -14.892  0.00  0.00    +0.031 C 
ATOM     24  C   UNL     1      33.313 -24.039 -14.659  0.00  0.00    +0.006 C 
ATOM     25  C   UNL     1      31.495 -23.420 -16.126  0.00  0.00    +0.006 C 
BRANCH  23  28
ATOM     26  N   UNL     1      30.038 -25.222 -14.027  0.00  0.00    -0.343 N 
ATOM     27  N   UNL     1      31.012 -23.562 -12.701  0.00  0.00    -0.285 NA
ATOM     28  C   UNL     1      30.990 -24.220 -13.847  0.00  0.00    +0.117 C 
ATOM     29  H   UNL     1      29.400 -25.431 -13.307  0.00  0.00    +0.144 HD
ATOM     30  H   UNL     1      30.003 -25.721 -14.874  0.00  0.00    +0.144 HD
ATOM     31  H   UNL     1      30.366 -23.785 -11.994  0.00  0.00    +0.188 HD
ENDBRANCH  23  28
ENDBRANCH  19  20
ENDBRANCH  18  19
ENDBRANCH  17  18
ENDBRANCH   1  17
TORSDOF 10
ENDMDL
MODEL 5
REMARK VINA RESULT:      -9.5      6.492     11.297
REMARK  Name = 4735
REMARK  10 active torsions:
REMARK  status: ('A' for Active; 'I' for Inactive)
REMARK    1  A    between atoms: C_1  and  C_2
REMARK    2  A    between atoms: C_1  and  C_17
REMARK    3  A    between atoms: C_2  and  C_3
REMARK    4  A    between atoms: C_3  and  O_4
REMARK    5  A    between atoms: O_4  and  C_5
REMARK    6  A    between atoms: C_8  and  C_13
REMARK    7  A    between atoms: C_17  and  C_18
REMARK    8  A    between atoms: C_18  and  O_19
REMARK    9  A    between atoms: O_19  and  C_20
REMARK   10  A    between atoms: C_23  and  C_28
REMARK                            x       y       z     vdW  Elec       q    Type
REMARK                         _______ _______ _______ _____ _____    ______ ____
ROOT
ATOM      1  C   UNL     1      34.114 -15.473 -20.707  0.00  0.00    +0.008 C 
ENDROOT
BRANCH   1   2
ATOM      2  C   UNL     1      32.868 -14.583 -20.692  0.00  0.00    +0.047 C 
BRANCH   2   3
ATOM      3  C   UNL     1      32.776 -13.701 -21.932  0.00  0.00    +0.205 C 
BRANCH   3   4
ATOM      4  O   UNL     1      31.601 -12.904 -21.873  0.00  0.00    -0.475 OA
BRANCH   4   5
ATOM      5  C   UNL     1      31.765 -11.583 -21.542  0.00  0.00    +0.139 C 
ATOM      6  C   UNL     1      31.560 -11.163 -20.228  0.00  0.00    +0.037 C 
ATOM      7  C   UNL     1      32.139 -10.661 -22.520  0.00  0.00    +0.037 C 
ATOM      8  C   UNL     1      32.103  -8.897 -20.868  0.00  0.00    +0.031 C 
ATOM      9  C   UNL     1      31.730  -9.820 -19.891  0.00  0.00    +0.006 C 
ATOM     10  C   UNL     1      32.308  -9.318 -22.182  0.00  0.00    +0.006 C 
BRANCH   8  13
ATOM     11  N   UNL     1      31.573  -6.490 -21.172  0.00  0.00    -0.343 N 
ATOM     12  N   UNL     1      33.129  -7.160 -19.563  0.00  0.00    -0.285 NA
ATOM     13  C   UNL     1      32.280  -7.497 -20.518  0.00  0.00    +0.117 C 
ATOM     14  H   UNL     1      31.709  -5.549 -20.918  0.00  0.00    +0.144 HD
ATOM     15  H   UNL     1      30.938  -6.721 -21.888  0.00  0.00    +0.144 HD
ATOM     16  H   UNL     1      33.251  -6.213 -19.324  0.00  0.00    +0.188 HD
ENDBRANCH   8  13
ENDBRANCH   4   5
ENDBRANCH   3   4
ENDBRANCH   2   3
ENDBRANCH   1   2
BRANCH   1  17
ATOM     17  C   UNL     1      34.574 -15.760 -22.135  0.00  0.00    +0.047 C 
BRANCH  17  18
ATOM     18  C   UNL     1      35.336 -17.074 -22.227  0.00  0.00    +0.205 C 
BRANCH  18  19
ATOM     19  O   UNL     1      34.408 -18.131 -22.425  0.00  0.00    -0.475 OA
BRANCH  19  20
ATOM     20  C   UNL     1      34.426 -19.150 -21.509  0.00  0.00    +0.139 C 
ATOM     21  C   UNL     1      35.641 -19.698 -21.099  0.00  0.00    +0.037 C 
ATOM     22  C   UNL     1      33.228 -19.638 -20.985  0.00  0.00    +0.037 C 
ATOM     23  C   UNL     1      34.462 -21.222 -19.641  0.00  0.00    +0.031 C 
ATOM     24  C   UNL     1      35.660 -20.734 -20.164  0.00  0.00    +0.006 C 
ATOM     25  C   UNL     1      33.247 -20.674 -20.051  0.00  0.00    +0.006 C 
BRANCH  23  28
ATOM     26  N   UNL     1      33.420 -23.198 -18.558  0.00  0.00    -0.343 N 
ATOM     27  N   UNL     1      35.518 -22.443 -17.861  0.00  0.00    -0.285 NA
ATOM     28  C   UNL     1      34.481 -22.301 -18.667  0.00  0.00    +0.117 C 
ATOM     29  H   UNL     1      33.453 -23.922 -17.892  0.00  0.00    +0.144 HD
ATOM     30  H   UNL     1      32.637 -23.107 -19.147  0.00  0.00    +0.144 HD
ATOM     31  H   UNL     1      35.533 -23.173 -17.201  0.00  0.00    +0.188 HD
ENDBRANCH  23  28
ENDBRANCH  19  20
ENDBRANCH  18  19
ENDBRANCH  17  18
ENDBRANCH   1  17
TORSDOF 10
ENDMDL
MODEL 6
REMARK VINA RESULT:      -9.5      6.391      9.669
REMARK  Name = 4735
REMARK  10 active torsions:
REMARK  status: ('A' for Active; 'I' for Inactive)
REMARK    1  A    between atoms: C_1  and  C_2
REMARK    2  A    between atoms: C_1  and  C_17
REMARK    3  A    between atoms: C_2  and  C_3
REMARK    4  A    between atoms: C_3  and  O_4
REMARK    5  A    between atoms: O_4  and  C_5
REMARK    6  A    between atoms: C_8  and  C_13
REMARK    7  A    between atoms: C_17  and  C_18
REMARK    8  A    between atoms: C_18  and  O_19
REMARK    9  A    between atoms: O_19  and  C_20
REMARK   10  A    between atoms: C_23  and  C_28
REMARK                            x       y       z     vdW  Elec       q    Type
REMARK                         _______ _______ _______ _____ _____    ______ ____
ROOT
ATOM      1  C   UNL     1      34.134 -14.750 -23.230  0.00  0.00    +0.008 C 
ENDROOT
BRANCH   1   2
ATOM      2  C   UNL     1      34.851 -16.102 -23.170  0.00  0.00    +0.047 C 
BRANCH   2   3
ATOM      3  C   UNL     1      34.837 -16.699 -21.768  0.00  0.00    +0.205 C 
BRANCH   3   4
ATOM      4  O   UNL     1      35.659 -17.857 -21.727  0.00  0.00    -0.475 OA
BRANCH   4   5
ATOM      5  C   UNL     1      35.142 -18.962 -21.100  0.00  0.00    +0.139 C 
ATOM      6  C   UNL     1      33.762 -19.154 -21.052  0.00  0.00    +0.037 C 
ATOM      7  C   UNL     1      35.998 -19.894 -20.513  0.00  0.00    +0.037 C 
ATOM      8  C   UNL     1      34.090 -21.211 -19.829  0.00  0.00    +0.031 C 
ATOM      9  C   UNL     1      33.235 -20.279 -20.416  0.00  0.00    +0.006 C 
ATOM     10  C   UNL     1      35.471 -21.019 -19.878  0.00  0.00    +0.006 C 
BRANCH   8  13
ATOM     11  N   UNL     1      32.524 -22.276 -18.224  0.00  0.00    -0.343 N 
ATOM     12  N   UNL     1      34.018 -23.584 -19.456  0.00  0.00    -0.285 NA
ATOM     13  C   UNL     1      33.543 -22.384 -19.167  0.00  0.00    +0.117 C 
ATOM     14  H   UNL     1      32.168 -23.084 -17.787  0.00  0.00    +0.144 HD
ATOM     15  H   UNL     1      32.158 -21.391 -17.992  0.00  0.00    +0.144 HD
ATOM     16  H   UNL     1      33.649 -24.380 -19.008  0.00  0.00    +0.188 HD
ENDBRANCH   8  13
ENDBRANCH   4   5
ENDBRANCH   3   4
ENDBRANCH   2   3
ENDBRANCH   1   2
BRANCH   1  17
ATOM     17  C   UNL     1      33.844 -14.213 -21.830  0.00  0.00    +0.047 C 
BRANCH  17  18
ATOM     18  C   UNL     1      32.356 -13.987 -21.610  0.00  0.00    +0.205 C 
BRANCH  18  19
ATOM     19  O   UNL     1      31.909 -12.974 -22.500  0.00  0.00    -0.475 OA
BRANCH  19  20
ATOM     20  C   UNL     1      31.991 -11.679 -22.057  0.00  0.00    +0.139 C 
ATOM     21  C   UNL     1      31.610 -11.363 -20.754  0.00  0.00    +0.037 C 
ATOM     22  C   UNL     1      32.460 -10.678 -22.909  0.00  0.00    +0.037 C 
ATOM     23  C   UNL     1      32.163  -9.046 -21.154  0.00  0.00    +0.031 C 
ATOM     24  C   UNL     1      31.695 -10.046 -20.302  0.00  0.00    +0.006 C 
ATOM     25  C   UNL     1      32.545  -9.362 -22.458  0.00  0.00    +0.006 C 
BRANCH  23  28
ATOM     26  N   UNL     1      31.619  -6.632 -21.359  0.00  0.00    -0.343 N 
ATOM     27  N   UNL     1      32.950  -7.394 -19.595  0.00  0.00    -0.285 NA
ATOM     28  C   UNL     1      32.253  -7.673 -20.683  0.00  0.00    +0.117 C 
ATOM     29  H   UNL     1      31.693  -5.709 -21.022  0.00  0.00    +0.144 HD
ATOM     30  H   UNL     1      31.098  -6.818 -22.172  0.00  0.00    +0.144 HD
ATOM     31  H   UNL     1      33.012  -6.466 -19.275  0.00  0.00    +0.188 HD
ENDBRANCH  23  28
ENDBRANCH  19  20
ENDBRANCH  18  19
ENDBRANCH  17  18
ENDBRANCH   1  17
TORSDOF 10
ENDMDL
MODEL 7
REMARK VINA RESULT:      -9.5      6.480      9.673
REMARK  Name = 4735
REMARK  10 active torsions:
REMARK  status: ('A' for Active; 'I' for Inactive)
REMARK    1  A    between atoms: C_1  and  C_2
REMARK    2  A    between atoms: C_1  and  C_17
REMARK    3  A    between atoms: C_2  and  C_3
REMARK    4  A    between atoms: C_3  and  O_4
REMARK    5  A    between atoms: O_4  and  C_5
REMARK    6  A    between atoms: C_8  and  C_13
REMARK    7  A    between atoms: C_17  and  C_18
REMARK    8  A    between atoms: C_18  and  O_19
REMARK    9  A    between atoms: O_19  and  C_20
REMARK   10  A    between atoms: C_23  and  C_28
REMARK                            x       y       z     vdW  Elec       q    Type
REMARK                         _______ _______ _______ _____ _____    ______ ____
ROOT
ATOM      1  C   UNL     1      34.324 -15.379 -21.784  0.00  0.00    +0.008 C 
ENDROOT
BRANCH   1   2
ATOM      2  C   UNL     1      34.881 -15.956 -23.090  0.00  0.00    +0.047 C 
BRANCH   2   3
ATOM      3  C   UNL     1      35.085 -17.464 -23.012  0.00  0.00    +0.205 C 
BRANCH   3   4
ATOM      4  O   UNL     1      35.662 -17.811 -21.760  0.00  0.00    -0.475 OA
BRANCH   4   5
ATOM      5  C   UNL     1      35.157 -18.920 -21.132  0.00  0.00    +0.139 C 
ATOM      6  C   UNL     1      36.020 -19.828 -20.519  0.00  0.00    +0.037 C 
ATOM      7  C   UNL     1      33.779 -19.139 -21.105  0.00  0.00    +0.037 C 
ATOM      8  C   UNL     1      34.129 -21.175 -19.851  0.00  0.00    +0.031 C 
ATOM      9  C   UNL     1      35.506 -20.956 -19.878  0.00  0.00    +0.006 C 
ATOM     10  C   UNL     1      33.266 -20.266 -20.464  0.00  0.00    +0.006 C 
BRANCH   8  13
ATOM     11  N   UNL     1      32.494 -22.262 -18.331  0.00  0.00    -0.343 N 
ATOM     12  N   UNL     1      34.151 -23.531 -19.380  0.00  0.00    -0.285 NA
ATOM     13  C   UNL     1      33.592 -22.350 -19.184  0.00  0.00    +0.117 C 
ATOM     14  H   UNL     1      32.147 -23.070 -17.889  0.00  0.00    +0.144 HD
ATOM     15  H   UNL     1      32.065 -21.390 -18.169  0.00  0.00    +0.144 HD
ATOM     16  H   UNL     1      33.789 -24.328 -18.928  0.00  0.00    +0.188 HD
ENDBRANCH   8  13
ENDBRANCH   4   5
ENDBRANCH   3   4
ENDBRANCH   2   3
ENDBRANCH   1   2
BRANCH   1  17
ATOM     17  C   UNL     1      33.046 -14.580 -22.031  0.00  0.00    +0.047 C 
BRANCH  17  18
ATOM     18  C   UNL     1      32.608 -13.821 -20.788  0.00  0.00    +0.205 C 
BRANCH  18  19
ATOM     19  O   UNL     1      31.520 -12.973 -21.126  0.00  0.00    -0.475 OA
BRANCH  19  20
ATOM     20  C   UNL     1      31.711 -11.625 -20.963  0.00  0.00    +0.139 C 
ATOM     21  C   UNL     1      31.930 -10.813 -22.074  0.00  0.00    +0.037 C 
ATOM     22  C   UNL     1      31.683 -11.067 -19.684  0.00  0.00    +0.037 C 
ATOM     23  C   UNL     1      32.095  -8.883 -20.630  0.00  0.00    +0.031 C 
ATOM     24  C   UNL     1      32.123  -9.441 -21.908  0.00  0.00    +0.006 C 
ATOM     25  C   UNL     1      31.876  -9.696 -19.518  0.00  0.00    +0.006 C 
BRANCH  23  28
ATOM     26  N   UNL     1      31.648  -6.526 -21.273  0.00  0.00    -0.343 N 
ATOM     27  N   UNL     1      33.106  -7.011 -19.512  0.00  0.00    -0.285 NA
ATOM     28  C   UNL     1      32.295  -7.452 -20.456  0.00  0.00    +0.117 C 
ATOM     29  H   UNL     1      31.797  -5.562 -21.138  0.00  0.00    +0.144 HD
ATOM     30  H   UNL     1      31.043  -6.835 -21.984  0.00  0.00    +0.144 HD
ATOM     31  H   UNL     1      33.242  -6.044 -19.393  0.00  0.00    +0.188 HD
ENDBRANCH  23  28
ENDBRANCH  19  20
ENDBRANCH  18  19
ENDBRANCH  17  18
ENDBRANCH   1  17
TORSDOF 10
ENDMDL
MODEL 8
REMARK VINA RESULT:      -9.4      3.675      8.052
REMARK  Name = 4735
REMARK  10 active torsions:
REMARK  status: ('A' for Active; 'I' for Inactive)
REMARK    1  A    between atoms: C_1  and  C_2
REMARK    2  A    between atoms: C_1  and  C_17
REMARK    3  A    between atoms: C_2  and  C_3
REMARK    4  A    between atoms: C_3  and  O_4
REMARK    5  A    between atoms: O_4  and  C_5
REMARK    6  A    between atoms: C_8  and  C_13
REMARK    7  A    between atoms: C_17  and  C_18
REMARK    8  A    between atoms: C_18  and  O_19
REMARK    9  A    between atoms: O_19  and  C_20
REMARK   10  A    between atoms: C_23  and  C_28
REMARK                            x       y       z     vdW  Elec       q    Type
REMARK                         _______ _______ _______ _____ _____    ______ ____
ROOT
ATOM      1  C   UNL     1      31.343 -23.653 -15.833  0.00  0.00    +0.008 C 
ENDROOT
BRANCH   1   2
ATOM      2  C   UNL     1      31.932 -22.857 -17.002  0.00  0.00    +0.047 C 
BRANCH   2   3
ATOM      3  C   UNL     1      33.395 -23.203 -17.255  0.00  0.00    +0.205 C 
BRANCH   3   4
ATOM      4  O   UNL     1      33.629 -23.326 -18.651  0.00  0.00    -0.475 OA
BRANCH   4   5
ATOM      5  C   UNL     1      34.027 -22.194 -19.314  0.00  0.00    +0.139 C 
ATOM      6  C   UNL     1      33.075 -21.317 -19.832  0.00  0.00    +0.037 C 
ATOM      7  C   UNL     1      35.386 -21.918 -19.467  0.00  0.00    +0.037 C 
ATOM      8  C   UNL     1      34.838 -19.888 -20.659  0.00  0.00    +0.031 C 
ATOM      9  C   UNL     1      33.480 -20.164 -20.505  0.00  0.00    +0.006 C 
ATOM     10  C   UNL     1      35.791 -20.765 -20.140  0.00  0.00    +0.006 C 
BRANCH   8  13
ATOM     11  N   UNL     1      35.320 -17.453 -20.714  0.00  0.00    -0.343 N 
ATOM     12  N   UNL     1      35.598 -18.753 -22.636  0.00  0.00    -0.285 NA
ATOM     13  C   UNL     1      35.262 -18.686 -21.359  0.00  0.00    +0.117 C 
ATOM     14  H   UNL     1      35.610 -16.652 -21.208  0.00  0.00    +0.144 HD
ATOM     15  H   UNL     1      35.071 -17.382 -19.764  0.00  0.00    +0.144 HD
ATOM     16  H   UNL     1      35.885 -17.940 -23.112  0.00  0.00    +0.188 HD
ENDBRANCH   8  13
ENDBRANCH   4   5
ENDBRANCH   3   4
ENDBRANCH   2   3
ENDBRANCH   1   2
BRANCH   1  17
ATOM     17  C   UNL     1      31.990 -23.253 -14.509  0.00  0.00    +0.047 C 
BRANCH  17  18
ATOM     18  C   UNL     1      32.662 -24.437 -13.830  0.00  0.00    +0.205 C 
BRANCH  18  19
ATOM     19  O   UNL     1      33.688 -23.955 -12.974  0.00  0.00    -0.475 OA
BRANCH  19  20
ATOM     20  C   UNL     1      34.979 -24.243 -13.332  0.00  0.00    +0.139 C 
ATOM     21  C   UNL     1      35.246 -24.832 -14.567  0.00  0.00    +0.037 C 
ATOM     22  C   UNL     1      36.027 -23.944 -12.460  0.00  0.00    +0.037 C 
ATOM     23  C   UNL     1      37.608 -24.825 -14.061  0.00  0.00    +0.031 C 
ATOM     24  C   UNL     1      36.560 -25.123 -14.932  0.00  0.00    +0.006 C 
ATOM     25  C   UNL     1      37.341 -24.235 -12.825  0.00  0.00    +0.006 C 
BRANCH  23  28
ATOM     26  N   UNL     1      39.737 -26.061 -13.736  0.00  0.00    -0.343 N 
ATOM     27  N   UNL     1      39.528 -24.509 -15.472  0.00  0.00    -0.285 NA
ATOM     28  C   UNL     1      38.979 -25.127 -14.441  0.00  0.00    +0.117 C 
ATOM     29  H   UNL     1      40.663 -26.251 -14.011  0.00  0.00    +0.144 HD
ATOM     30  H   UNL     1      39.347 -26.529 -12.964  0.00  0.00    +0.144 HD
ATOM     31  H   UNL     1      40.455 -24.713 -15.730  0.00  0.00    +0.188 HD
ENDBRANCH  23  28
ENDBRANCH  19  20
ENDBRANCH  18  19
ENDBRANCH  17  18
ENDBRANCH   1  17
TORSDOF 10
ENDMDL
MODEL 9
REMARK VINA RESULT:      -9.4      4.326      6.027
REMARK  Name = 4735
REMARK  10 active torsions:
REMARK  status: ('A' for Active; 'I' for Inactive)
REMARK    1  A    between atoms: C_1  and  C_2
REMARK    2  A    between atoms: C_1  and  C_17
REMARK    3  A    between atoms: C_2  and  C_3
REMARK    4  A    between atoms: C_3  and  O_4
REMARK    5  A    between atoms: O_4  and  C_5
REMARK    6  A    between atoms: C_8  and  C_13
REMARK    7  A    between atoms: C_17  and  C_18
REMARK    8  A    between atoms: C_18  and  O_19
REMARK    9  A    between atoms: O_19  and  C_20
REMARK   10  A    between atoms: C_23  and  C_28
REMARK                            x       y       z     vdW  Elec       q    Type
REMARK                         _______ _______ _______ _____ _____    ______ ____
ROOT
ATOM      1  C   UNL     1      34.558 -21.311 -19.631  0.00  0.00    +0.008 C 
ENDROOT
BRANCH   1   2
ATOM      2  C   UNL     1      36.065 -21.465 -19.405  0.00  0.00    +0.047 C 
BRANCH   2   3
ATOM      3  C   UNL     1      36.402 -21.746 -17.945  0.00  0.00    +0.205 C 
BRANCH   3   4
ATOM      4  O   UNL     1      35.525 -22.737 -17.428  0.00  0.00    -0.475 OA
BRANCH   4   5
ATOM      5  C   UNL     1      35.643 -23.033 -16.094  0.00  0.00    +0.139 C 
ATOM      6  C   UNL     1      34.521 -23.421 -15.363  0.00  0.00    +0.037 C 
ATOM      7  C   UNL     1      36.888 -22.949 -15.470  0.00  0.00    +0.037 C 
ATOM      8  C   UNL     1      35.886 -23.640 -13.382  0.00  0.00    +0.031 C 
ATOM      9  C   UNL     1      34.642 -23.725 -14.007  0.00  0.00    +0.006 C 
ATOM     10  C   UNL     1      37.009 -23.253 -14.114  0.00  0.00    +0.006 C 
BRANCH   8  13
ATOM     11  N   UNL     1      37.039 -23.421 -11.195  0.00  0.00    -0.343 N 
ATOM     12  N   UNL     1      35.144 -24.773 -11.397  0.00  0.00    -0.285 NA
ATOM     13  C   UNL     1      36.013 -23.957 -11.969  0.00  0.00    +0.117 C 
ATOM     14  H   UNL     1      37.107 -23.649 -10.239  0.00  0.00    +0.144 HD
ATOM     15  H   UNL     1      37.699 -22.814 -11.603  0.00  0.00    +0.144 HD
ATOM     16  H   UNL     1      35.229 -24.989 -10.440  0.00  0.00    +0.188 HD
ENDBRANCH   8  13
ENDBRANCH   4   5
ENDBRANCH   3   4
ENDBRANCH   2   3
ENDBRANCH   1   2
BRANCH   1  17
ATOM     17  C   UNL     1      34.252 -20.127 -20.546  0.00  0.00    +0.047 C 
BRANCH  17  18
ATOM     18  C   UNL     1      35.521 -19.529 -21.135  0.00  0.00    +0.205 C 
BRANCH  18  19
ATOM     19  O   UNL     1      35.680 -18.208 -20.640  0.00  0.00    -0.475 OA
BRANCH  19  20
ATOM     20  C   UNL     1      35.225 -17.189 -21.437  0.00  0.00    +0.139 C 
ATOM     21  C   UNL     1      35.345 -17.282 -22.822  0.00  0.00    +0.037 C 
ATOM     22  C   UNL     1      34.639 -16.061 -20.861  0.00  0.00    +0.037 C 
ATOM     23  C   UNL     1      34.296 -15.118 -23.058  0.00  0.00    +0.031 C 
ATOM     24  C   UNL     1      34.881 -16.246 -23.634  0.00  0.00    +0.006 C 
ATOM     25  C   UNL     1      34.175 -15.026 -21.671  0.00  0.00    +0.006 C 
BRANCH  23  28
ATOM     26  N   UNL     1      32.981 -14.290 -24.995  0.00  0.00    -0.343 N 
ATOM     27  N   UNL     1      34.160 -12.791 -23.644  0.00  0.00    -0.285 NA
ATOM     28  C   UNL     1      33.811 -14.039 -23.904  0.00  0.00    +0.117 C 
ATOM     29  H   UNL     1      32.664 -13.545 -25.555  0.00  0.00    +0.144 HD
ATOM     30  H   UNL     1      32.712 -15.213 -25.207  0.00  0.00    +0.144 HD
ATOM     31  H   UNL     1      33.833 -12.060 -24.215  0.00  0.00    +0.188 HD
ENDBRANCH  23  28
ENDBRANCH  19  20
ENDBRANCH  18  19
ENDBRANCH  17  18
ENDBRANCH   1  17
TORSDOF 10
ENDMDL
