MODEL 1
REMARK VINA RESULT:      -7.8      0.000      0.000
REMARK  Name = 447956
REMARK  1 active torsions:
REMARK  status: ('A' for Active; 'I' for Inactive)
REMARK    1  A    between atoms: C_4  and  C_12
REMARK                            x       y       z     vdW  Elec       q    Type
REMARK                         _______ _______ _______ _____ _____    ______ ____
ROOT
ATOM      1  N   UNL     1      33.936 -20.050 -20.613  0.00  0.00    -0.341 NA
ATOM      2  N   UNL     1      35.259 -21.633 -19.367  0.00  0.00    -0.170 NA
ATOM      3  N   UNL     1      32.921 -21.813 -19.445  0.00  0.00    -0.293 N 
ATOM      4  C   UNL     1      35.079 -19.423 -20.959  0.00  0.00    +0.140 C 
ATOM      5  C   UNL     1      36.333 -19.835 -20.555  0.00  0.00    +0.051 C 
ATOM      6  C   UNL     1      36.362 -20.957 -19.752  0.00  0.00    +0.114 C 
ATOM      7  C   UNL     1      34.097 -21.132 -19.827  0.00  0.00    +0.141 C 
ATOM      8  H   UNL     1      32.043 -21.491 -19.752  0.00  0.00    +0.155 HD
ATOM      9  H   UNL     1      32.979 -22.610 -18.870  0.00  0.00    +0.155 HD
ENDROOT
BRANCH   4  12
ATOM     10  S   UNL     1      34.770 -16.711 -21.090  0.00  0.00    -0.074 S 
ATOM     11  N   UNL     1      34.643 -16.877 -23.667  0.00  0.00    -0.407 NA
ATOM     12  C   UNL     1      34.903 -18.269 -21.800  0.00  0.00    +0.155 C 
ATOM     13  C   UNL     1      34.813 -18.156 -23.173  0.00  0.00    +0.104 C 
ATOM     14  C   UNL     1      34.606 -16.034 -22.659  0.00  0.00    +0.135 C 
ATOM     15  C   UNL     1      34.884 -19.267 -24.146  0.00  0.00    +0.063 C 
ATOM     16  C   UNL     1      34.440 -14.571 -22.796  0.00  0.00    +0.074 C 
ENDBRANCH   4  12
TORSDOF 1
ENDMDL
MODEL 2
REMARK VINA RESULT:      -7.6      1.417      1.924
REMARK  Name = 447956
REMARK  1 active torsions:
REMARK  status: ('A' for Active; 'I' for Inactive)
REMARK    1  A    between atoms: C_4  and  C_12
REMARK                            x       y       z     vdW  Elec       q    Type
REMARK                         _______ _______ _______ _____ _____    ______ ____
ROOT
ATOM      1  N   UNL     1      33.884 -20.174 -20.674  0.00  0.00    -0.341 NA
ATOM      2  N   UNL     1      35.132 -21.624 -19.208  0.00  0.00    -0.170 NA
ATOM      3  N   UNL     1      32.795 -21.775 -19.349  0.00  0.00    -0.293 N 
ATOM      4  C   UNL     1      35.050 -19.609 -21.048  0.00  0.00    +0.140 C 
ATOM      5  C   UNL     1      36.281 -19.992 -20.554  0.00  0.00    +0.051 C 
ATOM      6  C   UNL     1      36.260 -21.014 -19.627  0.00  0.00    +0.114 C 
ATOM      7  C   UNL     1      33.996 -21.160 -19.763  0.00  0.00    +0.141 C 
ATOM      8  H   UNL     1      31.934 -21.477 -19.722  0.00  0.00    +0.155 HD
ATOM      9  H   UNL     1      32.818 -22.501 -18.685  0.00  0.00    +0.155 HD
ENDROOT
BRANCH   4  12
ATOM     10  S   UNL     1      34.900 -18.942 -23.694  0.00  0.00    -0.074 S 
ATOM     11  N   UNL     1      34.710 -16.451 -23.027  0.00  0.00    -0.407 NA
ATOM     12  C   UNL     1      34.926 -18.557 -22.021  0.00  0.00    +0.155 C 
ATOM     13  C   UNL     1      34.815 -17.189 -21.864  0.00  0.00    +0.104 C 
ATOM     14  C   UNL     1      34.744 -17.271 -24.054  0.00  0.00    +0.135 C 
ATOM     15  C   UNL     1      34.795 -16.458 -20.579  0.00  0.00    +0.063 C 
ATOM     16  C   UNL     1      34.653 -16.847 -25.468  0.00  0.00    +0.074 C 
ENDBRANCH   4  12
TORSDOF 1
ENDMDL
MODEL 3
REMARK VINA RESULT:      -7.5      3.049      4.482
REMARK  Name = 447956
REMARK  1 active torsions:
REMARK  status: ('A' for Active; 'I' for Inactive)
REMARK    1  A    between atoms: C_4  and  C_12
REMARK                            x       y       z     vdW  Elec       q    Type
REMARK                         _______ _______ _______ _____ _____    ______ ____
ROOT
ATOM      1  N   UNL     1      34.702 -16.810 -22.463  0.00  0.00    -0.341 NA
ATOM      2  N   UNL     1      34.958 -16.146 -20.161  0.00  0.00    -0.170 NA
ATOM      3  N   UNL     1      35.473 -18.329 -20.850  0.00  0.00    -0.293 N 
ATOM      4  C   UNL     1      34.275 -15.560 -22.738  0.00  0.00    +0.140 C 
ATOM      5  C   UNL     1      34.165 -14.562 -21.792  0.00  0.00    +0.051 C 
ATOM      6  C   UNL     1      34.523 -14.916 -20.507  0.00  0.00    +0.114 C 
ATOM      7  C   UNL     1      35.021 -17.031 -21.174  0.00  0.00    +0.141 C 
ATOM      8  H   UNL     1      35.540 -19.017 -21.551  0.00  0.00    +0.155 HD
ATOM      9  H   UNL     1      35.720 -18.546 -19.922  0.00  0.00    +0.155 HD
ENDROOT
BRANCH   4  12
ATOM     10  S   UNL     1      33.334 -13.794 -24.599  0.00  0.00    -0.074 S 
ATOM     11  N   UNL     1      33.593 -15.614 -26.417  0.00  0.00    -0.407 NA
ATOM     12  C   UNL     1      33.936 -15.329 -24.117  0.00  0.00    +0.155 C 
ATOM     13  C   UNL     1      34.003 -16.161 -25.216  0.00  0.00    +0.104 C 
ATOM     14  C   UNL     1      33.218 -14.371 -26.212  0.00  0.00    +0.135 C 
ATOM     15  C   UNL     1      34.471 -17.564 -25.221  0.00  0.00    +0.063 C 
ATOM     16  C   UNL     1      32.721 -13.461 -27.267  0.00  0.00    +0.074 C 
ENDBRANCH   4  12
TORSDOF 1
ENDMDL
MODEL 4
REMARK VINA RESULT:      -7.3      6.221      8.398
REMARK  Name = 447956
REMARK  1 active torsions:
REMARK  status: ('A' for Active; 'I' for Inactive)
REMARK    1  A    between atoms: C_4  and  C_12
REMARK                            x       y       z     vdW  Elec       q    Type
REMARK                         _______ _______ _______ _____ _____    ______ ____
ROOT
ATOM      1  N   UNL     1      34.473 -23.034 -17.501  0.00  0.00    -0.341 NA
ATOM      2  N   UNL     1      32.080 -22.842 -17.301  0.00  0.00    -0.170 NA
ATOM      3  N   UNL     1      33.154 -22.428 -19.345  0.00  0.00    -0.293 N 
ATOM      4  C   UNL     1      34.519 -23.372 -16.197  0.00  0.00    +0.140 C 
ATOM      5  C   UNL     1      33.403 -23.466 -15.389  0.00  0.00    +0.051 C 
ATOM      6  C   UNL     1      32.198 -23.186 -16.001  0.00  0.00    +0.114 C 
ATOM      7  C   UNL     1      33.240 -22.785 -17.981  0.00  0.00    +0.141 C 
ATOM      8  H   UNL     1      33.971 -22.371 -19.892  0.00  0.00    +0.155 HD
ATOM      9  H   UNL     1      32.278 -22.235 -19.748  0.00  0.00    +0.155 HD
ENDROOT
BRANCH   4  12
ATOM     10  S   UNL     1      36.124 -25.055 -14.761  0.00  0.00    -0.074 S 
ATOM     11  N   UNL     1      38.121 -23.468 -15.187  0.00  0.00    -0.407 NA
ATOM     12  C   UNL     1      35.838 -23.638 -15.688  0.00  0.00    +0.155 C 
ATOM     13  C   UNL     1      37.013 -22.923 -15.807  0.00  0.00    +0.104 C 
ATOM     14  C   UNL     1      37.770 -24.593 -14.603  0.00  0.00    +0.135 C 
ATOM     15  C   UNL     1      37.188 -21.646 -16.531  0.00  0.00    +0.063 C 
ATOM     16  C   UNL     1      38.691 -25.464 -13.841  0.00  0.00    +0.074 C 
ENDBRANCH   4  12
TORSDOF 1
ENDMDL
MODEL 5
REMARK VINA RESULT:      -7.3      4.987      7.526
REMARK  Name = 447956
REMARK  1 active torsions:
REMARK  status: ('A' for Active; 'I' for Inactive)
REMARK    1  A    between atoms: C_4  and  C_12
REMARK                            x       y       z     vdW  Elec       q    Type
REMARK                         _______ _______ _______ _____ _____    ______ ____
ROOT
ATOM      1  N   UNL     1      32.241 -13.028 -22.989  0.00  0.00    -0.341 NA
ATOM      2  N   UNL     1      32.488 -10.640 -22.780  0.00  0.00    -0.170 NA
ATOM      3  N   UNL     1      30.960 -11.816 -21.442  0.00  0.00    -0.293 N 
ATOM      4  C   UNL     1      33.185 -13.004 -23.952  0.00  0.00    +0.140 C 
ATOM      5  C   UNL     1      33.818 -11.854 -24.377  0.00  0.00    +0.051 C 
ATOM      6  C   UNL     1      33.425 -10.689 -23.749  0.00  0.00    +0.114 C 
ATOM      7  C   UNL     1      31.945 -11.829 -22.454  0.00  0.00    +0.141 C 
ATOM      8  H   UNL     1      30.529 -12.656 -21.163  0.00  0.00    +0.155 HD
ATOM      9  H   UNL     1      30.704 -10.967 -21.016  0.00  0.00    +0.155 HD
ENDROOT
BRANCH   4  12
ATOM     10  S   UNL     1      34.204 -15.506 -23.537  0.00  0.00    -0.074 S 
ATOM     11  N   UNL     1      33.748 -16.074 -26.018  0.00  0.00    -0.407 NA
ATOM     12  C   UNL     1      33.500 -14.288 -24.521  0.00  0.00    +0.155 C 
ATOM     13  C   UNL     1      33.334 -14.773 -25.803  0.00  0.00    +0.104 C 
ATOM     14  C   UNL     1      34.225 -16.559 -24.893  0.00  0.00    +0.135 C 
ATOM     15  C   UNL     1      32.758 -14.035 -26.948  0.00  0.00    +0.063 C 
ATOM     16  C   UNL     1      34.759 -17.928 -24.731  0.00  0.00    +0.074 C 
ENDBRANCH   4  12
TORSDOF 1
ENDMDL
MODEL 6
REMARK VINA RESULT:      -7.2      1.570      5.271
REMARK  Name = 447956
REMARK  1 active torsions:
REMARK  status: ('A' for Active; 'I' for Inactive)
REMARK    1  A    between atoms: C_4  and  C_12
REMARK                            x       y       z     vdW  Elec       q    Type
REMARK                         _______ _______ _______ _____ _____    ______ ____
ROOT
ATOM      1  N   UNL     1      34.848 -17.164 -21.863  0.00  0.00    -0.341 NA
ATOM      2  N   UNL     1      34.774 -16.474 -24.170  0.00  0.00    -0.170 NA
ATOM      3  N   UNL     1      34.622 -14.900 -22.437  0.00  0.00    -0.293 N 
ATOM      4  C   UNL     1      34.973 -18.438 -22.286  0.00  0.00    +0.140 C 
ATOM      5  C   UNL     1      35.007 -18.805 -23.616  0.00  0.00    +0.051 C 
ATOM      6  C   UNL     1      34.902 -17.770 -24.523  0.00  0.00    +0.114 C 
ATOM      7  C   UNL     1      34.754 -16.246 -22.844  0.00  0.00    +0.141 C 
ATOM      8  H   UNL     1      34.601 -14.674 -21.478  0.00  0.00    +0.155 HD
ATOM      9  H   UNL     1      34.549 -14.187 -23.112  0.00  0.00    +0.155 HD
ENDROOT
BRANCH   4  12
ATOM     10  S   UNL     1      36.613 -19.816 -20.589  0.00  0.00    -0.074 S 
ATOM     11  N   UNL     1      34.544 -21.019 -19.610  0.00  0.00    -0.407 NA
ATOM     12  C   UNL     1      35.073 -19.416 -21.235  0.00  0.00    +0.155 C 
ATOM     13  C   UNL     1      34.100 -20.154 -20.592  0.00  0.00    +0.104 C 
ATOM     14  C   UNL     1      35.852 -20.926 -19.522  0.00  0.00    +0.135 C 
ATOM     15  C   UNL     1      32.646 -20.099 -20.856  0.00  0.00    +0.063 C 
ATOM     16  C   UNL     1      36.686 -21.698 -18.576  0.00  0.00    +0.074 C 
ENDBRANCH   4  12
TORSDOF 1
ENDMDL
MODEL 7
REMARK VINA RESULT:      -7.2      1.641      5.302
REMARK  Name = 447956
REMARK  1 active torsions:
REMARK  status: ('A' for Active; 'I' for Inactive)
REMARK    1  A    between atoms: C_4  and  C_12
REMARK                            x       y       z     vdW  Elec       q    Type
REMARK                         _______ _______ _______ _____ _____    ______ ____
ROOT
ATOM      1  N   UNL     1      34.728 -18.041 -23.240  0.00  0.00    -0.341 NA
ATOM      2  N   UNL     1      34.628 -15.654 -23.552  0.00  0.00    -0.170 NA
ATOM      3  N   UNL     1      34.770 -17.105 -25.391  0.00  0.00    -0.293 N 
ATOM      4  C   UNL     1      34.665 -17.833 -21.909  0.00  0.00    +0.140 C 
ATOM      5  C   UNL     1      34.583 -16.582 -21.332  0.00  0.00    +0.051 C 
ATOM      6  C   UNL     1      34.568 -15.518 -22.211  0.00  0.00    +0.114 C 
ATOM      7  C   UNL     1      34.706 -16.924 -23.992  0.00  0.00    +0.141 C 
ATOM      8  H   UNL     1      34.828 -18.012 -25.769  0.00  0.00    +0.155 HD
ATOM      9  H   UNL     1      34.758 -16.323 -25.988  0.00  0.00    +0.155 HD
ENDROOT
BRANCH   4  12
ATOM     10  S   UNL     1      33.213 -19.798 -20.686  0.00  0.00    -0.074 S 
ATOM     11  N   UNL     1      35.414 -20.861 -19.842  0.00  0.00    -0.407 NA
ATOM     12  C   UNL     1      34.688 -19.029 -21.109  0.00  0.00    +0.155 C 
ATOM     13  C   UNL     1      35.745 -19.736 -20.572  0.00  0.00    +0.104 C 
ATOM     14  C   UNL     1      34.106 -20.992 -19.834  0.00  0.00    +0.135 C 
ATOM     15  C   UNL     1      37.179 -19.402 -20.710  0.00  0.00    +0.063 C 
ATOM     16  C   UNL     1      33.377 -22.086 -19.155  0.00  0.00    +0.074 C 
ENDBRANCH   4  12
TORSDOF 1
ENDMDL
MODEL 8
REMARK VINA RESULT:      -7.1      2.664      6.321
REMARK  Name = 447956
REMARK  1 active torsions:
REMARK  status: ('A' for Active; 'I' for Inactive)
REMARK    1  A    between atoms: C_4  and  C_12
REMARK                            x       y       z     vdW  Elec       q    Type
REMARK                         _______ _______ _______ _____ _____    ______ ____
ROOT
ATOM      1  N   UNL     1      34.305 -13.980 -23.509  0.00  0.00    -0.341 NA
ATOM      2  N   UNL     1      32.583 -12.414 -22.883  0.00  0.00    -0.170 NA
ATOM      3  N   UNL     1      34.208 -11.844 -24.476  0.00  0.00    -0.293 N 
ATOM      4  C   UNL     1      33.767 -14.861 -22.641  0.00  0.00    +0.140 C 
ATOM      5  C   UNL     1      32.653 -14.597 -21.871  0.00  0.00    +0.051 C 
ATOM      6  C   UNL     1      32.097 -13.345 -22.035  0.00  0.00    +0.114 C 
ATOM      7  C   UNL     1      33.673 -12.792 -23.578  0.00  0.00    +0.141 C 
ATOM      8  H   UNL     1      35.005 -12.067 -25.011  0.00  0.00    +0.155 HD
ATOM      9  H   UNL     1      33.786 -10.960 -24.568  0.00  0.00    +0.155 HD
ENDROOT
BRANCH   4  12
ATOM     10  S   UNL     1      34.911 -16.761 -21.043  0.00  0.00    -0.074 S 
ATOM     11  N   UNL     1      35.472 -18.154 -23.148  0.00  0.00    -0.407 NA
ATOM     12  C   UNL     1      34.446 -16.128 -22.570  0.00  0.00    +0.155 C 
ATOM     13  C   UNL     1      34.827 -17.006 -23.566  0.00  0.00    +0.104 C 
ATOM     14  C   UNL     1      35.572 -18.132 -21.837  0.00  0.00    +0.135 C 
ATOM     15  C   UNL     1      34.607 -16.828 -25.017  0.00  0.00    +0.063 C 
ATOM     16  C   UNL     1      36.201 -19.197 -21.027  0.00  0.00    +0.074 C 
ENDBRANCH   4  12
TORSDOF 1
ENDMDL
MODEL 9
REMARK VINA RESULT:      -7.1      1.891      5.349
REMARK  Name = 447956
REMARK  1 active torsions:
REMARK  status: ('A' for Active; 'I' for Inactive)
REMARK    1  A    between atoms: C_4  and  C_12
REMARK                            x       y       z     vdW  Elec       q    Type
REMARK                         _______ _______ _______ _____ _____    ______ ____
ROOT
ATOM      1  N   UNL     1      34.747 -17.983 -20.812  0.00  0.00    -0.341 NA
ATOM      2  N   UNL     1      34.889 -17.034 -23.023  0.00  0.00    -0.170 NA
ATOM      3  N   UNL     1      34.792 -15.658 -21.125  0.00  0.00    -0.293 N 
ATOM      4  C   UNL     1      34.766 -19.208 -21.377  0.00  0.00    +0.140 C 
ATOM      5  C   UNL     1      34.845 -19.424 -22.737  0.00  0.00    +0.051 C 
ATOM      6  C   UNL     1      34.904 -18.289 -23.520  0.00  0.00    +0.114 C 
ATOM      7  C   UNL     1      34.809 -16.956 -21.681  0.00  0.00    +0.141 C 
ATOM      8  H   UNL     1      34.735 -15.541 -20.149  0.00  0.00    +0.155 HD
ATOM      9  H   UNL     1      34.836 -14.871 -21.714  0.00  0.00    +0.155 HD
ENDROOT
BRANCH   4  12
ATOM     10  S   UNL     1      33.172 -20.839 -19.870  0.00  0.00    -0.074 S 
ATOM     11  N   UNL     1      35.283 -22.057 -19.007  0.00  0.00    -0.407 NA
ATOM     12  C   UNL     1      34.699 -20.303 -20.445  0.00  0.00    +0.155 C 
ATOM     13  C   UNL     1      35.698 -21.068 -19.877  0.00  0.00    +0.104 C 
ATOM     14  C   UNL     1      33.971 -22.029 -18.925  0.00  0.00    +0.135 C 
ATOM     15  C   UNL     1      37.150 -20.925 -20.116  0.00  0.00    +0.063 C 
ATOM     16  C   UNL     1      33.163 -22.946 -18.092  0.00  0.00    +0.074 C 
ENDBRANCH   4  12
TORSDOF 1
ENDMDL
