MODEL 1
REMARK VINA RESULT:      -6.0      0.000      0.000
REMARK  Name = 448219
REMARK  10 active torsions:
REMARK  status: ('A' for Active; 'I' for Inactive)
REMARK    1  A    between atoms: C_1  and  O_2
REMARK    2  A    between atoms: C_1  and  O_4
REMARK    3  A    between atoms: C_1  and  C_6
REMARK    4  A    between atoms: C_1  and  C_13
REMARK    5  A    between atoms: C_6  and  N_7
REMARK    6  A    between atoms: N_7  and  C_10
REMARK    7  A    between atoms: C_13  and  N_14
REMARK    8  A    between atoms: C_13  and  C_18
REMARK    9  A    between atoms: C_18  and  C_19
REMARK   10  A    between atoms: C_19  and  C_20
REMARK                            x       y       z     vdW  Elec       q    Type
REMARK                         _______ _______ _______ _____ _____    ______ ____
ROOT
ATOM      1  C   UNL     1      34.705 -16.585 -24.222  0.00  0.00    +0.142 C 
ENDROOT
BRANCH   1   2
ATOM      2  O   UNL     1      35.992 -16.177 -23.741  0.00  0.00    -0.367 OA
ATOM      3  H   UNL     1      36.536 -16.786 -23.283  0.00  0.00    +0.213 HD
ENDBRANCH   1   2
BRANCH   1   4
ATOM      4  O   UNL     1      34.737 -16.621 -25.654  0.00  0.00    -0.367 OA
ATOM      5  H   UNL     1      35.540 -16.456 -26.109  0.00  0.00    +0.213 HD
ENDBRANCH   1   4
BRANCH   1   6
ATOM      6  C   UNL     1      33.647 -15.551 -23.778  0.00  0.00    -0.027 C 
BRANCH   6   7
ATOM      7  N   UNL     1      34.211 -14.437 -23.025  0.00  0.00    +0.388 N 
ATOM      8  H   UNL     1      35.229 -14.503 -23.050  0.00  0.00    -0.084 HD
ATOM      9  H   UNL     1      33.889 -13.569 -23.454  0.00  0.00    -0.084 HD
BRANCH   7  10
ATOM     10  C   UNL     1      33.769 -14.442 -21.615  0.00  0.00    -0.062 C 
ATOM     11  C   UNL     1      32.931 -15.572 -21.110  0.00  0.00    -0.023 C 
ATOM     12  C   UNL     1      34.357 -15.433 -20.662  0.00  0.00    -0.023 C 
ENDBRANCH   7  10
ENDBRANCH   6   7
ENDBRANCH   1   6
BRANCH   1  13
ATOM     13  C   UNL     1      34.463 -18.035 -23.709  0.00  0.00    -0.016 C 
BRANCH  13  14
ATOM     14  N   UNL     1      34.395 -18.998 -24.813  0.00  0.00    +0.385 N 
ATOM     15  H   UNL     1      35.125 -19.700 -24.697  0.00  0.00    -0.089 HD
ATOM     16  H   UNL     1      34.529 -18.510 -25.698  0.00  0.00    -0.089 HD
ATOM     17  H   UNL     1      33.482 -19.453 -24.810  0.00  0.00    -0.089 HD
ENDBRANCH  13  14
BRANCH  13  18
ATOM     18  C   UNL     1      35.557 -18.487 -22.710  0.00  0.00    -0.017 C 
BRANCH  18  19
ATOM     19  C   UNL     1      35.088 -19.456 -21.612  0.00  0.00    -0.002 C 
BRANCH  19  20
ATOM     20  C   UNL     1      33.651 -19.210 -21.152  0.00  0.00    -0.000 C 
ATOM     21  C   UNL     1      33.136 -20.361 -20.301  0.00  0.00    -0.000 C 
ENDBRANCH  19  20
ENDBRANCH  18  19
ENDBRANCH  13  18
ENDBRANCH   1  13
TORSDOF 10
ENDMDL
MODEL 2
REMARK VINA RESULT:      -5.7      2.687      5.487
REMARK  Name = 448219
REMARK  10 active torsions:
REMARK  status: ('A' for Active; 'I' for Inactive)
REMARK    1  A    between atoms: C_1  and  O_2
REMARK    2  A    between atoms: C_1  and  O_4
REMARK    3  A    between atoms: C_1  and  C_6
REMARK    4  A    between atoms: C_1  and  C_13
REMARK    5  A    between atoms: C_6  and  N_7
REMARK    6  A    between atoms: N_7  and  C_10
REMARK    7  A    between atoms: C_13  and  N_14
REMARK    8  A    between atoms: C_13  and  C_18
REMARK    9  A    between atoms: C_18  and  C_19
REMARK   10  A    between atoms: C_19  and  C_20
REMARK                            x       y       z     vdW  Elec       q    Type
REMARK                         _______ _______ _______ _____ _____    ______ ____
ROOT
ATOM      1  C   UNL     1      34.338 -15.180 -21.571  0.00  0.00    +0.142 C 
ENDROOT
BRANCH   1   2
ATOM      2  O   UNL     1      34.838 -14.273 -22.561  0.00  0.00    -0.367 OA
ATOM      3  H   UNL     1      35.066 -13.396 -22.321  0.00  0.00    +0.213 HD
ENDBRANCH   1   2
BRANCH   1   4
ATOM      4  O   UNL     1      34.947 -14.871 -20.311  0.00  0.00    -0.367 OA
ATOM      5  H   UNL     1      34.756 -14.058 -19.887  0.00  0.00    +0.213 HD
ENDBRANCH   1   4
BRANCH   1   6
ATOM      6  C   UNL     1      34.726 -16.623 -21.965  0.00  0.00    -0.027 C 
BRANCH   6   7
ATOM      7  N   UNL     1      35.284 -17.392 -20.857  0.00  0.00    +0.388 N 
ATOM      8  H   UNL     1      36.277 -17.172 -20.770  0.00  0.00    -0.084 HD
ATOM      9  H   UNL     1      34.776 -17.138 -20.009  0.00  0.00    -0.084 HD
BRANCH   7  10
ATOM     10  C   UNL     1      35.134 -18.847 -21.063  0.00  0.00    -0.062 C 
ATOM     11  C   UNL     1      33.770 -19.457 -21.041  0.00  0.00    -0.023 C 
ATOM     12  C   UNL     1      34.527 -19.353 -22.332  0.00  0.00    -0.023 C 
ENDBRANCH   7  10
ENDBRANCH   6   7
ENDBRANCH   1   6
BRANCH   1  13
ATOM     13  C   UNL     1      32.808 -14.923 -21.443  0.00  0.00    -0.016 C 
BRANCH  13  14
ATOM     14  N   UNL     1      32.136 -15.999 -20.709  0.00  0.00    +0.385 N 
ATOM     15  H   UNL     1      31.508 -15.596 -20.014  0.00  0.00    -0.089 HD
ATOM     16  H   UNL     1      32.832 -16.579 -20.242  0.00  0.00    -0.089 HD
ATOM     17  H   UNL     1      31.599 -16.571 -21.361  0.00  0.00    -0.089 HD
ENDBRANCH  13  14
BRANCH  13  18
ATOM     18  C   UNL     1      32.502 -13.571 -20.753  0.00  0.00    -0.017 C 
BRANCH  18  19
ATOM     19  C   UNL     1      31.883 -12.493 -21.657  0.00  0.00    -0.002 C 
BRANCH  19  20
ATOM     20  C   UNL     1      30.991 -11.504 -20.905  0.00  0.00    -0.000 C 
ATOM     21  C   UNL     1      31.562 -11.172 -19.534  0.00  0.00    -0.000 C 
ENDBRANCH  19  20
ENDBRANCH  18  19
ENDBRANCH  13  18
ENDBRANCH   1  13
TORSDOF 10
ENDMDL
MODEL 3
REMARK VINA RESULT:      -5.6      2.187      3.166
REMARK  Name = 448219
REMARK  10 active torsions:
REMARK  status: ('A' for Active; 'I' for Inactive)
REMARK    1  A    between atoms: C_1  and  O_2
REMARK    2  A    between atoms: C_1  and  O_4
REMARK    3  A    between atoms: C_1  and  C_6
REMARK    4  A    between atoms: C_1  and  C_13
REMARK    5  A    between atoms: C_6  and  N_7
REMARK    6  A    between atoms: N_7  and  C_10
REMARK    7  A    between atoms: C_13  and  N_14
REMARK    8  A    between atoms: C_13  and  C_18
REMARK    9  A    between atoms: C_18  and  C_19
REMARK   10  A    between atoms: C_19  and  C_20
REMARK                            x       y       z     vdW  Elec       q    Type
REMARK                         _______ _______ _______ _____ _____    ______ ____
ROOT
ATOM      1  C   UNL     1      34.114 -15.732 -21.504  0.00  0.00    +0.142 C 
ENDROOT
BRANCH   1   2
ATOM      2  O   UNL     1      32.759 -15.922 -21.081  0.00  0.00    -0.367 OA
ATOM      3  H   UNL     1      32.459 -15.538 -20.280  0.00  0.00    +0.213 HD
ENDBRANCH   1   2
BRANCH   1   4
ATOM      4  O   UNL     1      34.933 -15.511 -20.350  0.00  0.00    -0.367 OA
ATOM      5  H   UNL     1      35.138 -16.225 -19.778  0.00  0.00    +0.213 HD
ENDBRANCH   1   4
BRANCH   1   6
ATOM      6  C   UNL     1      34.192 -14.482 -22.410  0.00  0.00    -0.027 C 
BRANCH   6   7
ATOM      7  N   UNL     1      33.123 -14.423 -23.401  0.00  0.00    +0.388 N 
ATOM      8  H   UNL     1      32.534 -15.250 -23.301  0.00  0.00    -0.084 HD
ATOM      9  H   UNL     1      32.589 -13.569 -23.238  0.00  0.00    -0.084 HD
BRANCH   7  10
ATOM     10  C   UNL     1      33.650 -14.378 -24.780  0.00  0.00    -0.062 C 
ATOM     11  C   UNL     1      33.556 -15.592 -25.645  0.00  0.00    -0.023 C 
ATOM     12  C   UNL     1      32.699 -14.395 -25.933  0.00  0.00    -0.023 C 
ENDBRANCH   7  10
ENDBRANCH   6   7
ENDBRANCH   1   6
BRANCH   1  13
ATOM     13  C   UNL     1      34.575 -17.059 -22.176  0.00  0.00    -0.016 C 
BRANCH  13  14
ATOM     14  N   UNL     1      35.698 -16.842 -23.093  0.00  0.00    +0.385 N 
ATOM     15  H   UNL     1      36.537 -17.279 -22.713  0.00  0.00    -0.089 HD
ATOM     16  H   UNL     1      35.857 -15.841 -23.206  0.00  0.00    -0.089 HD
ATOM     17  H   UNL     1      35.481 -17.256 -24.000  0.00  0.00    -0.089 HD
ENDBRANCH  13  14
BRANCH  13  18
ATOM     18  C   UNL     1      34.975 -18.130 -21.131  0.00  0.00    -0.017 C 
BRANCH  18  19
ATOM     19  C   UNL     1      34.458 -19.551 -21.411  0.00  0.00    -0.002 C 
BRANCH  19  20
ATOM     20  C   UNL     1      33.112 -19.852 -20.750  0.00  0.00    -0.000 C 
ATOM     21  C   UNL     1      33.225 -21.000 -19.758  0.00  0.00    -0.000 C 
ENDBRANCH  19  20
ENDBRANCH  18  19
ENDBRANCH  13  18
ENDBRANCH   1  13
TORSDOF 10
ENDMDL
MODEL 4
REMARK VINA RESULT:      -5.6      1.726      2.556
REMARK  Name = 448219
REMARK  10 active torsions:
REMARK  status: ('A' for Active; 'I' for Inactive)
REMARK    1  A    between atoms: C_1  and  O_2
REMARK    2  A    between atoms: C_1  and  O_4
REMARK    3  A    between atoms: C_1  and  C_6
REMARK    4  A    between atoms: C_1  and  C_13
REMARK    5  A    between atoms: C_6  and  N_7
REMARK    6  A    between atoms: N_7  and  C_10
REMARK    7  A    between atoms: C_13  and  N_14
REMARK    8  A    between atoms: C_13  and  C_18
REMARK    9  A    between atoms: C_18  and  C_19
REMARK   10  A    between atoms: C_19  and  C_20
REMARK                            x       y       z     vdW  Elec       q    Type
REMARK                         _______ _______ _______ _____ _____    ______ ____
ROOT
ATOM      1  C   UNL     1      35.208 -17.548 -21.960  0.00  0.00    +0.142 C 
ENDROOT
BRANCH   1   2
ATOM      2  O   UNL     1      35.624 -17.665 -20.594  0.00  0.00    -0.367 OA
ATOM      3  H   UNL     1      35.636 -16.908 -20.041  0.00  0.00    +0.213 HD
ENDBRANCH   1   2
BRANCH   1   4
ATOM      4  O   UNL     1      36.369 -17.551 -22.799  0.00  0.00    -0.367 OA
ATOM      5  H   UNL     1      36.859 -18.341 -22.917  0.00  0.00    +0.213 HD
ENDBRANCH   1   4
BRANCH   1   6
ATOM      6  C   UNL     1      34.465 -16.207 -22.151  0.00  0.00    -0.027 C 
BRANCH   6   7
ATOM      7  N   UNL     1      34.806 -15.533 -23.399  0.00  0.00    +0.388 N 
ATOM      8  H   UNL     1      35.605 -14.920 -23.235  0.00  0.00    -0.084 HD
ATOM      9  H   UNL     1      35.027 -16.247 -24.093  0.00  0.00    -0.084 HD
BRANCH   7  10
ATOM     10  C   UNL     1      33.682 -14.725 -23.915  0.00  0.00    -0.062 C 
ATOM     11  C   UNL     1      32.819 -13.967 -22.960  0.00  0.00    -0.023 C 
ATOM     12  C   UNL     1      33.764 -13.233 -23.866  0.00  0.00    -0.023 C 
ENDBRANCH   7  10
ENDBRANCH   6   7
ENDBRANCH   1   6
BRANCH   1  13
ATOM     13  C   UNL     1      34.369 -18.817 -22.293  0.00  0.00    -0.016 C 
BRANCH  13  14
ATOM     14  N   UNL     1      34.777 -19.419 -23.566  0.00  0.00    +0.385 N 
ATOM     15  H   UNL     1      35.269 -20.294 -23.387  0.00  0.00    -0.089 HD
ATOM     16  H   UNL     1      35.394 -18.778 -24.064  0.00  0.00    -0.089 HD
ATOM     17  H   UNL     1      33.950 -19.605 -24.134  0.00  0.00    -0.089 HD
ENDBRANCH  13  14
BRANCH  13  18
ATOM     18  C   UNL     1      34.462 -19.885 -21.176  0.00  0.00    -0.017 C 
BRANCH  18  19
ATOM     19  C   UNL     1      33.127 -20.273 -20.520  0.00  0.00    -0.002 C 
BRANCH  19  20
ATOM     20  C   UNL     1      33.267 -21.336 -19.430  0.00  0.00    -0.000 C 
ATOM     21  C   UNL     1      34.696 -21.850 -19.337  0.00  0.00    -0.000 C 
ENDBRANCH  19  20
ENDBRANCH  18  19
ENDBRANCH  13  18
ENDBRANCH   1  13
TORSDOF 10
ENDMDL
MODEL 5
REMARK VINA RESULT:      -5.5     10.150     12.148
REMARK  Name = 448219
REMARK  10 active torsions:
REMARK  status: ('A' for Active; 'I' for Inactive)
REMARK    1  A    between atoms: C_1  and  O_2
REMARK    2  A    between atoms: C_1  and  O_4
REMARK    3  A    between atoms: C_1  and  C_6
REMARK    4  A    between atoms: C_1  and  C_13
REMARK    5  A    between atoms: C_6  and  N_7
REMARK    6  A    between atoms: N_7  and  C_10
REMARK    7  A    between atoms: C_13  and  N_14
REMARK    8  A    between atoms: C_13  and  C_18
REMARK    9  A    between atoms: C_18  and  C_19
REMARK   10  A    between atoms: C_19  and  C_20
REMARK                            x       y       z     vdW  Elec       q    Type
REMARK                         _______ _______ _______ _____ _____    ______ ____
ROOT
ATOM      1  C   UNL     1      36.116 -25.298 -14.858  0.00  0.00    +0.142 C 
ENDROOT
BRANCH   1   2
ATOM      2  O   UNL     1      35.954 -26.562 -15.513  0.00  0.00    -0.367 OA
ATOM      3  H   UNL     1      36.547 -27.264 -15.330  0.00  0.00    +0.213 HD
ENDBRANCH   1   2
BRANCH   1   4
ATOM      4  O   UNL     1      36.758 -24.389 -15.761  0.00  0.00    -0.367 OA
ATOM      5  H   UNL     1      37.451 -23.837 -15.454  0.00  0.00    +0.213 HD
ENDBRANCH   1   4
BRANCH   1   6
ATOM      6  C   UNL     1      37.019 -25.482 -13.618  0.00  0.00    -0.027 C 
BRANCH   6   7
ATOM      7  N   UNL     1      38.151 -26.369 -13.857  0.00  0.00    +0.388 N 
ATOM      8  H   UNL     1      38.148 -27.106 -13.151  0.00  0.00    -0.084 HD
ATOM      9  H   UNL     1      38.055 -26.759 -14.795  0.00  0.00    -0.084 HD
BRANCH   7  10
ATOM     10  C   UNL     1      39.440 -25.651 -13.790  0.00  0.00    -0.062 C 
ATOM     11  C   UNL     1      40.684 -26.322 -14.275  0.00  0.00    -0.023 C 
ATOM     12  C   UNL     1      40.091 -25.184 -15.052  0.00  0.00    -0.023 C 
ENDBRANCH   7  10
ENDBRANCH   6   7
ENDBRANCH   1   6
BRANCH   1  13
ATOM     13  C   UNL     1      34.689 -24.751 -14.558  0.00  0.00    -0.016 C 
BRANCH  13  14
ATOM     14  N   UNL     1      34.447 -24.630 -13.117  0.00  0.00    +0.385 N 
ATOM     15  H   UNL     1      33.511 -24.971 -12.899  0.00  0.00    -0.089 HD
ATOM     16  H   UNL     1      34.525 -23.651 -12.840  0.00  0.00    -0.089 HD
ATOM     17  H   UNL     1      35.137 -25.183 -12.609  0.00  0.00    -0.089 HD
ENDBRANCH  13  14
BRANCH  13  18
ATOM     18  C   UNL     1      34.440 -23.378 -15.230  0.00  0.00    -0.017 C 
BRANCH  18  19
ATOM     19  C   UNL     1      33.224 -23.313 -16.168  0.00  0.00    -0.002 C 
BRANCH  19  20
ATOM     20  C   UNL     1      31.886 -23.256 -15.431  0.00  0.00    -0.000 C 
ATOM     21  C   UNL     1      30.739 -22.954 -16.384  0.00  0.00    -0.000 C 
ENDBRANCH  19  20
ENDBRANCH  18  19
ENDBRANCH  13  18
ENDBRANCH   1  13
TORSDOF 10
ENDMDL
MODEL 6
REMARK VINA RESULT:      -5.5      5.463      7.798
REMARK  Name = 448219
REMARK  10 active torsions:
REMARK  status: ('A' for Active; 'I' for Inactive)
REMARK    1  A    between atoms: C_1  and  O_2
REMARK    2  A    between atoms: C_1  and  O_4
REMARK    3  A    between atoms: C_1  and  C_6
REMARK    4  A    between atoms: C_1  and  C_13
REMARK    5  A    between atoms: C_6  and  N_7
REMARK    6  A    between atoms: N_7  and  C_10
REMARK    7  A    between atoms: C_13  and  N_14
REMARK    8  A    between atoms: C_13  and  C_18
REMARK    9  A    between atoms: C_18  and  C_19
REMARK   10  A    between atoms: C_19  and  C_20
REMARK                            x       y       z     vdW  Elec       q    Type
REMARK                         _______ _______ _______ _____ _____    ______ ____
ROOT
ATOM      1  C   UNL     1      33.839 -22.588 -18.922  0.00  0.00    +0.142 C 
ENDROOT
BRANCH   1   2
ATOM      2  O   UNL     1      32.796 -21.892 -19.617  0.00  0.00    -0.367 OA
ATOM      3  H   UNL     1      32.199 -21.348 -19.143  0.00  0.00    +0.213 HD
ENDBRANCH   1   2
BRANCH   1   4
ATOM      4  O   UNL     1      34.229 -23.729 -19.696  0.00  0.00    -0.367 OA
ATOM      5  H   UNL     1      34.031 -23.763 -20.611  0.00  0.00    +0.213 HD
ENDBRANCH   1   4
BRANCH   1   6
ATOM      6  C   UNL     1      33.299 -23.078 -17.559  0.00  0.00    -0.027 C 
BRANCH   6   7
ATOM      7  N   UNL     1      31.915 -22.688 -17.315  0.00  0.00    +0.388 N 
ATOM      8  H   UNL     1      31.884 -21.687 -17.116  0.00  0.00    -0.084 HD
ATOM      9  H   UNL     1      31.371 -22.913 -18.148  0.00  0.00    -0.084 HD
BRANCH   7  10
ATOM     10  C   UNL     1      31.328 -23.419 -16.174  0.00  0.00    -0.062 C 
ATOM     11  C   UNL     1      31.386 -22.820 -14.806  0.00  0.00    -0.023 C 
ATOM     12  C   UNL     1      30.077 -22.907 -15.535  0.00  0.00    -0.023 C 
ENDBRANCH   7  10
ENDBRANCH   6   7
ENDBRANCH   1   6
BRANCH   1  13
ATOM     13  C   UNL     1      35.057 -21.623 -18.838  0.00  0.00    -0.016 C 
BRANCH  13  14
ATOM     14  N   UNL     1      36.084 -22.123 -17.918  0.00  0.00    +0.385 N 
ATOM     15  H   UNL     1      36.916 -22.383 -18.445  0.00  0.00    -0.089 HD
ATOM     16  H   UNL     1      35.727 -22.939 -17.421  0.00  0.00    -0.089 HD
ATOM     17  H   UNL     1      36.322 -21.393 -17.246  0.00  0.00    -0.089 HD
ENDBRANCH  13  14
BRANCH  13  18
ATOM     18  C   UNL     1      35.699 -21.376 -20.226  0.00  0.00    -0.017 C 
BRANCH  18  19
ATOM     19  C   UNL     1      35.693 -19.915 -20.705  0.00  0.00    -0.002 C 
BRANCH  19  20
ATOM     20  C   UNL     1      34.590 -19.610 -21.719  0.00  0.00    -0.000 C 
ATOM     21  C   UNL     1      35.128 -18.825 -22.906  0.00  0.00    -0.000 C 
ENDBRANCH  19  20
ENDBRANCH  18  19
ENDBRANCH  13  18
ENDBRANCH   1  13
TORSDOF 10
ENDMDL
MODEL 7
REMARK VINA RESULT:      -5.5      2.413      2.969
REMARK  Name = 448219
REMARK  10 active torsions:
REMARK  status: ('A' for Active; 'I' for Inactive)
REMARK    1  A    between atoms: C_1  and  O_2
REMARK    2  A    between atoms: C_1  and  O_4
REMARK    3  A    between atoms: C_1  and  C_6
REMARK    4  A    between atoms: C_1  and  C_13
REMARK    5  A    between atoms: C_6  and  N_7
REMARK    6  A    between atoms: N_7  and  C_10
REMARK    7  A    between atoms: C_13  and  N_14
REMARK    8  A    between atoms: C_13  and  C_18
REMARK    9  A    between atoms: C_18  and  C_19
REMARK   10  A    between atoms: C_19  and  C_20
REMARK                            x       y       z     vdW  Elec       q    Type
REMARK                         _______ _______ _______ _____ _____    ______ ____
ROOT
ATOM      1  C   UNL     1      34.061 -14.862 -21.764  0.00  0.00    +0.142 C 
ENDROOT
BRANCH   1   2
ATOM      2  O   UNL     1      34.836 -14.769 -20.563  0.00  0.00    -0.367 OA
ATOM      3  H   UNL     1      34.474 -15.056 -19.748  0.00  0.00    +0.213 HD
ENDBRANCH   1   2
BRANCH   1   4
ATOM      4  O   UNL     1      34.586 -13.939 -22.726  0.00  0.00    -0.367 OA
ATOM      5  H   UNL     1      35.022 -14.259 -23.491  0.00  0.00    +0.213 HD
ENDBRANCH   1   4
BRANCH   1   6
ATOM      6  C   UNL     1      32.598 -14.473 -21.454  0.00  0.00    -0.027 C 
BRANCH   6   7
ATOM      7  N   UNL     1      32.072 -13.452 -22.354  0.00  0.00    +0.388 N 
ATOM      8  H   UNL     1      32.648 -13.426 -23.196  0.00  0.00    -0.084 HD
ATOM      9  H   UNL     1      31.106 -13.696 -22.577  0.00  0.00    -0.084 HD
BRANCH   7  10
ATOM     10  C   UNL     1      32.074 -12.112 -21.733  0.00  0.00    -0.062 C 
ATOM     11  C   UNL     1      30.777 -11.468 -21.365  0.00  0.00    -0.023 C 
ATOM     12  C   UNL     1      31.700 -11.967 -20.293  0.00  0.00    -0.023 C 
ENDBRANCH   7  10
ENDBRANCH   6   7
ENDBRANCH   1   6
BRANCH   1  13
ATOM     13  C   UNL     1      34.253 -16.302 -22.323  0.00  0.00    -0.016 C 
BRANCH  13  14
ATOM     14  N   UNL     1      35.383 -16.377 -23.255  0.00  0.00    +0.385 N 
ATOM     15  H   UNL     1      35.142 -16.989 -24.034  0.00  0.00    -0.089 HD
ATOM     16  H   UNL     1      36.199 -16.750 -22.770  0.00  0.00    -0.089 HD
ATOM     17  H   UNL     1      35.594 -15.444 -23.608  0.00  0.00    -0.089 HD
ENDBRANCH  13  14
BRANCH  13  18
ATOM     18  C   UNL     1      34.459 -17.341 -21.193  0.00  0.00    -0.017 C 
BRANCH  18  19
ATOM     19  C   UNL     1      34.361 -18.814 -21.623  0.00  0.00    -0.002 C 
BRANCH  19  20
ATOM     20  C   UNL     1      33.260 -19.590 -20.899  0.00  0.00    -0.000 C 
ATOM     21  C   UNL     1      33.839 -20.717 -20.056  0.00  0.00    -0.000 C 
ENDBRANCH  19  20
ENDBRANCH  18  19
ENDBRANCH  13  18
ENDBRANCH   1  13
TORSDOF 10
ENDMDL
MODEL 8
REMARK VINA RESULT:      -5.5     10.734     12.351
REMARK  Name = 448219
REMARK  10 active torsions:
REMARK  status: ('A' for Active; 'I' for Inactive)
REMARK    1  A    between atoms: C_1  and  O_2
REMARK    2  A    between atoms: C_1  and  O_4
REMARK    3  A    between atoms: C_1  and  C_6
REMARK    4  A    between atoms: C_1  and  C_13
REMARK    5  A    between atoms: C_6  and  N_7
REMARK    6  A    between atoms: N_7  and  C_10
REMARK    7  A    between atoms: C_13  and  N_14
REMARK    8  A    between atoms: C_13  and  C_18
REMARK    9  A    between atoms: C_18  and  C_19
REMARK   10  A    between atoms: C_19  and  C_20
REMARK                            x       y       z     vdW  Elec       q    Type
REMARK                         _______ _______ _______ _____ _____    ______ ____
ROOT
ATOM      1  C   UNL     1      36.891 -26.277 -14.992  0.00  0.00    +0.142 C 
ENDROOT
BRANCH   1   2
ATOM      2  O   UNL     1      36.813 -27.096 -16.165  0.00  0.00    -0.367 OA
ATOM      3  H   UNL     1      37.525 -27.111 -16.774  0.00  0.00    +0.213 HD
ENDBRANCH   1   2
BRANCH   1   4
ATOM      4  O   UNL     1      36.623 -27.088 -13.842  0.00  0.00    -0.367 OA
ATOM      5  H   UNL     1      36.290 -27.958 -13.951  0.00  0.00    +0.213 HD
ENDBRANCH   1   4
BRANCH   1   6
ATOM      6  C   UNL     1      35.815 -25.170 -15.075  0.00  0.00    -0.027 C 
BRANCH   6   7
ATOM      7  N   UNL     1      34.909 -25.162 -13.932  0.00  0.00    +0.388 N 
ATOM      8  H   UNL     1      34.335 -26.005 -13.960  0.00  0.00    -0.084 HD
ATOM      9  H   UNL     1      35.472 -25.129 -13.082  0.00  0.00    -0.084 HD
BRANCH   7  10
ATOM     10  C   UNL     1      34.021 -23.981 -13.939  0.00  0.00    -0.062 C 
ATOM     11  C   UNL     1      33.426 -23.514 -15.227  0.00  0.00    -0.023 C 
ATOM     12  C   UNL     1      32.558 -24.160 -14.189  0.00  0.00    -0.023 C 
ENDBRANCH   7  10
ENDBRANCH   6   7
ENDBRANCH   1   6
BRANCH   1  13
ATOM     13  C   UNL     1      38.356 -25.762 -14.888  0.00  0.00    -0.016 C 
BRANCH  13  14
ATOM     14  N   UNL     1      38.495 -24.406 -15.427  0.00  0.00    +0.385 N 
ATOM     15  H   UNL     1      37.589 -24.075 -15.755  0.00  0.00    -0.089 HD
ATOM     16  H   UNL     1      39.156 -24.415 -16.204  0.00  0.00    -0.089 HD
ATOM     17  H   UNL     1      38.839 -23.783 -14.696  0.00  0.00    -0.089 HD
ENDBRANCH  13  14
BRANCH  13  18
ATOM     18  C   UNL     1      38.877 -25.782 -13.430  0.00  0.00    -0.017 C 
BRANCH  18  19
ATOM     19  C   UNL     1      38.774 -24.448 -12.673  0.00  0.00    -0.002 C 
BRANCH  19  20
ATOM     20  C   UNL     1      37.569 -24.369 -11.735  0.00  0.00    -0.000 C 
ATOM     21  C   UNL     1      36.969 -22.971 -11.720  0.00  0.00    -0.000 C 
ENDBRANCH  19  20
ENDBRANCH  18  19
ENDBRANCH  13  18
ENDBRANCH   1  13
TORSDOF 10
ENDMDL
MODEL 9
REMARK VINA RESULT:      -5.5      8.981     11.357
REMARK  Name = 448219
REMARK  10 active torsions:
REMARK  status: ('A' for Active; 'I' for Inactive)
REMARK    1  A    between atoms: C_1  and  O_2
REMARK    2  A    between atoms: C_1  and  O_4
REMARK    3  A    between atoms: C_1  and  C_6
REMARK    4  A    between atoms: C_1  and  C_13
REMARK    5  A    between atoms: C_6  and  N_7
REMARK    6  A    between atoms: N_7  and  C_10
REMARK    7  A    between atoms: C_13  and  N_14
REMARK    8  A    between atoms: C_13  and  C_18
REMARK    9  A    between atoms: C_18  and  C_19
REMARK   10  A    between atoms: C_19  and  C_20
REMARK                            x       y       z     vdW  Elec       q    Type
REMARK                         _______ _______ _______ _____ _____    ______ ____
ROOT
ATOM      1  C   UNL     1      35.734 -24.678 -15.159  0.00  0.00    +0.142 C 
ENDROOT
BRANCH   1   2
ATOM      2  O   UNL     1      35.630 -26.020 -15.651  0.00  0.00    -0.367 OA
ATOM      3  H   UNL     1      35.173 -26.668 -15.152  0.00  0.00    +0.213 HD
ENDBRANCH   1   2
BRANCH   1   4
ATOM      4  O   UNL     1      36.867 -24.048 -15.769  0.00  0.00    -0.367 OA
ATOM      5  H   UNL     1      37.690 -24.032 -15.321  0.00  0.00    +0.213 HD
ENDBRANCH   1   4
BRANCH   1   6
ATOM      6  C   UNL     1      35.953 -24.714 -13.630  0.00  0.00    -0.027 C 
BRANCH   6   7
ATOM      7  N   UNL     1      36.507 -25.978 -13.158  0.00  0.00    +0.388 N 
ATOM      8  H   UNL     1      35.863 -26.388 -12.481  0.00  0.00    -0.084 HD
ATOM      9  H   UNL     1      36.630 -26.590 -13.965  0.00  0.00    -0.084 HD
BRANCH   7  10
ATOM     10  C   UNL     1      37.824 -25.799 -12.514  0.00  0.00    -0.062 C 
ATOM     11  C   UNL     1      38.990 -25.351 -13.334  0.00  0.00    -0.023 C 
ATOM     12  C   UNL     1      38.374 -24.420 -12.332  0.00  0.00    -0.023 C 
ENDBRANCH   7  10
ENDBRANCH   6   7
ENDBRANCH   1   6
BRANCH   1  13
ATOM     13  C   UNL     1      34.455 -23.920 -15.622  0.00  0.00    -0.016 C 
BRANCH  13  14
ATOM     14  N   UNL     1      33.849 -23.157 -14.526  0.00  0.00    +0.385 N 
ATOM     15  H   UNL     1      33.680 -23.776 -13.734  0.00  0.00    -0.089 HD
ATOM     16  H   UNL     1      32.966 -22.756 -14.840  0.00  0.00    -0.089 HD
ATOM     17  H   UNL     1      34.482 -22.409 -14.244  0.00  0.00    -0.089 HD
ENDBRANCH  13  14
BRANCH  13  18
ATOM     18  C   UNL     1      34.743 -22.964 -16.806  0.00  0.00    -0.017 C 
BRANCH  18  19
ATOM     19  C   UNL     1      33.645 -22.893 -17.880  0.00  0.00    -0.002 C 
BRANCH  19  20
ATOM     20  C   UNL     1      34.135 -22.341 -19.219  0.00  0.00    -0.000 C 
ATOM     21  C   UNL     1      33.310 -21.141 -19.660  0.00  0.00    -0.000 C 
ENDBRANCH  19  20
ENDBRANCH  18  19
ENDBRANCH  13  18
ENDBRANCH   1  13
TORSDOF 10
ENDMDL
