MODEL 1
REMARK VINA RESULT:      -7.9      0.000      0.000
REMARK  Name = 5875
REMARK  5 active torsions:
REMARK  status: ('A' for Active; 'I' for Inactive)
REMARK    1  A    between atoms: C_7  and  O_23
REMARK    2  A    between atoms: C_7  and  C_28
REMARK    3  A    between atoms: C_11  and  O_25
REMARK    4  A    between atoms: C_28  and  C_29
REMARK    5  A    between atoms: C_29  and  O_30
REMARK                            x       y       z     vdW  Elec       q    Type
REMARK                         _______ _______ _______ _____ _____    ______ ____
ROOT
ATOM      1  F   UNL     1      32.843 -13.984 -27.499  0.00  0.00    -0.233 F 
ATOM      2  O   UNL     1      35.218  -9.870 -26.277  0.00  0.00    -0.287 OA
ATOM      3  C   UNL     1      34.491 -17.046 -22.328  0.00  0.00    +0.031 C 
ATOM      4  C   UNL     1      34.402 -16.764 -23.844  0.00  0.00    +0.003 C 
ATOM      5  C   UNL     1      33.571 -15.520 -24.200  0.00  0.00    +0.006 C 
ATOM      6  C   UNL     1      34.230 -14.264 -23.532  0.00  0.00    +0.034 C 
ATOM      7  C   UNL     1      35.334 -18.357 -22.366  0.00  0.00    +0.141 C 
ATOM      8  C   UNL     1      34.001 -18.112 -24.443  0.00  0.00    +0.003 C 
ATOM      9  C   UNL     1      35.158 -15.820 -21.669  0.00  0.00    +0.032 C 
ATOM     10  C   UNL     1      34.711 -19.162 -23.549  0.00  0.00    +0.032 C 
ATOM     11  C   UNL     1      34.474 -14.476 -22.002  0.00  0.00    +0.111 C 
ATOM     12  C   UNL     1      33.524 -12.913 -23.948  0.00  0.00    +0.039 C 
ATOM     13  C   UNL     1      33.485 -15.353 -25.726  0.00  0.00    +0.040 C 
ATOM     14  C   UNL     1      33.107 -17.319 -21.678  0.00  0.00    +0.003 C 
ATOM     15  C   UNL     1      32.798 -14.059 -26.137  0.00  0.00    +0.180 C 
ATOM     16  C   UNL     1      33.472 -12.879 -25.482  0.00  0.00    -0.006 C 
ATOM     17  C   UNL     1      35.703 -20.009 -24.341  0.00  0.00    +0.003 C 
ATOM     18  C   UNL     1      32.082 -12.773 -23.412  0.00  0.00    +0.009 C 
ATOM     19  C   UNL     1      34.301 -11.729 -23.395  0.00  0.00    -0.020 C 
ATOM     20  C   UNL     1      34.020 -11.901 -26.220  0.00  0.00    +0.036 C 
ATOM     21  C   UNL     1      34.850 -10.754 -24.126  0.00  0.00    +0.038 C 
ATOM     22  C   UNL     1      34.733 -10.767 -25.595  0.00  0.00    +0.195 C 
ENDROOT
BRANCH   7  23
ATOM     23  O   UNL     1      36.723 -18.110 -22.540  0.00  0.00    -0.380 OA
ATOM     24  H   UNL     1      37.234 -18.759 -22.030  0.00  0.00    +0.211 HD
ENDBRANCH   7  23
BRANCH  11  25
ATOM     25  O   UNL     1      33.256 -14.374 -21.276  0.00  0.00    -0.384 OA
ATOM     26  H   UNL     1      32.672 -15.108 -21.521  0.00  0.00    +0.210 HD
ENDBRANCH  11  25
BRANCH   7  28
ATOM     27  O   UNL     1      36.195 -18.991 -20.237  0.00  0.00    -0.291 OA
ATOM     28  C   UNL     1      35.315 -19.134 -21.085  0.00  0.00    +0.204 C 
BRANCH  28  29
ATOM     29  C   UNL     1      34.159 -20.094 -20.901  0.00  0.00    +0.204 C 
BRANCH  29  30
ATOM     30  O   UNL     1      34.398 -20.957 -19.809  0.00  0.00    -0.375 OA
ATOM     31  H   UNL     1      35.330 -20.896 -19.547  0.00  0.00    +0.211 HD
ENDBRANCH  29  30
ENDBRANCH  28  29
ENDBRANCH   7  28
TORSDOF 5
ENDMDL
MODEL 2
REMARK VINA RESULT:      -7.2      6.331     10.375
REMARK  Name = 5875
REMARK  5 active torsions:
REMARK  status: ('A' for Active; 'I' for Inactive)
REMARK    1  A    between atoms: C_7  and  O_23
REMARK    2  A    between atoms: C_7  and  C_28
REMARK    3  A    between atoms: C_11  and  O_25
REMARK    4  A    between atoms: C_28  and  C_29
REMARK    5  A    between atoms: C_29  and  O_30
REMARK                            x       y       z     vdW  Elec       q    Type
REMARK                         _______ _______ _______ _____ _____    ______ ____
ROOT
ATOM      1  F   UNL     1      37.704 -20.474 -19.925  0.00  0.00    -0.233 F 
ATOM      2  O   UNL     1      33.442 -18.391 -21.169  0.00  0.00    -0.287 OA
ATOM      3  C   UNL     1      35.285 -23.738 -15.200  0.00  0.00    +0.031 C 
ATOM      4  C   UNL     1      36.203 -22.704 -15.889  0.00  0.00    +0.003 C 
ATOM      5  C   UNL     1      36.042 -22.647 -17.417  0.00  0.00    +0.006 C 
ATOM      6  C   UNL     1      34.562 -22.251 -17.754  0.00  0.00    +0.034 C 
ATOM      7  C   UNL     1      35.754 -23.547 -13.726  0.00  0.00    +0.141 C 
ATOM      8  C   UNL     1      37.586 -22.999 -15.306  0.00  0.00    +0.003 C 
ATOM      9  C   UNL     1      33.827 -23.341 -15.513  0.00  0.00    +0.032 C 
ATOM     10  C   UNL     1      37.307 -23.436 -13.845  0.00  0.00    +0.032 C 
ATOM     11  C   UNL     1      33.531 -23.166 -17.019  0.00  0.00    +0.111 C 
ATOM     12  C   UNL     1      34.329 -22.035 -19.302  0.00  0.00    +0.039 C 
ATOM     13  C   UNL     1      37.035 -21.640 -18.022  0.00  0.00    +0.040 C 
ATOM     14  C   UNL     1      35.555 -25.196 -15.663  0.00  0.00    +0.003 C 
ATOM     15  C   UNL     1      36.823 -21.432 -19.514  0.00  0.00    +0.180 C 
ATOM     16  C   UNL     1      35.392 -21.041 -19.790  0.00  0.00    -0.006 C 
ATOM     17  C   UNL     1      37.961 -22.499 -12.833  0.00  0.00    +0.003 C 
ATOM     18  C   UNL     1      34.455 -23.328 -20.138  0.00  0.00    +0.009 C 
ATOM     19  C   UNL     1      32.924 -21.505 -19.546  0.00  0.00    -0.020 C 
ATOM     20  C   UNL     1      35.099 -19.874 -20.386  0.00  0.00    +0.036 C 
ATOM     21  C   UNL     1      32.628 -20.343 -20.136  0.00  0.00    +0.038 C 
ATOM     22  C   UNL     1      33.700 -19.452 -20.612  0.00  0.00    +0.195 C 
ENDROOT
BRANCH   7  23
ATOM     23  O   UNL     1      35.167 -22.410 -13.107  0.00  0.00    -0.380 OA
ATOM     24  H   UNL     1      34.486 -22.039 -13.689  0.00  0.00    +0.211 HD
ENDBRANCH   7  23
BRANCH  11  25
ATOM     25  O   UNL     1      33.458 -24.445 -17.636  0.00  0.00    -0.384 OA
ATOM     26  H   UNL     1      33.183 -24.343 -18.560  0.00  0.00    +0.210 HD
ENDBRANCH  11  25
BRANCH   7  28
ATOM     27  O   UNL     1      34.151 -24.885 -12.579  0.00  0.00    -0.291 OA
ATOM     28  C   UNL     1      35.339 -24.652 -12.803  0.00  0.00    +0.204 C 
BRANCH  28  29
ATOM     29  C   UNL     1      36.456 -25.454 -12.172  0.00  0.00    +0.204 C 
BRANCH  29  30
ATOM     30  O   UNL     1      36.660 -26.663 -12.873  0.00  0.00    -0.375 OA
ATOM     31  H   UNL     1      36.230 -27.389 -12.396  0.00  0.00    +0.211 HD
ENDBRANCH  29  30
ENDBRANCH  28  29
ENDBRANCH   7  28
TORSDOF 5
ENDMDL
MODEL 3
REMARK VINA RESULT:      -6.9      3.302      8.569
REMARK  Name = 5875
REMARK  5 active torsions:
REMARK  status: ('A' for Active; 'I' for Inactive)
REMARK    1  A    between atoms: C_7  and  O_23
REMARK    2  A    between atoms: C_7  and  C_28
REMARK    3  A    between atoms: C_11  and  O_25
REMARK    4  A    between atoms: C_28  and  C_29
REMARK    5  A    between atoms: C_29  and  O_30
REMARK                            x       y       z     vdW  Elec       q    Type
REMARK                         _______ _______ _______ _____ _____    ______ ____
ROOT
ATOM      1  F   UNL     1      31.665 -14.375 -20.117  0.00  0.00    -0.233 F 
ATOM      2  O   UNL     1      35.452 -17.057 -21.703  0.00  0.00    -0.287 OA
ATOM      3  C   UNL     1      33.164  -9.368 -23.512  0.00  0.00    +0.031 C 
ATOM      4  C   UNL     1      32.886 -10.183 -22.229  0.00  0.00    +0.003 C 
ATOM      5  C   UNL     1      32.460 -11.637 -22.494  0.00  0.00    +0.006 C 
ATOM      6  C   UNL     1      33.613 -12.368 -23.267  0.00  0.00    +0.034 C 
ATOM      7  C   UNL     1      33.503  -7.991 -22.865  0.00  0.00    +0.141 C 
ATOM      8  C   UNL     1      31.955  -9.281 -21.419  0.00  0.00    +0.003 C 
ATOM      9  C   UNL     1      34.312 -10.073 -24.266  0.00  0.00    +0.032 C 
ATOM     10  C   UNL     1      32.435  -7.841 -21.737  0.00  0.00    +0.032 C 
ATOM     11  C   UNL     1      34.060 -11.573 -24.537  0.00  0.00    +0.111 C 
ATOM     12  C   UNL     1      33.326 -13.909 -23.470  0.00  0.00    +0.039 C 
ATOM     13  C   UNL     1      32.145 -12.351 -21.169  0.00  0.00    +0.040 C 
ATOM     14  C   UNL     1      31.920  -9.236 -24.431  0.00  0.00    +0.003 C 
ATOM     15  C   UNL     1      31.859 -13.834 -21.356  0.00  0.00    +0.180 C 
ATOM     16  C   UNL     1      32.997 -14.497 -22.091  0.00  0.00    -0.006 C 
ATOM     17  C   UNL     1      32.921  -7.112 -20.488  0.00  0.00    +0.003 C 
ATOM     18  C   UNL     1      32.142 -14.203 -24.418  0.00  0.00    +0.009 C 
ATOM     19  C   UNL     1      34.542 -14.586 -24.084  0.00  0.00    -0.020 C 
ATOM     20  C   UNL     1      33.685 -15.505 -21.532  0.00  0.00    +0.036 C 
ATOM     21  C   UNL     1      35.232 -15.587 -23.529  0.00  0.00    +0.038 C 
ATOM     22  C   UNL     1      34.838 -16.127 -22.216  0.00  0.00    +0.195 C 
ENDROOT
BRANCH   7  23
ATOM     23  O   UNL     1      34.836  -7.930 -22.373  0.00  0.00    -0.380 OA
ATOM     24  H   UNL     1      35.241  -8.810 -22.423  0.00  0.00    +0.211 HD
ENDBRANCH   7  23
BRANCH  11  25
ATOM     25  O   UNL     1      33.107 -11.710 -25.583  0.00  0.00    -0.384 OA
ATOM     26  H   UNL     1      32.335 -11.156 -25.390  0.00  0.00    +0.210 HD
ENDBRANCH  11  25
BRANCH   7  28
ATOM     27  O   UNL     1      34.398  -6.640 -24.612  0.00  0.00    -0.291 OA
ATOM     28  C   UNL     1      33.473  -6.841 -23.824  0.00  0.00    +0.204 C 
BRANCH  28  29
ATOM     29  C   UNL     1      32.251  -5.951 -23.767  0.00  0.00    +0.204 C 
BRANCH  29  30
ATOM     30  O   UNL     1      31.888  -5.517 -25.060  0.00  0.00    -0.375 OA
ATOM     31  H   UNL     1      32.205  -4.610 -25.197  0.00  0.00    +0.211 HD
ENDBRANCH  29  30
ENDBRANCH  28  29
ENDBRANCH   7  28
TORSDOF 5
ENDMDL
MODEL 4
REMARK VINA RESULT:      -6.4      7.691     12.557
REMARK  Name = 5875
REMARK  5 active torsions:
REMARK  status: ('A' for Active; 'I' for Inactive)
REMARK    1  A    between atoms: C_7  and  O_23
REMARK    2  A    between atoms: C_7  and  C_28
REMARK    3  A    between atoms: C_11  and  O_25
REMARK    4  A    between atoms: C_28  and  C_29
REMARK    5  A    between atoms: C_29  and  O_30
REMARK                            x       y       z     vdW  Elec       q    Type
REMARK                         _______ _______ _______ _____ _____    ______ ____
ROOT
ATOM      1  F   UNL     1      35.418  -8.534 -23.586  0.00  0.00    -0.233 F 
ATOM      2  O   UNL     1      30.971 -10.410 -22.712  0.00  0.00    -0.287 OA
ATOM      3  C   UNL     1      33.293  -3.915 -27.189  0.00  0.00    +0.031 C 
ATOM      4  C   UNL     1      34.101  -5.183 -26.835  0.00  0.00    +0.003 C 
ATOM      5  C   UNL     1      33.965  -5.620 -25.367  0.00  0.00    +0.006 C 
ATOM      6  C   UNL     1      32.456  -5.932 -25.070  0.00  0.00    +0.034 C 
ATOM      7  C   UNL     1      33.708  -3.763 -28.684  0.00  0.00    +0.141 C 
ATOM      8  C   UNL     1      35.496  -4.894 -27.389  0.00  0.00    +0.003 C 
ATOM      9  C   UNL     1      31.806  -4.225 -26.918  0.00  0.00    +0.032 C 
ATOM     10  C   UNL     1      35.240  -4.064 -28.674  0.00  0.00    +0.032 C 
ATOM     11  C   UNL     1      31.522  -4.754 -25.494  0.00  0.00    +0.111 C 
ATOM     12  C   UNL     1      32.231  -6.519 -23.621  0.00  0.00    +0.039 C 
ATOM     13  C   UNL     1      34.848  -6.848 -25.090  0.00  0.00    +0.040 C 
ATOM     14  C   UNL     1      33.737  -2.665 -26.381  0.00  0.00    +0.003 C 
ATOM     15  C   UNL     1      34.644  -7.415 -23.693  0.00  0.00    +0.180 C 
ATOM     16  C   UNL     1      33.184  -7.712 -23.457  0.00  0.00    -0.006 C 
ATOM     17  C   UNL     1      35.763  -4.768 -29.923  0.00  0.00    +0.003 C 
ATOM     18  C   UNL     1      32.521  -5.509 -22.488  0.00  0.00    +0.009 C 
ATOM     19  C   UNL     1      30.780  -6.943 -23.452  0.00  0.00    -0.020 C 
ATOM     20  C   UNL     1      32.771  -8.956 -23.168  0.00  0.00    +0.036 C 
ATOM     21  C   UNL     1      30.365  -8.181 -23.167  0.00  0.00    +0.038 C 
ATOM     22  C   UNL     1      31.338  -9.273 -22.990  0.00  0.00    +0.195 C 
ENDROOT
BRANCH   7  23
ATOM     23  O   UNL     1      32.983  -4.631 -29.545  0.00  0.00    -0.380 OA
ATOM     24  H   UNL     1      33.389  -4.627 -30.426  0.00  0.00    +0.211 HD
ENDBRANCH   7  23
BRANCH  11  25
ATOM     25  O   UNL     1      31.608  -3.680 -24.567  0.00  0.00    -0.384 OA
ATOM     26  H   UNL     1      31.889  -4.020 -23.704  0.00  0.00    +0.210 HD
ENDBRANCH  11  25
BRANCH   7  28
ATOM     27  O   UNL     1      34.254  -1.786 -29.897  0.00  0.00    -0.291 OA
ATOM     28  C   UNL     1      33.403  -2.418 -29.270  0.00  0.00    +0.204 C 
BRANCH  28  29
ATOM     29  C   UNL     1      32.002  -1.891 -29.047  0.00  0.00    +0.204 C 
BRANCH  29  30
ATOM     30  O   UNL     1      31.098  -2.474 -29.960  0.00  0.00    -0.375 OA
ATOM     31  H   UNL     1      30.307  -2.772 -29.485  0.00  0.00    +0.211 HD
ENDBRANCH  29  30
ENDBRANCH  28  29
ENDBRANCH   7  28
TORSDOF 5
ENDMDL
MODEL 5
REMARK VINA RESULT:      -5.8      6.296     11.712
REMARK  Name = 5875
REMARK  5 active torsions:
REMARK  status: ('A' for Active; 'I' for Inactive)
REMARK    1  A    between atoms: C_7  and  O_23
REMARK    2  A    between atoms: C_7  and  C_28
REMARK    3  A    between atoms: C_11  and  O_25
REMARK    4  A    between atoms: C_28  and  C_29
REMARK    5  A    between atoms: C_29  and  O_30
REMARK                            x       y       z     vdW  Elec       q    Type
REMARK                         _______ _______ _______ _____ _____    ______ ____
ROOT
ATOM      1  F   UNL     1      35.242  -9.616 -24.535  0.00  0.00    -0.233 F 
ATOM      2  O   UNL     1      31.976 -12.802 -22.736  0.00  0.00    -0.287 OA
ATOM      3  C   UNL     1      31.515  -4.669 -23.856  0.00  0.00    +0.031 C 
ATOM      4  C   UNL     1      32.382  -5.701 -24.611  0.00  0.00    +0.003 C 
ATOM      5  C   UNL     1      33.063  -6.732 -23.695  0.00  0.00    +0.006 C 
ATOM      6  C   UNL     1      31.955  -7.531 -22.924  0.00  0.00    +0.034 C 
ATOM      7  C   UNL     1      31.053  -3.799 -25.065  0.00  0.00    +0.141 C 
ATOM      8  C   UNL     1      33.254  -4.843 -25.528  0.00  0.00    +0.003 C 
ATOM      9  C   UNL     1      30.411  -5.450 -23.112  0.00  0.00    +0.032 C 
ATOM     10  C   UNL     1      32.344  -3.653 -25.929  0.00  0.00    +0.032 C 
ATOM     11  C   UNL     1      30.943  -6.582 -22.205  0.00  0.00    +0.111 C 
ATOM     12  C   UNL     1      32.551  -8.709 -22.055  0.00  0.00    +0.039 C 
ATOM     13  C   UNL     1      33.951  -7.676 -24.522  0.00  0.00    +0.040 C 
ATOM     14  C   UNL     1      32.329  -3.805 -22.856  0.00  0.00    +0.003 C 
ATOM     15  C   UNL     1      34.536  -8.808 -23.691  0.00  0.00    +0.180 C 
ATOM     16  C   UNL     1      33.437  -9.556 -22.979  0.00  0.00    -0.006 C 
ATOM     17  C   UNL     1      32.104  -3.599 -27.435  0.00  0.00    +0.003 C 
ATOM     18  C   UNL     1      33.411  -8.230 -20.864  0.00  0.00    +0.009 C 
ATOM     19  C   UNL     1      31.422  -9.536 -21.459  0.00  0.00    -0.020 C 
ATOM     20  C   UNL     1      33.244 -10.867 -23.193  0.00  0.00    +0.036 C 
ATOM     21  C   UNL     1      31.225 -10.841 -21.672  0.00  0.00    +0.038 C 
ATOM     22  C   UNL     1      32.136 -11.601 -22.546  0.00  0.00    +0.195 C 
ENDROOT
BRANCH   7  23
ATOM     23  O   UNL     1      29.974  -4.385 -25.782  0.00  0.00    -0.380 OA
ATOM     24  H   UNL     1      29.411  -4.885 -25.169  0.00  0.00    +0.211 HD
ENDBRANCH   7  23
BRANCH  11  25
ATOM     25  O   UNL     1      31.521  -6.017 -21.036  0.00  0.00    -0.384 OA
ATOM     26  H   UNL     1      30.980  -5.270 -20.737  0.00  0.00    +0.210 HD
ENDBRANCH  11  25
BRANCH   7  28
ATOM     27  O   UNL     1      30.716  -1.968 -23.578  0.00  0.00    -0.291 OA
ATOM     28  C   UNL     1      30.482  -2.468 -24.678  0.00  0.00    +0.204 C 
BRANCH  28  29
ATOM     29  C   UNL     1      29.612  -1.786 -25.711  0.00  0.00    +0.204 C 
BRANCH  29  30
ATOM     30  O   UNL     1      28.253  -1.833 -25.329  0.00  0.00    -0.375 OA
ATOM     31  H   UNL     1      28.042  -2.720 -24.997  0.00  0.00    +0.211 HD
ENDBRANCH  29  30
ENDBRANCH  28  29
ENDBRANCH   7  28
TORSDOF 5
ENDMDL
MODEL 6
REMARK VINA RESULT:      -5.5     11.248     13.621
REMARK  Name = 5875
REMARK  5 active torsions:
REMARK  status: ('A' for Active; 'I' for Inactive)
REMARK    1  A    between atoms: C_7  and  O_23
REMARK    2  A    between atoms: C_7  and  C_28
REMARK    3  A    between atoms: C_11  and  O_25
REMARK    4  A    between atoms: C_28  and  C_29
REMARK    5  A    between atoms: C_29  and  O_30
REMARK                            x       y       z     vdW  Elec       q    Type
REMARK                         _______ _______ _______ _____ _____    ______ ____
ROOT
ATOM      1  F   UNL     1      30.985 -22.785 -11.786  0.00  0.00    -0.233 F 
ATOM      2  O   UNL     1      28.229 -25.873 -14.418  0.00  0.00    -0.287 OA
ATOM      3  C   UNL     1      36.253 -24.125 -14.835  0.00  0.00    +0.031 C 
ATOM      4  C   UNL     1      35.302 -24.016 -13.622  0.00  0.00    +0.003 C 
ATOM      5  C   UNL     1      33.936 -23.392 -13.954  0.00  0.00    +0.006 C 
ATOM      6  C   UNL     1      33.220 -24.283 -15.027  0.00  0.00    +0.034 C 
ATOM      7  C   UNL     1      37.499 -24.732 -14.122  0.00  0.00    +0.141 C 
ATOM      8  C   UNL     1      36.164 -23.367 -12.539  0.00  0.00    +0.003 C 
ATOM      9  C   UNL     1      35.560 -25.018 -15.885  0.00  0.00    +0.032 C 
ATOM     10  C   UNL     1      37.588 -23.929 -12.786  0.00  0.00    +0.032 C 
ATOM     11  C   UNL     1      34.136 -24.556 -16.264  0.00  0.00    +0.111 C 
ATOM     12  C   UNL     1      31.749 -23.797 -15.337  0.00  0.00    +0.039 C 
ATOM     13  C   UNL     1      33.082 -23.266 -12.681  0.00  0.00    +0.040 C 
ATOM     14  C   UNL     1      36.609 -22.746 -15.453  0.00  0.00    +0.003 C 
ATOM     15  C   UNL     1      31.666 -22.790 -12.969  0.00  0.00    +0.180 C 
ATOM     16  C   UNL     1      31.013 -23.682 -13.995  0.00  0.00    -0.006 C 
ATOM     17  C   UNL     1      38.102 -24.727 -11.592  0.00  0.00    +0.003 C 
ATOM     18  C   UNL     1      31.683 -22.424 -16.045  0.00  0.00    +0.009 C 
ATOM     19  C   UNL     1      31.060 -24.787 -16.264  0.00  0.00    -0.020 C 
ATOM     20  C   UNL     1      29.886 -24.353 -13.708  0.00  0.00    +0.036 C 
ATOM     21  C   UNL     1      29.940 -25.459 -15.981  0.00  0.00    +0.038 C 
ATOM     22  C   UNL     1      29.265 -25.275 -14.683  0.00  0.00    +0.195 C 
ENDROOT
BRANCH   7  23
ATOM     23  O   UNL     1      37.383 -26.134 -13.915  0.00  0.00    -0.380 OA
ATOM     24  H   UNL     1      37.058 -26.556 -14.725  0.00  0.00    +0.211 HD
ENDBRANCH   7  23
BRANCH  11  25
ATOM     25  O   UNL     1      34.219 -23.407 -17.097  0.00  0.00    -0.384 OA
ATOM     26  H   UNL     1      33.890 -23.626 -17.983  0.00  0.00    +0.210 HD
ENDBRANCH  11  25
BRANCH   7  28
ATOM     27  O   UNL     1      39.022 -23.645 -15.597  0.00  0.00    -0.291 OA
ATOM     28  C   UNL     1      38.765 -24.640 -14.918  0.00  0.00    +0.204 C 
BRANCH  28  29
ATOM     29  C   UNL     1      39.697 -25.829 -14.838  0.00  0.00    +0.204 C 
BRANCH  29  30
ATOM     30  O   UNL     1      40.458 -25.948 -16.021  0.00  0.00    -0.375 OA
ATOM     31  H   UNL     1      39.878 -26.215 -16.751  0.00  0.00    +0.211 HD
ENDBRANCH  29  30
ENDBRANCH  28  29
ENDBRANCH   7  28
TORSDOF 5
ENDMDL
MODEL 7
REMARK VINA RESULT:      -5.4      4.690      9.125
REMARK  Name = 5875
REMARK  5 active torsions:
REMARK  status: ('A' for Active; 'I' for Inactive)
REMARK    1  A    between atoms: C_7  and  O_23
REMARK    2  A    between atoms: C_7  and  C_28
REMARK    3  A    between atoms: C_11  and  O_25
REMARK    4  A    between atoms: C_28  and  C_29
REMARK    5  A    between atoms: C_29  and  O_30
REMARK                            x       y       z     vdW  Elec       q    Type
REMARK                         _______ _______ _______ _____ _____    ______ ____
ROOT
ATOM      1  F   UNL     1      35.843 -10.919 -26.868  0.00  0.00    -0.233 F 
ATOM      2  O   UNL     1      32.878 -14.798 -27.334  0.00  0.00    -0.287 OA
ATOM      3  C   UNL     1      32.278  -8.097 -22.606  0.00  0.00    +0.031 C 
ATOM      4  C   UNL     1      33.018  -8.267 -23.952  0.00  0.00    +0.003 C 
ATOM      5  C   UNL     1      33.826  -9.571 -24.059  0.00  0.00    +0.006 C 
ATOM      6  C   UNL     1      32.847 -10.787 -23.910  0.00  0.00    +0.034 C 
ATOM      7  C   UNL     1      31.641  -6.695 -22.846  0.00  0.00    +0.141 C 
ATOM      8  C   UNL     1      33.742  -6.934 -24.141  0.00  0.00    +0.003 C 
ATOM      9  C   UNL     1      31.299  -9.281 -22.465  0.00  0.00    +0.032 C 
ATOM     10  C   UNL     1      32.786  -5.880 -23.526  0.00  0.00    +0.032 C 
ATOM     11  C   UNL     1      31.959 -10.668 -22.629  0.00  0.00    +0.111 C 
ATOM     12  C   UNL     1      33.564 -12.176 -24.139  0.00  0.00    +0.039 C 
ATOM     13  C   UNL     1      34.575  -9.626 -25.401  0.00  0.00    +0.040 C 
ATOM     14  C   UNL     1      33.239  -8.046 -21.387  0.00  0.00    +0.003 C 
ATOM     15  C   UNL     1      35.276 -10.957 -25.626  0.00  0.00    +0.180 C 
ATOM     16  C   UNL     1      34.296 -12.095 -25.486  0.00  0.00    -0.006 C 
ATOM     17  C   UNL     1      32.320  -4.859 -24.559  0.00  0.00    +0.003 C 
ATOM     18  C   UNL     1      34.597 -12.531 -23.047  0.00  0.00    +0.009 C 
ATOM     19  C   UNL     1      32.536 -13.297 -24.135  0.00  0.00    -0.020 C 
ATOM     20  C   UNL     1      34.068 -12.939 -26.505  0.00  0.00    +0.036 C 
ATOM     21  C   UNL     1      32.304 -14.137 -25.148  0.00  0.00    +0.038 C 
ATOM     22  C   UNL     1      33.069 -14.023 -26.403  0.00  0.00    +0.195 C 
ENDROOT
BRANCH   7  23
ATOM     23  O   UNL     1      30.463  -6.757 -23.640  0.00  0.00    -0.380 OA
ATOM     24  H   UNL     1      29.740  -6.299 -23.184  0.00  0.00    +0.211 HD
ENDBRANCH   7  23
BRANCH  11  25
ATOM     25  O   UNL     1      32.710 -10.973 -21.461  0.00  0.00    -0.384 OA
ATOM     26  H   UNL     1      32.118 -10.997 -20.694  0.00  0.00    +0.210 HD
ENDBRANCH  11  25
BRANCH   7  28
ATOM     27  O   UNL     1      31.680  -6.221 -20.511  0.00  0.00    -0.291 OA
ATOM     28  C   UNL     1      31.140  -6.029 -21.601  0.00  0.00    +0.204 C 
BRANCH  28  29
ATOM     29  C   UNL     1      29.944  -5.116 -21.762  0.00  0.00    +0.204 C 
BRANCH  29  30
ATOM     30  O   UNL     1      30.353  -3.821 -22.148  0.00  0.00    -0.375 OA
ATOM     31  H   UNL     1      29.597  -3.342 -22.522  0.00  0.00    +0.211 HD
ENDBRANCH  29  30
ENDBRANCH  28  29
ENDBRANCH   7  28
TORSDOF 5
ENDMDL
MODEL 8
REMARK VINA RESULT:      -5.1     10.660     12.524
REMARK  Name = 5875
REMARK  5 active torsions:
REMARK  status: ('A' for Active; 'I' for Inactive)
REMARK    1  A    between atoms: C_7  and  O_23
REMARK    2  A    between atoms: C_7  and  C_28
REMARK    3  A    between atoms: C_11  and  O_25
REMARK    4  A    between atoms: C_28  and  C_29
REMARK    5  A    between atoms: C_29  and  O_30
REMARK                            x       y       z     vdW  Elec       q    Type
REMARK                         _______ _______ _______ _____ _____    ______ ____
ROOT
ATOM      1  F   UNL     1      31.237 -22.002 -18.421  0.00  0.00    -0.233 F 
ATOM      2  O   UNL     1      27.790 -21.483 -14.972  0.00  0.00    -0.287 OA
ATOM      3  C   UNL     1      35.549 -24.161 -14.473  0.00  0.00    +0.031 C 
ATOM      4  C   UNL     1      34.924 -23.195 -15.505  0.00  0.00    +0.003 C 
ATOM      5  C   UNL     1      33.548 -23.645 -16.027  0.00  0.00    +0.006 C 
ATOM      6  C   UNL     1      32.555 -23.738 -14.816  0.00  0.00    +0.034 C 
ATOM      7  C   UNL     1      36.901 -23.425 -14.229  0.00  0.00    +0.141 C 
ATOM      8  C   UNL     1      36.050 -22.958 -16.511  0.00  0.00    +0.003 C 
ATOM      9  C   UNL     1      34.583 -24.239 -13.272  0.00  0.00    +0.032 C 
ATOM     10  C   UNL     1      37.345 -22.985 -15.659  0.00  0.00    +0.032 C 
ATOM     11  C   UNL     1      33.132 -24.607 -13.652  0.00  0.00    +0.111 C 
ATOM     12  C   UNL     1      31.076 -24.064 -15.268  0.00  0.00    +0.039 C 
ATOM     13  C   UNL     1      33.033 -22.661 -17.090  0.00  0.00    +0.040 C 
ATOM     14  C   UNL     1      35.808 -25.580 -15.047  0.00  0.00    +0.003 C 
ATOM     15  C   UNL     1      31.613 -22.973 -17.538  0.00  0.00    +0.180 C 
ATOM     16  C   UNL     1      30.692 -23.040 -16.345  0.00  0.00    -0.006 C 
ATOM     17  C   UNL     1      38.095 -21.657 -15.717  0.00  0.00    +0.003 C 
ATOM     18  C   UNL     1      30.905 -25.480 -15.863  0.00  0.00    +0.009 C 
ATOM     19  C   UNL     1      30.140 -23.987 -14.072  0.00  0.00    -0.020 C 
ATOM     20  C   UNL     1      29.637 -22.215 -16.241  0.00  0.00    +0.036 C 
ATOM     21  C   UNL     1      29.091 -23.166 -13.963  0.00  0.00    +0.038 C 
ATOM     22  C   UNL     1      28.759 -22.230 -15.052  0.00  0.00    +0.195 C 
ENDROOT
BRANCH   7  23
ATOM     23  O   UNL     1      36.774 -22.329 -13.331  0.00  0.00    -0.380 OA
ATOM     24  H   UNL     1      37.321 -21.591 -13.642  0.00  0.00    +0.211 HD
ENDBRANCH   7  23
BRANCH  11  25
ATOM     25  O   UNL     1      33.064 -25.990 -13.971  0.00  0.00    -0.384 OA
ATOM     26  H   UNL     1      33.681 -26.482 -13.407  0.00  0.00    +0.210 HD
ENDBRANCH  11  25
BRANCH   7  28
ATOM     27  O   UNL     1      38.730 -24.951 -14.198  0.00  0.00    -0.291 OA
ATOM     28  C   UNL     1      37.940 -24.264 -13.550  0.00  0.00    +0.204 C 
BRANCH  28  29
ATOM     29  C   UNL     1      37.960 -24.214 -12.038  0.00  0.00    +0.204 C 
BRANCH  29  30
ATOM     30  O   UNL     1      38.727 -23.119 -11.584  0.00  0.00    -0.375 OA
ATOM     31  H   UNL     1      39.339 -22.843 -12.283  0.00  0.00    +0.211 HD
ENDBRANCH  29  30
ENDBRANCH  28  29
ENDBRANCH   7  28
TORSDOF 5
ENDMDL
