MODEL 1
REMARK VINA RESULT:      -6.6      0.000      0.000
REMARK  Name = 46936391
REMARK  14 active torsions:
REMARK  status: ('A' for Active; 'I' for Inactive)
REMARK    1  A    between atoms: C_1  and  C_2
REMARK    2  A    between atoms: C_1  and  C_11
REMARK    3  A    between atoms: C_2  and  C_3
REMARK    4  A    between atoms: C_3  and  C_4
REMARK    5  A    between atoms: C_4  and  C_5
REMARK    6  A    between atoms: C_5  and  C_6
REMARK    7  A    between atoms: C_6  and  C_7
REMARK    8  A    between atoms: C_7  and  C_8
REMARK    9  A    between atoms: C_8  and  C_9
REMARK   10  A    between atoms: C_11  and  P_12
REMARK   11  A    between atoms: P_12  and  O_15
REMARK   12  A    between atoms: O_15  and  C_16
REMARK   13  A    between atoms: C_16  and  C_17
REMARK   14  A    between atoms: C_17  and  C_18
REMARK                            x       y       z     vdW  Elec       q    Type
REMARK                         _______ _______ _______ _____ _____    ______ ____
ROOT
ATOM      1  C   UNL     1      33.437 -20.411 -20.366  0.00  0.00    +0.010 C 
ENDROOT
BRANCH   1   2
ATOM      2  C   UNL     1      33.982 -19.210 -21.139  0.00  0.00    +0.001 C 
BRANCH   2   3
ATOM      3  C   UNL     1      35.509 -19.124 -21.127  0.00  0.00    +0.000 C 
BRANCH   3   4
ATOM      4  C   UNL     1      36.029 -18.352 -22.342  0.00  0.00    +0.000 C 
BRANCH   4   5
ATOM      5  C   UNL     1      35.204 -18.661 -23.594  0.00  0.00    +0.000 C 
BRANCH   5   6
ATOM      6  C   UNL     1      34.717 -17.376 -24.267  0.00  0.00    +0.000 C 
BRANCH   6   7
ATOM      7  C   UNL     1      35.052 -16.108 -23.476  0.00  0.00    +0.000 C 
BRANCH   7   8
ATOM      8  C   UNL     1      33.835 -15.471 -22.804  0.00  0.00    +0.000 C 
BRANCH   8   9
ATOM      9  C   UNL     1      34.068 -15.279 -21.304  0.00  0.00    +0.000 C 
ATOM     10  C   UNL     1      32.762 -15.323 -20.527  0.00  0.00    +0.000 C 
ENDBRANCH   8   9
ENDBRANCH   7   8
ENDBRANCH   6   7
ENDBRANCH   5   6
ENDBRANCH   4   5
ENDBRANCH   3   4
ENDBRANCH   2   3
ENDBRANCH   1   2
BRANCH   1  11
ATOM     11  C   UNL     1      34.513 -21.225 -19.658  0.00  0.00    +0.083 C 
BRANCH  11  12
ATOM     12  P   UNL     1      33.815 -22.633 -18.762  0.00  0.00    +0.202 P 
ATOM     13  O   UNL     1      33.921 -23.860 -19.629  0.00  0.00    -0.293 OA
ATOM     14  H   UNL     1      32.852 -22.427 -17.794  0.00  0.00    +0.129 HD
BRANCH  12  15
ATOM     15  O   UNL     1      34.837 -22.737 -17.500  0.00  0.00    -0.316 OA
BRANCH  15  16
ATOM     16  C   UNL     1      34.361 -23.264 -16.274  0.00  0.00    +0.149 C 
BRANCH  16  17
ATOM     17  C   UNL     1      32.839 -23.281 -16.304  0.00  0.00    +0.033 C 
BRANCH  17  18
ATOM     18  C   UNL     1      32.247 -23.214 -14.899  0.00  0.00    +0.003 C 
ATOM     19  C   UNL     1      30.765 -22.876 -14.934  0.00  0.00    +0.000 C 
ENDBRANCH  17  18
ENDBRANCH  16  17
ENDBRANCH  15  16
ENDBRANCH  12  15
ENDBRANCH  11  12
ENDBRANCH   1  11
TORSDOF 14
ENDMDL
MODEL 2
REMARK VINA RESULT:      -6.5      4.599      7.928
REMARK  Name = 46936391
REMARK  14 active torsions:
REMARK  status: ('A' for Active; 'I' for Inactive)
REMARK    1  A    between atoms: C_1  and  C_2
REMARK    2  A    between atoms: C_1  and  C_11
REMARK    3  A    between atoms: C_2  and  C_3
REMARK    4  A    between atoms: C_3  and  C_4
REMARK    5  A    between atoms: C_4  and  C_5
REMARK    6  A    between atoms: C_5  and  C_6
REMARK    7  A    between atoms: C_6  and  C_7
REMARK    8  A    between atoms: C_7  and  C_8
REMARK    9  A    between atoms: C_8  and  C_9
REMARK   10  A    between atoms: C_11  and  P_12
REMARK   11  A    between atoms: P_12  and  O_15
REMARK   12  A    between atoms: O_15  and  C_16
REMARK   13  A    between atoms: C_16  and  C_17
REMARK   14  A    between atoms: C_17  and  C_18
REMARK                            x       y       z     vdW  Elec       q    Type
REMARK                         _______ _______ _______ _____ _____    ______ ____
ROOT
ATOM      1  C   UNL     1      34.673 -16.523 -24.562  0.00  0.00    +0.010 C 
ENDROOT
BRANCH   1   2
ATOM      2  C   UNL     1      34.359 -17.924 -25.087  0.00  0.00    +0.001 C 
BRANCH   2   3
ATOM      3  C   UNL     1      34.751 -19.038 -24.114  0.00  0.00    +0.000 C 
BRANCH   3   4
ATOM      4  C   UNL     1      34.989 -18.485 -22.707  0.00  0.00    +0.000 C 
BRANCH   4   5
ATOM      5  C   UNL     1      34.848 -19.580 -21.646  0.00  0.00    +0.000 C 
BRANCH   5   6
ATOM      6  C   UNL     1      33.392 -19.738 -21.203  0.00  0.00    +0.000 C 
BRANCH   6   7
ATOM      7  C   UNL     1      33.229 -20.576 -19.932  0.00  0.00    +0.000 C 
BRANCH   7   8
ATOM      8  C   UNL     1      34.461 -21.419 -19.596  0.00  0.00    +0.000 C 
BRANCH   8   9
ATOM      9  C   UNL     1      34.062 -22.810 -19.100  0.00  0.00    +0.000 C 
ATOM     10  C   UNL     1      33.082 -22.728 -17.941  0.00  0.00    +0.000 C 
ENDBRANCH   8   9
ENDBRANCH   7   8
ENDBRANCH   6   7
ENDBRANCH   5   6
ENDBRANCH   4   5
ENDBRANCH   3   4
ENDBRANCH   2   3
ENDBRANCH   1   2
BRANCH   1  11
ATOM     11  C   UNL     1      33.752 -15.442 -25.114  0.00  0.00    +0.083 C 
BRANCH  11  12
ATOM     12  P   UNL     1      33.742 -13.965 -24.068  0.00  0.00    +0.202 P 
ATOM     13  O   UNL     1      33.279 -12.791 -24.891  0.00  0.00    -0.293 OA
ATOM     14  H   UNL     1      34.585 -13.886 -22.978  0.00  0.00    +0.129 HD
BRANCH  12  15
ATOM     15  O   UNL     1      32.613 -14.370 -22.968  0.00  0.00    -0.316 OA
BRANCH  15  16
ATOM     16  C   UNL     1      32.393 -13.510 -21.864  0.00  0.00    +0.149 C 
BRANCH  16  17
ATOM     17  C   UNL     1      32.476 -14.326 -20.581  0.00  0.00    +0.033 C 
BRANCH  17  18
ATOM     18  C   UNL     1      33.129 -15.684 -20.818  0.00  0.00    +0.003 C 
ATOM     19  C   UNL     1      34.621 -15.644 -20.527  0.00  0.00    +0.000 C 
ENDBRANCH  17  18
ENDBRANCH  16  17
ENDBRANCH  15  16
ENDBRANCH  12  15
ENDBRANCH  11  12
ENDBRANCH   1  11
TORSDOF 14
ENDMDL
MODEL 3
REMARK VINA RESULT:      -6.3      6.168     10.251
REMARK  Name = 46936391
REMARK  14 active torsions:
REMARK  status: ('A' for Active; 'I' for Inactive)
REMARK    1  A    between atoms: C_1  and  C_2
REMARK    2  A    between atoms: C_1  and  C_11
REMARK    3  A    between atoms: C_2  and  C_3
REMARK    4  A    between atoms: C_3  and  C_4
REMARK    5  A    between atoms: C_4  and  C_5
REMARK    6  A    between atoms: C_5  and  C_6
REMARK    7  A    between atoms: C_6  and  C_7
REMARK    8  A    between atoms: C_7  and  C_8
REMARK    9  A    between atoms: C_8  and  C_9
REMARK   10  A    between atoms: C_11  and  P_12
REMARK   11  A    between atoms: P_12  and  O_15
REMARK   12  A    between atoms: O_15  and  C_16
REMARK   13  A    between atoms: C_16  and  C_17
REMARK   14  A    between atoms: C_17  and  C_18
REMARK                            x       y       z     vdW  Elec       q    Type
REMARK                         _______ _______ _______ _____ _____    ______ ____
ROOT
ATOM      1  C   UNL     1      32.281 -13.952 -22.159  0.00  0.00    +0.010 C 
ENDROOT
BRANCH   1   2
ATOM      2  C   UNL     1      32.890 -13.997 -20.757  0.00  0.00    +0.001 C 
BRANCH   2   3
ATOM      3  C   UNL     1      33.457 -15.368 -20.387  0.00  0.00    +0.000 C 
BRANCH   3   4
ATOM      4  C   UNL     1      34.561 -15.792 -21.359  0.00  0.00    +0.000 C 
BRANCH   4   5
ATOM      5  C   UNL     1      35.135 -17.161 -20.988  0.00  0.00    +0.000 C 
BRANCH   5   6
ATOM      6  C   UNL     1      34.184 -18.289 -21.392  0.00  0.00    +0.000 C 
BRANCH   6   7
ATOM      7  C   UNL     1      34.804 -19.288 -22.373  0.00  0.00    +0.000 C 
BRANCH   7   8
ATOM      8  C   UNL     1      35.508 -18.622 -23.556  0.00  0.00    +0.000 C 
BRANCH   8   9
ATOM      9  C   UNL     1      34.509 -18.236 -24.649  0.00  0.00    +0.000 C 
ATOM     10  C   UNL     1      34.747 -16.819 -25.146  0.00  0.00    +0.000 C 
ENDBRANCH   8   9
ENDBRANCH   7   8
ENDBRANCH   6   7
ENDBRANCH   5   6
ENDBRANCH   4   5
ENDBRANCH   3   4
ENDBRANCH   2   3
ENDBRANCH   1   2
BRANCH   1  11
ATOM     11  C   UNL     1      32.579 -12.664 -22.917  0.00  0.00    +0.083 C 
BRANCH  11  12
ATOM     12  P   UNL     1      33.668 -12.952 -24.333  0.00  0.00    +0.202 P 
ATOM     13  O   UNL     1      32.925 -13.770 -25.357  0.00  0.00    -0.293 OA
ATOM     14  H   UNL     1      35.038 -12.949 -24.163  0.00  0.00    +0.129 HD
BRANCH  12  15
ATOM     15  O   UNL     1      33.889 -11.432 -24.870  0.00  0.00    -0.316 OA
BRANCH  15  16
ATOM     16  C   UNL     1      33.888 -10.368 -23.936  0.00  0.00    +0.149 C 
BRANCH  16  17
ATOM     17  C   UNL     1      34.927  -9.338 -24.361  0.00  0.00    +0.033 C 
BRANCH  17  18
ATOM     18  C   UNL     1      34.738  -8.012 -23.631  0.00  0.00    +0.003 C 
ATOM     19  C   UNL     1      34.501  -6.869 -24.604  0.00  0.00    +0.000 C 
ENDBRANCH  17  18
ENDBRANCH  16  17
ENDBRANCH  15  16
ENDBRANCH  12  15
ENDBRANCH  11  12
ENDBRANCH   1  11
TORSDOF 14
ENDMDL
MODEL 4
REMARK VINA RESULT:      -6.3      6.633     10.615
REMARK  Name = 46936391
REMARK  14 active torsions:
REMARK  status: ('A' for Active; 'I' for Inactive)
REMARK    1  A    between atoms: C_1  and  C_2
REMARK    2  A    between atoms: C_1  and  C_11
REMARK    3  A    between atoms: C_2  and  C_3
REMARK    4  A    between atoms: C_3  and  C_4
REMARK    5  A    between atoms: C_4  and  C_5
REMARK    6  A    between atoms: C_5  and  C_6
REMARK    7  A    between atoms: C_6  and  C_7
REMARK    8  A    between atoms: C_7  and  C_8
REMARK    9  A    between atoms: C_8  and  C_9
REMARK   10  A    between atoms: C_11  and  P_12
REMARK   11  A    between atoms: P_12  and  O_15
REMARK   12  A    between atoms: O_15  and  C_16
REMARK   13  A    between atoms: C_16  and  C_17
REMARK   14  A    between atoms: C_17  and  C_18
REMARK                            x       y       z     vdW  Elec       q    Type
REMARK                         _______ _______ _______ _____ _____    ______ ____
ROOT
ATOM      1  C   UNL     1      32.244 -13.339 -21.127  0.00  0.00    +0.010 C 
ENDROOT
BRANCH   1   2
ATOM      2  C   UNL     1      32.590 -14.818 -21.303  0.00  0.00    +0.001 C 
BRANCH   2   3
ATOM      3  C   UNL     1      33.711 -15.293 -20.376  0.00  0.00    +0.000 C 
BRANCH   3   4
ATOM      4  C   UNL     1      34.798 -16.035 -21.157  0.00  0.00    +0.000 C 
BRANCH   4   5
ATOM      5  C   UNL     1      34.626 -15.848 -22.666  0.00  0.00    +0.000 C 
BRANCH   5   6
ATOM      6  C   UNL     1      34.973 -17.130 -23.426  0.00  0.00    +0.000 C 
BRANCH   6   7
ATOM      7  C   UNL     1      35.576 -18.221 -22.537  0.00  0.00    +0.000 C 
BRANCH   7   8
ATOM      8  C   UNL     1      34.658 -19.430 -22.349  0.00  0.00    +0.000 C 
BRANCH   8   9
ATOM      9  C   UNL     1      34.338 -19.657 -20.870  0.00  0.00    +0.000 C 
ATOM     10  C   UNL     1      32.861 -19.946 -20.658  0.00  0.00    +0.000 C 
ENDBRANCH   8   9
ENDBRANCH   7   8
ENDBRANCH   6   7
ENDBRANCH   5   6
ENDBRANCH   4   5
ENDBRANCH   3   4
ENDBRANCH   2   3
ENDBRANCH   1   2
BRANCH   1  11
ATOM     11  C   UNL     1      32.179 -12.565 -22.438  0.00  0.00    +0.083 C 
BRANCH  11  12
ATOM     12  P   UNL     1      31.604 -10.867 -22.191  0.00  0.00    +0.202 P 
ATOM     13  O   UNL     1      31.621 -10.559 -20.716  0.00  0.00    -0.293 OA
ATOM     14  H   UNL     1      30.758 -10.284 -23.112  0.00  0.00    +0.129 HD
BRANCH  12  15
ATOM     15  O   UNL     1      32.766 -10.028 -22.961  0.00  0.00    -0.316 OA
BRANCH  15  16
ATOM     16  C   UNL     1      32.543  -8.661 -23.257  0.00  0.00    +0.149 C 
BRANCH  16  17
ATOM     17  C   UNL     1      33.564  -7.821 -22.501  0.00  0.00    +0.033 C 
BRANCH  17  18
ATOM     18  C   UNL     1      34.793  -7.525 -23.354  0.00  0.00    +0.003 C 
ATOM     19  C   UNL     1      34.417  -6.812 -24.644  0.00  0.00    +0.000 C 
ENDBRANCH  17  18
ENDBRANCH  16  17
ENDBRANCH  15  16
ENDBRANCH  12  15
ENDBRANCH  11  12
ENDBRANCH   1  11
TORSDOF 14
ENDMDL
MODEL 5
REMARK VINA RESULT:      -6.3      5.070      8.693
REMARK  Name = 46936391
REMARK  14 active torsions:
REMARK  status: ('A' for Active; 'I' for Inactive)
REMARK    1  A    between atoms: C_1  and  C_2
REMARK    2  A    between atoms: C_1  and  C_11
REMARK    3  A    between atoms: C_2  and  C_3
REMARK    4  A    between atoms: C_3  and  C_4
REMARK    5  A    between atoms: C_4  and  C_5
REMARK    6  A    between atoms: C_5  and  C_6
REMARK    7  A    between atoms: C_6  and  C_7
REMARK    8  A    between atoms: C_7  and  C_8
REMARK    9  A    between atoms: C_8  and  C_9
REMARK   10  A    between atoms: C_11  and  P_12
REMARK   11  A    between atoms: P_12  and  O_15
REMARK   12  A    between atoms: O_15  and  C_16
REMARK   13  A    between atoms: C_16  and  C_17
REMARK   14  A    between atoms: C_17  and  C_18
REMARK                            x       y       z     vdW  Elec       q    Type
REMARK                         _______ _______ _______ _____ _____    ______ ____
ROOT
ATOM      1  C   UNL     1      34.742 -15.695 -23.470  0.00  0.00    +0.010 C 
ENDROOT
BRANCH   1   2
ATOM      2  C   UNL     1      34.416 -16.376 -24.800  0.00  0.00    +0.001 C 
BRANCH   2   3
ATOM      3  C   UNL     1      34.720 -17.875 -24.804  0.00  0.00    +0.000 C 
BRANCH   3   4
ATOM      4  C   UNL     1      35.417 -18.302 -23.510  0.00  0.00    +0.000 C 
BRANCH   4   5
ATOM      5  C   UNL     1      34.717 -19.504 -22.870  0.00  0.00    +0.000 C 
BRANCH   5   6
ATOM      6  C   UNL     1      34.478 -19.275 -21.376  0.00  0.00    +0.000 C 
BRANCH   6   7
ATOM      7  C   UNL     1      33.081 -19.696 -20.911  0.00  0.00    +0.000 C 
BRANCH   7   8
ATOM      8  C   UNL     1      33.100 -20.760 -19.813  0.00  0.00    +0.000 C 
BRANCH   8   9
ATOM      9  C   UNL     1      34.496 -21.365 -19.653  0.00  0.00    +0.000 C 
ATOM     10  C   UNL     1      34.535 -22.386 -18.526  0.00  0.00    +0.000 C 
ENDBRANCH   8   9
ENDBRANCH   7   8
ENDBRANCH   6   7
ENDBRANCH   5   6
ENDBRANCH   4   5
ENDBRANCH   3   4
ENDBRANCH   2   3
ENDBRANCH   1   2
BRANCH   1  11
ATOM     11  C   UNL     1      33.515 -15.174 -22.732  0.00  0.00    +0.083 C 
BRANCH  11  12
ATOM     12  P   UNL     1      33.332 -13.382 -22.909  0.00  0.00    +0.202 P 
ATOM     13  O   UNL     1      33.185 -13.052 -24.371  0.00  0.00    -0.293 OA
ATOM     14  H   UNL     1      33.860 -12.537 -21.955  0.00  0.00    +0.129 HD
BRANCH  12  15
ATOM     15  O   UNL     1      31.927 -13.134 -22.126  0.00  0.00    -0.316 OA
BRANCH  15  16
ATOM     16  C   UNL     1      31.649 -11.844 -21.610  0.00  0.00    +0.149 C 
BRANCH  16  17
ATOM     17  C   UNL     1      31.704 -11.900 -20.089  0.00  0.00    +0.033 C 
BRANCH  17  18
ATOM     18  C   UNL     1      31.334 -10.559 -19.462  0.00  0.00    +0.003 C 
ATOM     19  C   UNL     1      31.954  -9.399 -20.223  0.00  0.00    +0.000 C 
ENDBRANCH  17  18
ENDBRANCH  16  17
ENDBRANCH  15  16
ENDBRANCH  12  15
ENDBRANCH  11  12
ENDBRANCH   1  11
TORSDOF 14
ENDMDL
MODEL 6
REMARK VINA RESULT:      -6.3      7.204      9.915
REMARK  Name = 46936391
REMARK  14 active torsions:
REMARK  status: ('A' for Active; 'I' for Inactive)
REMARK    1  A    between atoms: C_1  and  C_2
REMARK    2  A    between atoms: C_1  and  C_11
REMARK    3  A    between atoms: C_2  and  C_3
REMARK    4  A    between atoms: C_3  and  C_4
REMARK    5  A    between atoms: C_4  and  C_5
REMARK    6  A    between atoms: C_5  and  C_6
REMARK    7  A    between atoms: C_6  and  C_7
REMARK    8  A    between atoms: C_7  and  C_8
REMARK    9  A    between atoms: C_8  and  C_9
REMARK   10  A    between atoms: C_11  and  P_12
REMARK   11  A    between atoms: P_12  and  O_15
REMARK   12  A    between atoms: O_15  and  C_16
REMARK   13  A    between atoms: C_16  and  C_17
REMARK   14  A    between atoms: C_17  and  C_18
REMARK                            x       y       z     vdW  Elec       q    Type
REMARK                         _______ _______ _______ _____ _____    ______ ____
ROOT
ATOM      1  C   UNL     1      33.751 -12.496 -24.942  0.00  0.00    +0.010 C 
ENDROOT
BRANCH   1   2
ATOM      2  C   UNL     1      33.650 -11.603 -23.705  0.00  0.00    +0.001 C 
BRANCH   2   3
ATOM      3  C   UNL     1      33.468 -10.121 -24.041  0.00  0.00    +0.000 C 
BRANCH   3   4
ATOM      4  C   UNL     1      34.818  -9.423 -24.218  0.00  0.00    +0.000 C 
BRANCH   4   5
ATOM      5  C   UNL     1      34.814  -8.031 -23.582  0.00  0.00    +0.000 C 
BRANCH   5   6
ATOM      6  C   UNL     1      34.407  -6.960 -24.595  0.00  0.00    +0.000 C 
BRANCH   6   7
ATOM      7  C   UNL     1      33.110  -6.233 -24.226  0.00  0.00    +0.000 C 
BRANCH   7   8
ATOM      8  C   UNL     1      32.607  -6.560 -22.820  0.00  0.00    +0.000 C 
BRANCH   8   9
ATOM      9  C   UNL     1      31.308  -7.366 -22.870  0.00  0.00    +0.000 C 
ATOM     10  C   UNL     1      30.776  -7.477 -24.290  0.00  0.00    +0.000 C 
ENDBRANCH   8   9
ENDBRANCH   7   8
ENDBRANCH   6   7
ENDBRANCH   5   6
ENDBRANCH   4   5
ENDBRANCH   3   4
ENDBRANCH   2   3
ENDBRANCH   1   2
BRANCH   1  11
ATOM     11  C   UNL     1      33.314 -13.935 -24.696  0.00  0.00    +0.083 C 
BRANCH  11  12
ATOM     12  P   UNL     1      33.098 -14.849 -26.243  0.00  0.00    +0.202 P 
ATOM     13  O   UNL     1      33.510 -13.963 -27.390  0.00  0.00    -0.293 OA
ATOM     14  H   UNL     1      32.168 -15.865 -26.320  0.00  0.00    +0.129 HD
BRANCH  12  15
ATOM     15  O   UNL     1      34.170 -16.057 -26.044  0.00  0.00    -0.316 OA
BRANCH  15  16
ATOM     16  C   UNL     1      34.379 -16.580 -24.744  0.00  0.00    +0.149 C 
BRANCH  16  17
ATOM     17  C   UNL     1      34.509 -18.094 -24.839  0.00  0.00    +0.033 C 
BRANCH  17  18
ATOM     18  C   UNL     1      35.345 -18.661 -23.695  0.00  0.00    +0.003 C 
ATOM     19  C   UNL     1      34.479 -19.030 -22.501  0.00  0.00    +0.000 C 
ENDBRANCH  17  18
ENDBRANCH  16  17
ENDBRANCH  15  16
ENDBRANCH  12  15
ENDBRANCH  11  12
ENDBRANCH   1  11
TORSDOF 14
ENDMDL
MODEL 7
REMARK VINA RESULT:      -6.3      3.599      8.160
REMARK  Name = 46936391
REMARK  14 active torsions:
REMARK  status: ('A' for Active; 'I' for Inactive)
REMARK    1  A    between atoms: C_1  and  C_2
REMARK    2  A    between atoms: C_1  and  C_11
REMARK    3  A    between atoms: C_2  and  C_3
REMARK    4  A    between atoms: C_3  and  C_4
REMARK    5  A    between atoms: C_4  and  C_5
REMARK    6  A    between atoms: C_5  and  C_6
REMARK    7  A    between atoms: C_6  and  C_7
REMARK    8  A    between atoms: C_7  and  C_8
REMARK    9  A    between atoms: C_8  and  C_9
REMARK   10  A    between atoms: C_11  and  P_12
REMARK   11  A    between atoms: P_12  and  O_15
REMARK   12  A    between atoms: O_15  and  C_16
REMARK   13  A    between atoms: C_16  and  C_17
REMARK   14  A    between atoms: C_17  and  C_18
REMARK                            x       y       z     vdW  Elec       q    Type
REMARK                         _______ _______ _______ _____ _____    ______ ____
ROOT
ATOM      1  C   UNL     1      34.428 -19.152 -22.894  0.00  0.00    +0.010 C 
ENDROOT
BRANCH   1   2
ATOM      2  C   UNL     1      34.450 -19.098 -21.366  0.00  0.00    +0.001 C 
BRANCH   2   3
ATOM      3  C   UNL     1      33.478 -20.081 -20.711  0.00  0.00    +0.000 C 
BRANCH   3   4
ATOM      4  C   UNL     1      34.221 -21.096 -19.839  0.00  0.00    +0.000 C 
BRANCH   4   5
ATOM      5  C   UNL     1      33.254 -21.883 -18.952  0.00  0.00    +0.000 C 
BRANCH   5   6
ATOM      6  C   UNL     1      34.003 -22.874 -18.059  0.00  0.00    +0.000 C 
BRANCH   6   7
ATOM      7  C   UNL     1      33.208 -23.301 -16.821  0.00  0.00    +0.000 C 
BRANCH   7   8
ATOM      8  C   UNL     1      31.730 -22.909 -16.882  0.00  0.00    +0.000 C 
BRANCH   8   9
ATOM      9  C   UNL     1      31.087 -22.960 -15.495  0.00  0.00    +0.000 C 
ATOM     10  C   UNL     1      30.149 -24.149 -15.359  0.00  0.00    +0.000 C 
ENDBRANCH   8   9
ENDBRANCH   7   8
ENDBRANCH   6   7
ENDBRANCH   5   6
ENDBRANCH   4   5
ENDBRANCH   3   4
ENDBRANCH   2   3
ENDBRANCH   1   2
BRANCH   1  11
ATOM     11  C   UNL     1      35.503 -18.296 -23.553  0.00  0.00    +0.083 C 
BRANCH  11  12
ATOM     12  P   UNL     1      34.789 -16.972 -24.560  0.00  0.00    +0.202 P 
ATOM     13  O   UNL     1      33.845 -17.582 -25.563  0.00  0.00    -0.293 OA
ATOM     14  H   UNL     1      35.480 -15.791 -24.738  0.00  0.00    +0.129 HD
BRANCH  12  15
ATOM     15  O   UNL     1      33.961 -16.137 -23.435  0.00  0.00    -0.316 OA
BRANCH  15  16
ATOM     16  C   UNL     1      34.648 -15.176 -22.652  0.00  0.00    +0.149 C 
BRANCH  16  17
ATOM     17  C   UNL     1      34.447 -15.508 -21.180  0.00  0.00    +0.033 C 
BRANCH  17  18
ATOM     18  C   UNL     1      32.993 -15.332 -20.755  0.00  0.00    +0.003 C 
ATOM     19  C   UNL     1      32.555 -13.879 -20.855  0.00  0.00    +0.000 C 
ENDBRANCH  17  18
ENDBRANCH  16  17
ENDBRANCH  15  16
ENDBRANCH  12  15
ENDBRANCH  11  12
ENDBRANCH   1  11
TORSDOF 14
ENDMDL
MODEL 8
REMARK VINA RESULT:      -6.3      4.921      7.158
REMARK  Name = 46936391
REMARK  14 active torsions:
REMARK  status: ('A' for Active; 'I' for Inactive)
REMARK    1  A    between atoms: C_1  and  C_2
REMARK    2  A    between atoms: C_1  and  C_11
REMARK    3  A    between atoms: C_2  and  C_3
REMARK    4  A    between atoms: C_3  and  C_4
REMARK    5  A    between atoms: C_4  and  C_5
REMARK    6  A    between atoms: C_5  and  C_6
REMARK    7  A    between atoms: C_6  and  C_7
REMARK    8  A    between atoms: C_7  and  C_8
REMARK    9  A    between atoms: C_8  and  C_9
REMARK   10  A    between atoms: C_11  and  P_12
REMARK   11  A    between atoms: P_12  and  O_15
REMARK   12  A    between atoms: O_15  and  C_16
REMARK   13  A    between atoms: C_16  and  C_17
REMARK   14  A    between atoms: C_17  and  C_18
REMARK                            x       y       z     vdW  Elec       q    Type
REMARK                         _______ _______ _______ _____ _____    ______ ____
ROOT
ATOM      1  C   UNL     1      33.144 -15.570 -20.609  0.00  0.00    +0.010 C 
ENDROOT
BRANCH   1   2
ATOM      2  C   UNL     1      32.736 -14.107 -20.432  0.00  0.00    +0.001 C 
BRANCH   2   3
ATOM      3  C   UNL     1      32.344 -13.425 -21.744  0.00  0.00    +0.000 C 
BRANCH   3   4
ATOM      4  C   UNL     1      31.607 -12.109 -21.485  0.00  0.00    +0.000 C 
BRANCH   4   5
ATOM      5  C   UNL     1      31.631 -11.740 -20.000  0.00  0.00    +0.000 C 
BRANCH   5   6
ATOM      6  C   UNL     1      31.175 -10.296 -19.780  0.00  0.00    +0.000 C 
BRANCH   6   7
ATOM      7  C   UNL     1      32.334  -9.308 -19.619  0.00  0.00    +0.000 C 
BRANCH   7   8
ATOM      8  C   UNL     1      32.184  -8.049 -20.473  0.00  0.00    +0.000 C 
BRANCH   8   9
ATOM      9  C   UNL     1      31.822  -8.399 -21.918  0.00  0.00    +0.000 C 
ATOM     10  C   UNL     1      33.042  -8.849 -22.705  0.00  0.00    +0.000 C 
ENDBRANCH   8   9
ENDBRANCH   7   8
ENDBRANCH   6   7
ENDBRANCH   5   6
ENDBRANCH   4   5
ENDBRANCH   3   4
ENDBRANCH   2   3
ENDBRANCH   1   2
BRANCH   1  11
ATOM     11  C   UNL     1      34.563 -15.752 -21.133  0.00  0.00    +0.083 C 
BRANCH  11  12
ATOM     12  P   UNL     1      34.585 -16.541 -22.761  0.00  0.00    +0.202 P 
ATOM     13  O   UNL     1      35.438 -15.715 -23.688  0.00  0.00    -0.293 OA
ATOM     14  H   UNL     1      33.532 -17.341 -23.155  0.00  0.00    +0.129 HD
BRANCH  12  15
ATOM     15  O   UNL     1      35.322 -17.950 -22.414  0.00  0.00    -0.316 OA
BRANCH  15  16
ATOM     16  C   UNL     1      34.545 -19.134 -22.357  0.00  0.00    +0.149 C 
BRANCH  16  17
ATOM     17  C   UNL     1      34.515 -19.633 -20.918  0.00  0.00    +0.033 C 
BRANCH  17  18
ATOM     18  C   UNL     1      33.161 -20.237 -20.560  0.00  0.00    +0.003 C 
ATOM     19  C   UNL     1      33.290 -21.282 -19.463  0.00  0.00    +0.000 C 
ENDBRANCH  17  18
ENDBRANCH  16  17
ENDBRANCH  15  16
ENDBRANCH  12  15
ENDBRANCH  11  12
ENDBRANCH   1  11
TORSDOF 14
ENDMDL
MODEL 9
REMARK VINA RESULT:      -6.3      5.662      9.946
REMARK  Name = 46936391
REMARK  14 active torsions:
REMARK  status: ('A' for Active; 'I' for Inactive)
REMARK    1  A    between atoms: C_1  and  C_2
REMARK    2  A    between atoms: C_1  and  C_11
REMARK    3  A    between atoms: C_2  and  C_3
REMARK    4  A    between atoms: C_3  and  C_4
REMARK    5  A    between atoms: C_4  and  C_5
REMARK    6  A    between atoms: C_5  and  C_6
REMARK    7  A    between atoms: C_6  and  C_7
REMARK    8  A    between atoms: C_7  and  C_8
REMARK    9  A    between atoms: C_8  and  C_9
REMARK   10  A    between atoms: C_11  and  P_12
REMARK   11  A    between atoms: P_12  and  O_15
REMARK   12  A    between atoms: O_15  and  C_16
REMARK   13  A    between atoms: C_16  and  C_17
REMARK   14  A    between atoms: C_17  and  C_18
REMARK                            x       y       z     vdW  Elec       q    Type
REMARK                         _______ _______ _______ _____ _____    ______ ____
ROOT
ATOM      1  C   UNL     1      32.802 -14.466 -21.471  0.00  0.00    +0.010 C 
ENDROOT
BRANCH   1   2
ATOM      2  C   UNL     1      34.304 -14.747 -21.501  0.00  0.00    +0.001 C 
BRANCH   2   3
ATOM      3  C   UNL     1      34.652 -16.212 -21.229  0.00  0.00    +0.000 C 
BRANCH   3   4
ATOM      4  C   UNL     1      35.142 -16.910 -22.501  0.00  0.00    +0.000 C 
BRANCH   4   5
ATOM      5  C   UNL     1      34.759 -18.392 -22.506  0.00  0.00    +0.000 C 
BRANCH   5   6
ATOM      6  C   UNL     1      34.598 -18.927 -21.082  0.00  0.00    +0.000 C 
BRANCH   6   7
ATOM      7  C   UNL     1      33.340 -19.779 -20.890  0.00  0.00    +0.000 C 
BRANCH   7   8
ATOM      8  C   UNL     1      33.523 -20.919 -19.887  0.00  0.00    +0.000 C 
BRANCH   8   9
ATOM      9  C   UNL     1      34.995 -21.319 -19.767  0.00  0.00    +0.000 C 
ATOM     10  C   UNL     1      35.246 -22.156 -18.522  0.00  0.00    +0.000 C 
ENDBRANCH   8   9
ENDBRANCH   7   8
ENDBRANCH   6   7
ENDBRANCH   5   6
ENDBRANCH   4   5
ENDBRANCH   3   4
ENDBRANCH   2   3
ENDBRANCH   1   2
BRANCH   1  11
ATOM     11  C   UNL     1      32.338 -13.497 -22.551  0.00  0.00    +0.083 C 
BRANCH  11  12
ATOM     12  P   UNL     1      33.507 -13.411 -23.929  0.00  0.00    +0.202 P 
ATOM     13  O   UNL     1      32.902 -14.104 -25.122  0.00  0.00    -0.293 OA
ATOM     14  H   UNL     1      34.860 -13.297 -23.681  0.00  0.00    +0.129 HD
BRANCH  12  15
ATOM     15  O   UNL     1      33.578 -11.805 -24.180  0.00  0.00    -0.316 OA
BRANCH  15  16
ATOM     16  C   UNL     1      34.360 -11.312 -25.253  0.00  0.00    +0.149 C 
BRANCH  16  17
ATOM     17  C   UNL     1      34.849  -9.913 -24.902  0.00  0.00    +0.033 C 
BRANCH  17  18
ATOM     18  C   UNL     1      33.976  -9.261 -23.835  0.00  0.00    +0.003 C 
ATOM     19  C   UNL     1      34.634  -8.017 -23.260  0.00  0.00    +0.000 C 
ENDBRANCH  17  18
ENDBRANCH  16  17
ENDBRANCH  15  16
ENDBRANCH  12  15
ENDBRANCH  11  12
ENDBRANCH   1  11
TORSDOF 14
ENDMDL
