MODEL 1
REMARK VINA RESULT:      -7.7      0.000      0.000
REMARK  Name = 16630
REMARK  1 active torsions:
REMARK  status: ('A' for Active; 'I' for Inactive)
REMARK    1  A    between atoms: C_4  and  C_9
REMARK                            x       y       z     vdW  Elec       q    Type
REMARK                         _______ _______ _______ _____ _____    ______ ____
ROOT
ATOM      1  O   UNL     1      35.340 -18.365 -23.222  0.00  0.00    -0.447 OA
ATOM      2  N   UNL     1      35.015 -16.159 -22.733  0.00  0.00    -0.220 NA
ATOM      3  N   UNL     1      35.071 -16.947 -24.991  0.00  0.00    -0.313 N 
ATOM      4  C   UNL     1      35.601 -18.265 -21.824  0.00  0.00    +0.215 C 
ATOM      5  C   UNL     1      35.084 -16.884 -21.460  0.00  0.00    +0.178 C 
ATOM      6  C   UNL     1      35.129 -17.083 -23.637  0.00  0.00    +0.277 C 
ATOM      7  H   UNL     1      35.174 -17.736 -25.570  0.00  0.00    +0.147 HD
ATOM      8  H   UNL     1      34.927 -16.059 -25.391  0.00  0.00    +0.147 HD
ENDROOT
BRANCH   4   9
ATOM      9  C   UNL     1      34.946 -19.380 -21.052  0.00  0.00    +0.019 C 
ATOM     10  C   UNL     1      35.729 -20.332 -20.399  0.00  0.00    -0.001 C 
ATOM     11  C   UNL     1      33.554 -19.461 -20.989  0.00  0.00    -0.001 C 
ATOM     12  C   UNL     1      35.122 -21.364 -19.685  0.00  0.00    -0.000 C 
ATOM     13  C   UNL     1      32.947 -20.493 -20.274  0.00  0.00    -0.000 C 
ATOM     14  C   UNL     1      33.731 -21.445 -19.622  0.00  0.00    -0.000 C 
ENDBRANCH   4   9
TORSDOF 1
ENDMDL
MODEL 2
REMARK VINA RESULT:      -7.4      1.285      2.258
REMARK  Name = 16630
REMARK  1 active torsions:
REMARK  status: ('A' for Active; 'I' for Inactive)
REMARK    1  A    between atoms: C_4  and  C_9
REMARK                            x       y       z     vdW  Elec       q    Type
REMARK                         _______ _______ _______ _____ _____    ______ ____
ROOT
ATOM      1  O   UNL     1      34.107 -17.466 -20.999  0.00  0.00    -0.447 OA
ATOM      2  N   UNL     1      35.508 -16.997 -22.738  0.00  0.00    -0.220 NA
ATOM      3  N   UNL     1      34.644 -15.271 -21.326  0.00  0.00    -0.313 N 
ATOM      4  C   UNL     1      34.207 -18.692 -21.720  0.00  0.00    +0.215 C 
ATOM      5  C   UNL     1      35.366 -18.456 -22.671  0.00  0.00    +0.178 C 
ATOM      6  C   UNL     1      34.801 -16.559 -21.744  0.00  0.00    +0.277 C 
ATOM      7  H   UNL     1      34.073 -15.072 -20.550  0.00  0.00    +0.147 HD
ATOM      8  H   UNL     1      35.101 -14.540 -21.801  0.00  0.00    +0.147 HD
ENDROOT
BRANCH   4   9
ATOM      9  C   UNL     1      34.409 -19.867 -20.798  0.00  0.00    +0.019 C 
ATOM     10  C   UNL     1      33.307 -20.501 -20.224  0.00  0.00    -0.001 C 
ATOM     11  C   UNL     1      35.698 -20.321 -20.519  0.00  0.00    -0.001 C 
ATOM     12  C   UNL     1      33.495 -21.588 -19.370  0.00  0.00    -0.000 C 
ATOM     13  C   UNL     1      35.885 -21.408 -19.666  0.00  0.00    -0.000 C 
ATOM     14  C   UNL     1      34.783 -22.042 -19.092  0.00  0.00    -0.000 C 
ENDBRANCH   4   9
TORSDOF 1
ENDMDL
MODEL 3
REMARK VINA RESULT:      -7.3      4.921      6.352
REMARK  Name = 16630
REMARK  1 active torsions:
REMARK  status: ('A' for Active; 'I' for Inactive)
REMARK    1  A    between atoms: C_4  and  C_9
REMARK                            x       y       z     vdW  Elec       q    Type
REMARK                         _______ _______ _______ _____ _____    ______ ____
ROOT
ATOM      1  O   UNL     1      35.118 -22.765 -17.542  0.00  0.00    -0.447 OA
ATOM      2  N   UNL     1      33.258 -23.307 -16.335  0.00  0.00    -0.220 NA
ATOM      3  N   UNL     1      35.450 -23.445 -15.388  0.00  0.00    -0.313 N 
ATOM      4  C   UNL     1      34.062 -22.781 -18.499  0.00  0.00    +0.215 C 
ATOM      5  C   UNL     1      32.806 -22.830 -17.647  0.00  0.00    +0.178 C 
ATOM      6  C   UNL     1      34.549 -23.189 -16.377  0.00  0.00    +0.277 C 
ATOM      7  H   UNL     1      36.412 -23.314 -15.551  0.00  0.00    +0.147 HD
ATOM      8  H   UNL     1      35.140 -23.761 -14.508  0.00  0.00    +0.147 HD
ENDROOT
BRANCH   4   9
ATOM      9  C   UNL     1      34.123 -21.589 -19.419  0.00  0.00    +0.019 C 
ATOM     10  C   UNL     1      35.355 -21.127 -19.881  0.00  0.00    -0.001 C 
ATOM     11  C   UNL     1      32.947 -20.948 -19.808  0.00  0.00    -0.001 C 
ATOM     12  C   UNL     1      35.411 -20.023 -20.732  0.00  0.00    -0.000 C 
ATOM     13  C   UNL     1      33.004 -19.845 -20.660  0.00  0.00    -0.000 C 
ATOM     14  C   UNL     1      34.236 -19.383 -21.122  0.00  0.00    -0.000 C 
ENDBRANCH   4   9
TORSDOF 1
ENDMDL
MODEL 4
REMARK VINA RESULT:      -7.2      4.567      5.960
REMARK  Name = 16630
REMARK  1 active torsions:
REMARK  status: ('A' for Active; 'I' for Inactive)
REMARK    1  A    between atoms: C_4  and  C_9
REMARK                            x       y       z     vdW  Elec       q    Type
REMARK                         _______ _______ _______ _____ _____    ______ ____
ROOT
ATOM      1  O   UNL     1      36.360 -21.762 -18.026  0.00  0.00    -0.447 OA
ATOM      2  N   UNL     1      35.067 -22.995 -16.606  0.00  0.00    -0.220 NA
ATOM      3  N   UNL     1      37.230 -22.203 -15.961  0.00  0.00    -0.313 N 
ATOM      4  C   UNL     1      35.284 -22.228 -18.835  0.00  0.00    +0.215 C 
ATOM      5  C   UNL     1      34.286 -22.772 -17.828  0.00  0.00    +0.178 C 
ATOM      6  C   UNL     1      36.179 -22.359 -16.814  0.00  0.00    +0.277 C 
ATOM      7  H   UNL     1      38.022 -21.693 -16.245  0.00  0.00    +0.147 HD
ATOM      8  H   UNL     1      37.198 -22.602 -15.061  0.00  0.00    +0.147 HD
ENDROOT
BRANCH   4   9
ATOM      9  C   UNL     1      34.728 -21.134 -19.710  0.00  0.00    +0.019 C 
ATOM     10  C   UNL     1      33.348 -20.952 -19.807  0.00  0.00    -0.001 C 
ATOM     11  C   UNL     1      35.593 -20.304 -20.423  0.00  0.00    -0.001 C 
ATOM     12  C   UNL     1      32.834 -19.940 -20.617  0.00  0.00    -0.000 C 
ATOM     13  C   UNL     1      35.077 -19.291 -21.232  0.00  0.00    -0.000 C 
ATOM     14  C   UNL     1      33.698 -19.110 -21.329  0.00  0.00    -0.000 C 
ENDBRANCH   4   9
TORSDOF 1
ENDMDL
MODEL 5
REMARK VINA RESULT:      -7.2      2.822      4.839
REMARK  Name = 16630
REMARK  1 active torsions:
REMARK  status: ('A' for Active; 'I' for Inactive)
REMARK    1  A    between atoms: C_4  and  C_9
REMARK                            x       y       z     vdW  Elec       q    Type
REMARK                         _______ _______ _______ _____ _____    ______ ____
ROOT
ATOM      1  O   UNL     1      33.461 -19.434 -20.805  0.00  0.00    -0.447 OA
ATOM      2  N   UNL     1      35.078 -20.840 -20.018  0.00  0.00    -0.220 NA
ATOM      3  N   UNL     1      32.761 -21.208 -19.549  0.00  0.00    -0.313 N 
ATOM      4  C   UNL     1      34.687 -18.765 -21.088  0.00  0.00    +0.215 C 
ATOM      5  C   UNL     1      35.742 -19.832 -20.851  0.00  0.00    +0.178 C 
ATOM      6  C   UNL     1      33.817 -20.544 -20.097  0.00  0.00    +0.277 C 
ATOM      7  H   UNL     1      31.845 -20.875 -19.687  0.00  0.00    +0.147 HD
ATOM      8  H   UNL     1      32.913 -22.021 -19.015  0.00  0.00    +0.147 HD
ENDROOT
BRANCH   4   9
ATOM      9  C   UNL     1      34.704 -18.197 -22.484  0.00  0.00    +0.019 C 
ATOM     10  C   UNL     1      34.845 -16.823 -22.676  0.00  0.00    -0.001 C 
ATOM     11  C   UNL     1      34.578 -19.046 -23.584  0.00  0.00    -0.001 C 
ATOM     12  C   UNL     1      34.860 -16.297 -23.968  0.00  0.00    -0.000 C 
ATOM     13  C   UNL     1      34.594 -18.520 -24.876  0.00  0.00    -0.000 C 
ATOM     14  C   UNL     1      34.735 -17.145 -25.068  0.00  0.00    -0.000 C 
ENDBRANCH   4   9
TORSDOF 1
ENDMDL
MODEL 6
REMARK VINA RESULT:      -6.9      2.461      3.514
REMARK  Name = 16630
REMARK  1 active torsions:
REMARK  status: ('A' for Active; 'I' for Inactive)
REMARK    1  A    between atoms: C_4  and  C_9
REMARK                            x       y       z     vdW  Elec       q    Type
REMARK                         _______ _______ _______ _____ _____    ______ ____
ROOT
ATOM      1  O   UNL     1      33.839 -15.801 -25.169  0.00  0.00    -0.447 OA
ATOM      2  N   UNL     1      33.325 -13.781 -24.240  0.00  0.00    -0.220 NA
ATOM      3  N   UNL     1      32.406 -14.464 -26.340  0.00  0.00    -0.313 N 
ATOM      4  C   UNL     1      34.741 -15.670 -24.073  0.00  0.00    +0.215 C 
ATOM      5  C   UNL     1      34.188 -14.493 -23.291  0.00  0.00    +0.178 C 
ATOM      6  C   UNL     1      33.169 -14.615 -25.221  0.00  0.00    +0.277 C 
ATOM      7  H   UNL     1      32.374 -15.180 -27.014  0.00  0.00    +0.147 HD
ATOM      8  H   UNL     1      31.885 -13.639 -26.474  0.00  0.00    +0.147 HD
ENDROOT
BRANCH   4   9
ATOM      9  C   UNL     1      34.833 -16.942 -23.270  0.00  0.00    +0.019 C 
ATOM     10  C   UNL     1      34.936 -16.883 -21.880  0.00  0.00    -0.001 C 
ATOM     11  C   UNL     1      34.816 -18.178 -23.917  0.00  0.00    -0.001 C 
ATOM     12  C   UNL     1      35.021 -18.061 -21.137  0.00  0.00    -0.000 C 
ATOM     13  C   UNL     1      34.901 -19.355 -23.173  0.00  0.00    -0.000 C 
ATOM     14  C   UNL     1      35.004 -19.296 -21.783  0.00  0.00    -0.000 C 
ENDBRANCH   4   9
TORSDOF 1
ENDMDL
MODEL 7
REMARK VINA RESULT:      -6.9      2.708      3.792
REMARK  Name = 16630
REMARK  1 active torsions:
REMARK  status: ('A' for Active; 'I' for Inactive)
REMARK    1  A    between atoms: C_4  and  C_9
REMARK                            x       y       z     vdW  Elec       q    Type
REMARK                         _______ _______ _______ _____ _____    ______ ____
ROOT
ATOM      1  O   UNL     1      34.699 -14.382 -23.116  0.00  0.00    -0.447 OA
ATOM      2  N   UNL     1      32.643 -13.549 -22.580  0.00  0.00    -0.220 NA
ATOM      3  N   UNL     1      34.114 -12.390 -24.067  0.00  0.00    -0.313 N 
ATOM      4  C   UNL     1      34.241 -15.215 -22.055  0.00  0.00    +0.215 C 
ATOM      5  C   UNL     1      32.771 -14.855 -21.924  0.00  0.00    +0.178 C 
ATOM      6  C   UNL     1      33.751 -13.410 -23.240  0.00  0.00    +0.277 C 
ATOM      7  H   UNL     1      34.992 -12.406 -24.512  0.00  0.00    +0.147 HD
ATOM      8  H   UNL     1      33.500 -11.637 -24.220  0.00  0.00    +0.147 HD
ENDROOT
BRANCH   4   9
ATOM      9  C   UNL     1      34.484 -16.674 -22.344  0.00  0.00    +0.019 C 
ATOM     10  C   UNL     1      34.804 -17.085 -23.638  0.00  0.00    -0.001 C 
ATOM     11  C   UNL     1      34.388 -17.613 -21.317  0.00  0.00    -0.001 C 
ATOM     12  C   UNL     1      35.029 -18.435 -23.905  0.00  0.00    -0.000 C 
ATOM     13  C   UNL     1      34.613 -18.964 -21.585  0.00  0.00    -0.000 C 
ATOM     14  C   UNL     1      34.933 -19.374 -22.879  0.00  0.00    -0.000 C 
ENDBRANCH   4   9
TORSDOF 1
ENDMDL
MODEL 8
REMARK VINA RESULT:      -6.8      6.409      7.943
REMARK  Name = 16630
REMARK  1 active torsions:
REMARK  status: ('A' for Active; 'I' for Inactive)
REMARK    1  A    between atoms: C_4  and  C_9
REMARK                            x       y       z     vdW  Elec       q    Type
REMARK                         _______ _______ _______ _____ _____    ______ ____
ROOT
ATOM      1  O   UNL     1      35.277 -24.466 -15.923  0.00  0.00    -0.447 OA
ATOM      2  N   UNL     1      37.303 -24.532 -14.875  0.00  0.00    -0.220 NA
ATOM      3  N   UNL     1      35.829 -26.415 -14.871  0.00  0.00    -0.313 N 
ATOM      4  C   UNL     1      35.738 -23.117 -15.948  0.00  0.00    +0.215 C 
ATOM      5  C   UNL     1      37.196 -23.228 -15.539  0.00  0.00    +0.178 C 
ATOM      6  C   UNL     1      36.204 -25.144 -15.188  0.00  0.00    +0.277 C 
ATOM      7  H   UNL     1      34.959 -26.762 -15.173  0.00  0.00    +0.147 HD
ATOM      8  H   UNL     1      36.428 -26.987 -14.338  0.00  0.00    +0.147 HD
ENDROOT
BRANCH   4   9
ATOM      9  C   UNL     1      35.534 -22.482 -17.300  0.00  0.00    +0.019 C 
ATOM     10  C   UNL     1      36.576 -21.779 -17.904  0.00  0.00    -0.001 C 
ATOM     11  C   UNL     1      34.303 -22.597 -17.946  0.00  0.00    -0.001 C 
ATOM     12  C   UNL     1      36.387 -21.191 -19.155  0.00  0.00    -0.000 C 
ATOM     13  C   UNL     1      34.115 -22.010 -19.197  0.00  0.00    -0.000 C 
ATOM     14  C   UNL     1      35.157 -21.307 -19.801  0.00  0.00    -0.000 C 
ENDBRANCH   4   9
TORSDOF 1
ENDMDL
MODEL 9
REMARK VINA RESULT:      -6.8      2.802      4.963
REMARK  Name = 16630
REMARK  1 active torsions:
REMARK  status: ('A' for Active; 'I' for Inactive)
REMARK    1  A    between atoms: C_4  and  C_9
REMARK                            x       y       z     vdW  Elec       q    Type
REMARK                         _______ _______ _______ _____ _____    ______ ____
ROOT
ATOM      1  O   UNL     1      35.306 -17.747 -20.815  0.00  0.00    -0.447 OA
ATOM      2  N   UNL     1      35.171 -19.337 -22.446  0.00  0.00    -0.220 NA
ATOM      3  N   UNL     1      35.686 -19.907 -20.182  0.00  0.00    -0.313 N 
ATOM      4  C   UNL     1      35.219 -17.007 -22.029  0.00  0.00    +0.215 C 
ATOM      5  C   UNL     1      34.819 -18.050 -23.058  0.00  0.00    +0.178 C 
ATOM      6  C   UNL     1      35.382 -19.053 -21.198  0.00  0.00    +0.277 C 
ATOM      7  H   UNL     1      35.823 -19.560 -19.271  0.00  0.00    +0.147 HD
ATOM      8  H   UNL     1      35.768 -20.873 -20.357  0.00  0.00    +0.147 HD
ENDROOT
BRANCH   4   9
ATOM      9  C   UNL     1      34.245 -15.862 -21.918  0.00  0.00    +0.019 C 
ATOM     10  C   UNL     1      33.727 -15.505 -20.673  0.00  0.00    -0.001 C 
ATOM     11  C   UNL     1      33.861 -15.160 -23.061  0.00  0.00    -0.001 C 
ATOM     12  C   UNL     1      32.825 -14.446 -20.571  0.00  0.00    -0.000 C 
ATOM     13  C   UNL     1      32.960 -14.100 -22.957  0.00  0.00    -0.000 C 
ATOM     14  C   UNL     1      32.442 -13.744 -21.713  0.00  0.00    -0.000 C 
ENDBRANCH   4   9
TORSDOF 1
ENDMDL
