MODEL 1
REMARK VINA RESULT:      -9.8      0.000      0.000
REMARK  Name = 5459372
REMARK  8 active torsions:
REMARK  status: ('A' for Active; 'I' for Inactive)
REMARK    1  A    between atoms: C_3  and  C_16
REMARK    2  A    between atoms: C_4  and  O_10
REMARK    3  A    between atoms: C_5  and  O_12
REMARK    4  A    between atoms: C_6  and  O_14
REMARK    5  A    between atoms: C_9  and  C_19
REMARK    6  A    between atoms: C_16  and  O_17
REMARK    7  A    between atoms: C_19  and  N_20
REMARK    8  A    between atoms: N_20  and  C_22
REMARK                            x       y       z     vdW  Elec       q    Type
REMARK                         _______ _______ _______ _____ _____    ______ ____
ROOT
ATOM      1  N   UNL     1      35.455 -24.433 -13.967  0.00  0.00    -0.275 N 
ATOM      2  N   UNL     1      35.696 -23.916 -16.108  0.00  0.00    -0.394 NA
ATOM      3  C   UNL     1      35.803 -24.878 -12.621  0.00  0.00    +0.134 C 
ATOM      4  C   UNL     1      37.115 -25.697 -12.611  0.00  0.00    +0.161 C 
ATOM      5  C   UNL     1      38.196 -25.140 -13.552  0.00  0.00    +0.174 C 
ATOM      6  C   UNL     1      37.695 -24.938 -14.989  0.00  0.00    +0.207 C 
ATOM      7  C   UNL     1      36.302 -24.411 -15.047  0.00  0.00    +0.189 C 
ATOM      8  C   UNL     1      34.240 -23.965 -14.373  0.00  0.00    +0.149 C 
ATOM      9  C   UNL     1      34.417 -23.639 -15.698  0.00  0.00    +0.128 C 
ENDROOT
BRANCH   4  10
ATOM     10  O   UNL     1      36.823 -27.051 -12.969  0.00  0.00    -0.380 OA
ATOM     11  H   UNL     1      35.882 -27.131 -13.190  0.00  0.00    +0.211 HD
ENDBRANCH   4  10
BRANCH   5  12
ATOM     12  O   UNL     1      38.676 -23.902 -13.035  0.00  0.00    -0.379 OA
ATOM     13  H   UNL     1      38.873 -24.001 -12.091  0.00  0.00    +0.211 HD
ENDBRANCH   5  12
BRANCH   6  14
ATOM     14  O   UNL     1      37.678 -26.200 -15.653  0.00  0.00    -0.374 OA
ATOM     15  H   UNL     1      38.514 -26.325 -16.130  0.00  0.00    +0.211 HD
ENDBRANCH   6  14
BRANCH   3  16
ATOM     16  C   UNL     1      35.866 -23.681 -11.667  0.00  0.00    +0.159 C 
BRANCH  16  17
ATOM     17  O   UNL     1      36.777 -23.986 -10.630  0.00  0.00    -0.380 OA
ATOM     18  H   UNL     1      36.447 -24.742 -10.121  0.00  0.00    +0.211 HD
ENDBRANCH  16  17
ENDBRANCH   3  16
BRANCH   9  19
ATOM     19  C   UNL     1      33.435 -23.072 -16.634  0.00  0.00    +0.144 C 
BRANCH  19  20
ATOM     20  N   UNL     1      33.709 -23.252 -18.056  0.00  0.00    -0.327 N 
ATOM     21  H   UNL     1      33.639 -24.157 -18.436  0.00  0.00    +0.147 HD
BRANCH  20  22
ATOM     22  C   UNL     1      34.060 -22.215 -18.893  0.00  0.00    +0.045 C 
ATOM     23  C   UNL     1      33.079 -21.400 -19.497  0.00  0.00    +0.014 C 
ATOM     24  C   UNL     1      35.414 -21.932 -19.177  0.00  0.00    +0.014 C 
ATOM     25  C   UNL     1      33.434 -20.350 -20.344  0.00  0.00    +0.001 C 
ATOM     26  C   UNL     1      35.769 -20.882 -20.025  0.00  0.00    +0.001 C 
ATOM     27  C   UNL     1      34.779 -20.091 -20.607  0.00  0.00    +0.000 C 
ENDBRANCH  20  22
ENDBRANCH  19  20
ENDBRANCH   9  19
TORSDOF 8
ENDMDL
MODEL 2
REMARK VINA RESULT:      -9.6      1.523      2.039
REMARK  Name = 5459372
REMARK  8 active torsions:
REMARK  status: ('A' for Active; 'I' for Inactive)
REMARK    1  A    between atoms: C_3  and  C_16
REMARK    2  A    between atoms: C_4  and  O_10
REMARK    3  A    between atoms: C_5  and  O_12
REMARK    4  A    between atoms: C_6  and  O_14
REMARK    5  A    between atoms: C_9  and  C_19
REMARK    6  A    between atoms: C_16  and  O_17
REMARK    7  A    between atoms: C_19  and  N_20
REMARK    8  A    between atoms: N_20  and  C_22
REMARK                            x       y       z     vdW  Elec       q    Type
REMARK                         _______ _______ _______ _____ _____    ______ ____
ROOT
ATOM      1  N   UNL     1      36.514 -24.035 -14.661  0.00  0.00    -0.275 N 
ATOM      2  N   UNL     1      38.177 -23.108 -15.795  0.00  0.00    -0.394 NA
ATOM      3  C   UNL     1      35.826 -24.885 -13.694  0.00  0.00    +0.134 C 
ATOM      4  C   UNL     1      36.723 -26.053 -13.222  0.00  0.00    +0.161 C 
ATOM      5  C   UNL     1      38.192 -25.653 -13.002  0.00  0.00    +0.174 C 
ATOM      6  C   UNL     1      38.811 -24.954 -14.220  0.00  0.00    +0.207 C 
ATOM      7  C   UNL     1      37.868 -24.016 -14.890  0.00  0.00    +0.189 C 
ATOM      8  C   UNL     1      35.932 -23.120 -15.490  0.00  0.00    +0.149 C 
ATOM      9  C   UNL     1      36.982 -22.550 -16.171  0.00  0.00    +0.128 C 
ENDROOT
BRANCH   4  10
ATOM     10  O   UNL     1      36.656 -27.112 -14.181  0.00  0.00    -0.380 OA
ATOM     11  H   UNL     1      37.420 -27.058 -14.776  0.00  0.00    +0.211 HD
ENDBRANCH   4  10
BRANCH   5  12
ATOM     12  O   UNL     1      38.280 -24.799 -11.864  0.00  0.00    -0.379 OA
ATOM     13  H   UNL     1      38.075 -23.888 -12.127  0.00  0.00    +0.211 HD
ENDBRANCH   5  12
BRANCH   6  14
ATOM     14  O   UNL     1      39.160 -25.939 -15.189  0.00  0.00    -0.374 OA
ATOM     15  H   UNL     1      39.796 -25.563 -15.819  0.00  0.00    +0.211 HD
ENDBRANCH   6  14
BRANCH   3  16
ATOM     16  C   UNL     1      35.311 -24.045 -12.522  0.00  0.00    +0.159 C 
BRANCH  16  17
ATOM     17  O   UNL     1      35.206 -24.882 -11.387  0.00  0.00    -0.380 OA
ATOM     18  H   UNL     1      35.105 -24.336 -10.592  0.00  0.00    +0.211 HD
ENDBRANCH  16  17
ENDBRANCH   3  16
BRANCH   9  19
ATOM     19  C   UNL     1      36.937 -21.488 -17.188  0.00  0.00    +0.144 C 
BRANCH  19  20
ATOM     20  N   UNL     1      36.607 -21.900 -18.549  0.00  0.00    -0.327 N 
ATOM     21  H   UNL     1      37.088 -22.666 -18.936  0.00  0.00    +0.147 HD
BRANCH  20  22
ATOM     22  C   UNL     1      35.653 -21.269 -19.317  0.00  0.00    +0.045 C 
ATOM     23  C   UNL     1      36.009 -20.265 -20.243  0.00  0.00    +0.014 C 
ATOM     24  C   UNL     1      34.286 -21.603 -19.204  0.00  0.00    +0.014 C 
ATOM     25  C   UNL     1      35.044 -19.625 -21.021  0.00  0.00    +0.001 C 
ATOM     26  C   UNL     1      33.320 -20.963 -19.983  0.00  0.00    +0.001 C 
ATOM     27  C   UNL     1      33.700 -19.976 -20.891  0.00  0.00    +0.000 C 
ENDBRANCH  20  22
ENDBRANCH  19  20
ENDBRANCH   9  19
TORSDOF 8
ENDMDL
MODEL 3
REMARK VINA RESULT:      -9.4      1.302      2.875
REMARK  Name = 5459372
REMARK  8 active torsions:
REMARK  status: ('A' for Active; 'I' for Inactive)
REMARK    1  A    between atoms: C_3  and  C_16
REMARK    2  A    between atoms: C_4  and  O_10
REMARK    3  A    between atoms: C_5  and  O_12
REMARK    4  A    between atoms: C_6  and  O_14
REMARK    5  A    between atoms: C_9  and  C_19
REMARK    6  A    between atoms: C_16  and  O_17
REMARK    7  A    between atoms: C_19  and  N_20
REMARK    8  A    between atoms: N_20  and  C_22
REMARK                            x       y       z     vdW  Elec       q    Type
REMARK                         _______ _______ _______ _____ _____    ______ ____
ROOT
ATOM      1  N   UNL     1      35.886 -23.560 -14.798  0.00  0.00    -0.275 N 
ATOM      2  N   UNL     1      33.701 -23.912 -14.904  0.00  0.00    -0.394 NA
ATOM      3  C   UNL     1      37.248 -23.569 -14.273  0.00  0.00    +0.134 C 
ATOM      4  C   UNL     1      37.268 -23.789 -12.743  0.00  0.00    +0.161 C 
ATOM      5  C   UNL     1      36.237 -24.820 -12.254  0.00  0.00    +0.174 C 
ATOM      6  C   UNL     1      34.813 -24.520 -12.739  0.00  0.00    +0.207 C 
ATOM      7  C   UNL     1      34.772 -24.022 -14.143  0.00  0.00    +0.189 C 
ATOM      8  C   UNL     1      35.496 -23.099 -16.022  0.00  0.00    +0.149 C 
ATOM      9  C   UNL     1      34.143 -23.339 -16.069  0.00  0.00    +0.128 C 
ENDROOT
BRANCH   4  10
ATOM     10  O   UNL     1      37.038 -22.538 -12.088  0.00  0.00    -0.380 OA
ATOM     11  H   UNL     1      36.951 -22.684 -11.132  0.00  0.00    +0.211 HD
ENDBRANCH   4  10
BRANCH   5  12
ATOM     12  O   UNL     1      36.629 -26.118 -12.694  0.00  0.00    -0.379 OA
ATOM     13  H   UNL     1      37.084 -26.580 -11.973  0.00  0.00    +0.211 HD
ENDBRANCH   5  12
BRANCH   6  14
ATOM     14  O   UNL     1      34.257 -23.488 -11.927  0.00  0.00    -0.374 OA
ATOM     15  H   UNL     1      33.367 -23.268 -12.247  0.00  0.00    +0.211 HD
ENDBRANCH   6  14
BRANCH   3  16
ATOM     16  C   UNL     1      38.095 -24.607 -15.014  0.00  0.00    +0.159 C 
BRANCH  16  17
ATOM     17  O   UNL     1      39.087 -23.924 -15.755  0.00  0.00    -0.380 OA
ATOM     18  H   UNL     1      39.949 -24.039 -15.325  0.00  0.00    +0.211 HD
ENDBRANCH  16  17
ENDBRANCH   3  16
BRANCH   9  19
ATOM     19  C   UNL     1      33.206 -23.054 -17.167  0.00  0.00    +0.144 C 
BRANCH  19  20
ATOM     20  N   UNL     1      33.740 -23.147 -18.522  0.00  0.00    -0.327 N 
ATOM     21  H   UNL     1      33.848 -24.040 -18.923  0.00  0.00    +0.147 HD
BRANCH  20  22
ATOM     22  C   UNL     1      34.100 -22.046 -19.267  0.00  0.00    +0.045 C 
ATOM     23  C   UNL     1      35.456 -21.750 -19.527  0.00  0.00    +0.014 C 
ATOM     24  C   UNL     1      33.125 -21.173 -19.798  0.00  0.00    +0.014 C 
ATOM     25  C   UNL     1      35.820 -20.636 -20.281  0.00  0.00    +0.001 C 
ATOM     26  C   UNL     1      33.490 -20.057 -20.553  0.00  0.00    +0.001 C 
ATOM     27  C   UNL     1      34.837 -19.790 -20.795  0.00  0.00    +0.000 C 
ENDBRANCH  20  22
ENDBRANCH  19  20
ENDBRANCH   9  19
TORSDOF 8
ENDMDL
MODEL 4
REMARK VINA RESULT:      -9.2      1.447      2.905
REMARK  Name = 5459372
REMARK  8 active torsions:
REMARK  status: ('A' for Active; 'I' for Inactive)
REMARK    1  A    between atoms: C_3  and  C_16
REMARK    2  A    between atoms: C_4  and  O_10
REMARK    3  A    between atoms: C_5  and  O_12
REMARK    4  A    between atoms: C_6  and  O_14
REMARK    5  A    between atoms: C_9  and  C_19
REMARK    6  A    between atoms: C_16  and  O_17
REMARK    7  A    between atoms: C_19  and  N_20
REMARK    8  A    between atoms: N_20  and  C_22
REMARK                            x       y       z     vdW  Elec       q    Type
REMARK                         _______ _______ _______ _____ _____    ______ ____
ROOT
ATOM      1  N   UNL     1      37.773 -23.871 -14.709  0.00  0.00    -0.275 N 
ATOM      2  N   UNL     1      35.845 -23.066 -15.448  0.00  0.00    -0.394 NA
ATOM      3  C   UNL     1      38.714 -24.621 -13.882  0.00  0.00    +0.134 C 
ATOM      4  C   UNL     1      38.099 -24.994 -12.514  0.00  0.00    +0.161 C 
ATOM      5  C   UNL     1      36.623 -25.419 -12.596  0.00  0.00    +0.174 C 
ATOM      6  C   UNL     1      35.744 -24.392 -13.322  0.00  0.00    +0.207 C 
ATOM      7  C   UNL     1      36.418 -23.784 -14.502  0.00  0.00    +0.189 C 
ATOM      8  C   UNL     1      38.079 -23.140 -15.820  0.00  0.00    +0.149 C 
ATOM      9  C   UNL     1      36.869 -22.663 -16.267  0.00  0.00    +0.128 C 
ENDROOT
BRANCH   4  10
ATOM     10  O   UNL     1      38.225 -23.881 -11.624  0.00  0.00    -0.380 OA
ATOM     11  H   UNL     1      38.502 -24.196 -10.749  0.00  0.00    +0.211 HD
ENDBRANCH   4  10
BRANCH   5  12
ATOM     12  O   UNL     1      36.534 -26.679 -13.257  0.00  0.00    -0.379 OA
ATOM     13  H   UNL     1      37.402 -27.112 -13.246  0.00  0.00    +0.211 HD
ENDBRANCH   5  12
BRANCH   6  14
ATOM     14  O   UNL     1      35.450 -23.322 -12.427  0.00  0.00    -0.374 OA
ATOM     15  H   UNL     1      35.137 -22.555 -12.932  0.00  0.00    +0.211 HD
ENDBRANCH   6  14
BRANCH   3  16
ATOM     16  C   UNL     1      39.221 -25.851 -14.640  0.00  0.00    +0.159 C 
BRANCH  16  17
ATOM     17  O   UNL     1      38.172 -26.336 -15.453  0.00  0.00    -0.380 OA
ATOM     18  H   UNL     1      37.935 -25.664 -16.111  0.00  0.00    +0.211 HD
ENDBRANCH  16  17
ENDBRANCH   3  16
BRANCH   9  19
ATOM     19  C   UNL     1      36.602 -21.824 -17.444  0.00  0.00    +0.144 C 
BRANCH  19  20
ATOM     20  N   UNL     1      35.518 -22.255 -18.322  0.00  0.00    -0.327 N 
ATOM     21  H   UNL     1      35.179 -23.175 -18.231  0.00  0.00    +0.147 HD
BRANCH  20  22
ATOM     22  C   UNL     1      34.945 -21.436 -19.270  0.00  0.00    +0.045 C 
ATOM     23  C   UNL     1      33.543 -21.349 -19.409  0.00  0.00    +0.014 C 
ATOM     24  C   UNL     1      35.739 -20.656 -20.137  0.00  0.00    +0.014 C 
ATOM     25  C   UNL     1      32.962 -20.521 -20.369  0.00  0.00    +0.001 C 
ATOM     26  C   UNL     1      35.159 -19.827 -21.098  0.00  0.00    +0.001 C 
ATOM     27  C   UNL     1      33.770 -19.759 -21.213  0.00  0.00    +0.000 C 
ENDBRANCH  20  22
ENDBRANCH  19  20
ENDBRANCH   9  19
TORSDOF 8
ENDMDL
MODEL 5
REMARK VINA RESULT:      -8.7      2.454      3.796
REMARK  Name = 5459372
REMARK  8 active torsions:
REMARK  status: ('A' for Active; 'I' for Inactive)
REMARK    1  A    between atoms: C_3  and  C_16
REMARK    2  A    between atoms: C_4  and  O_10
REMARK    3  A    between atoms: C_5  and  O_12
REMARK    4  A    between atoms: C_6  and  O_14
REMARK    5  A    between atoms: C_9  and  C_19
REMARK    6  A    between atoms: C_16  and  O_17
REMARK    7  A    between atoms: C_19  and  N_20
REMARK    8  A    between atoms: N_20  and  C_22
REMARK                            x       y       z     vdW  Elec       q    Type
REMARK                         _______ _______ _______ _____ _____    ______ ____
ROOT
ATOM      1  N   UNL     1      35.555 -24.620 -13.825  0.00  0.00    -0.275 N 
ATOM      2  N   UNL     1      35.515 -24.193 -15.998  0.00  0.00    -0.394 NA
ATOM      3  C   UNL     1      36.071 -25.026 -12.521  0.00  0.00    +0.134 C 
ATOM      4  C   UNL     1      37.345 -25.892 -12.656  0.00  0.00    +0.161 C 
ATOM      5  C   UNL     1      38.304 -25.411 -13.758  0.00  0.00    +0.174 C 
ATOM      6  C   UNL     1      37.615 -25.245 -15.120  0.00  0.00    +0.207 C 
ATOM      7  C   UNL     1      36.246 -24.670 -15.010  0.00  0.00    +0.189 C 
ATOM      8  C   UNL     1      34.310 -24.123 -14.081  0.00  0.00    +0.149 C 
ATOM      9  C   UNL     1      34.314 -23.854 -15.430  0.00  0.00    +0.128 C 
ENDROOT
BRANCH   4  10
ATOM     10  O   UNL     1      36.966 -27.246 -12.912  0.00  0.00    -0.380 OA
ATOM     11  H   UNL     1      36.727 -27.344 -13.848  0.00  0.00    +0.211 HD
ENDBRANCH   4  10
BRANCH   5  12
ATOM     12  O   UNL     1      38.888 -24.172 -13.364  0.00  0.00    -0.379 OA
ATOM     13  H   UNL     1      38.401 -23.812 -12.607  0.00  0.00    +0.211 HD
ENDBRANCH   5  12
BRANCH   6  14
ATOM     14  O   UNL     1      37.469 -26.529 -15.722  0.00  0.00    -0.374 OA
ATOM     15  H   UNL     1      37.059 -27.139 -15.088  0.00  0.00    +0.211 HD
ENDBRANCH   6  14
BRANCH   3  16
ATOM     16  C   UNL     1      36.301 -23.798 -11.636  0.00  0.00    +0.159 C 
BRANCH  16  17
ATOM     17  O   UNL     1      37.426 -24.045 -10.815  0.00  0.00    -0.380 OA
ATOM     18  H   UNL     1      37.311 -23.593  -9.965  0.00  0.00    +0.211 HD
ENDBRANCH  16  17
ENDBRANCH   3  16
BRANCH   9  19
ATOM     19  C   UNL     1      33.230 -23.287 -16.246  0.00  0.00    +0.144 C 
BRANCH  19  20
ATOM     20  N   UNL     1      32.069 -22.775 -15.526  0.00  0.00    -0.327 N 
ATOM     21  H   UNL     1      32.197 -22.023 -14.904  0.00  0.00    +0.147 HD
BRANCH  20  22
ATOM     22  C   UNL     1      30.801 -23.293 -15.676  0.00  0.00    +0.045 C 
ATOM     23  C   UNL     1      29.897 -22.751 -16.615  0.00  0.00    +0.014 C 
ATOM     24  C   UNL     1      30.360 -24.383 -14.895  0.00  0.00    +0.014 C 
ATOM     25  C   UNL     1      28.613 -23.274 -16.766  0.00  0.00    +0.001 C 
ATOM     26  C   UNL     1      29.075 -24.907 -15.046  0.00  0.00    +0.001 C 
ATOM     27  C   UNL     1      28.203 -24.353 -15.983  0.00  0.00    +0.000 C 
ENDBRANCH  20  22
ENDBRANCH  19  20
ENDBRANCH   9  19
TORSDOF 8
ENDMDL
MODEL 6
REMARK VINA RESULT:      -8.6      1.822      2.330
REMARK  Name = 5459372
REMARK  8 active torsions:
REMARK  status: ('A' for Active; 'I' for Inactive)
REMARK    1  A    between atoms: C_3  and  C_16
REMARK    2  A    between atoms: C_4  and  O_10
REMARK    3  A    between atoms: C_5  and  O_12
REMARK    4  A    between atoms: C_6  and  O_14
REMARK    5  A    between atoms: C_9  and  C_19
REMARK    6  A    between atoms: C_16  and  O_17
REMARK    7  A    between atoms: C_19  and  N_20
REMARK    8  A    between atoms: N_20  and  C_22
REMARK                            x       y       z     vdW  Elec       q    Type
REMARK                         _______ _______ _______ _____ _____    ______ ____
ROOT
ATOM      1  N   UNL     1      34.948 -23.918 -15.454  0.00  0.00    -0.275 N 
ATOM      2  N   UNL     1      36.005 -22.530 -16.820  0.00  0.00    -0.394 NA
ATOM      3  C   UNL     1      34.678 -24.730 -14.272  0.00  0.00    +0.134 C 
ATOM      4  C   UNL     1      35.966 -25.008 -13.463  0.00  0.00    +0.161 C 
ATOM      5  C   UNL     1      36.913 -23.799 -13.379  0.00  0.00    +0.174 C 
ATOM      6  C   UNL     1      37.255 -23.208 -14.753  0.00  0.00    +0.207 C 
ATOM      7  C   UNL     1      36.088 -23.186 -15.680  0.00  0.00    +0.189 C 
ATOM      8  C   UNL     1      34.118 -23.748 -16.524  0.00  0.00    +0.149 C 
ATOM      9  C   UNL     1      34.788 -22.875 -17.349  0.00  0.00    +0.128 C 
ENDROOT
BRANCH   4  10
ATOM     10  O   UNL     1      36.657 -26.115 -14.049  0.00  0.00    -0.380 OA
ATOM     11  H   UNL     1      36.852 -26.774 -13.364  0.00  0.00    +0.211 HD
ENDBRANCH   4  10
BRANCH   5  12
ATOM     12  O   UNL     1      36.321 -22.795 -12.559  0.00  0.00    -0.379 OA
ATOM     13  H   UNL     1      35.879 -22.139 -13.121  0.00  0.00    +0.211 HD
ENDBRANCH   5  12
BRANCH   6  14
ATOM     14  O   UNL     1      38.248 -24.022 -15.372  0.00  0.00    -0.374 OA
ATOM     15  H   UNL     1      38.182 -23.935 -16.337  0.00  0.00    +0.211 HD
ENDBRANCH   6  14
BRANCH   3  16
ATOM     16  C   UNL     1      33.591 -24.074 -13.416  0.00  0.00    +0.159 C 
BRANCH  16  17
ATOM     17  O   UNL     1      32.622 -25.054 -13.099  0.00  0.00    -0.380 OA
ATOM     18  H   UNL     1      32.611 -25.201 -12.141  0.00  0.00    +0.211 HD
ENDBRANCH  16  17
ENDBRANCH   3  16
BRANCH   9  19
ATOM     19  C   UNL     1      34.351 -22.331 -18.643  0.00  0.00    +0.144 C 
BRANCH  19  20
ATOM     20  N   UNL     1      35.393 -21.793 -19.512  0.00  0.00    -0.327 N 
ATOM     21  H   UNL     1      36.232 -22.300 -19.607  0.00  0.00    +0.147 HD
BRANCH  20  22
ATOM     22  C   UNL     1      35.261 -20.610 -20.205  0.00  0.00    +0.045 C 
ATOM     23  C   UNL     1      33.989 -20.104 -20.550  0.00  0.00    +0.014 C 
ATOM     24  C   UNL     1      36.392 -19.861 -20.595  0.00  0.00    +0.014 C 
ATOM     25  C   UNL     1      33.854 -18.907 -21.252  0.00  0.00    +0.001 C 
ATOM     26  C   UNL     1      36.257 -18.663 -21.298  0.00  0.00    +0.001 C 
ATOM     27  C   UNL     1      34.988 -18.186 -21.625  0.00  0.00    +0.000 C 
ENDBRANCH  20  22
ENDBRANCH  19  20
ENDBRANCH   9  19
TORSDOF 8
ENDMDL
MODEL 7
REMARK VINA RESULT:      -8.4      9.053     11.933
REMARK  Name = 5459372
REMARK  8 active torsions:
REMARK  status: ('A' for Active; 'I' for Inactive)
REMARK    1  A    between atoms: C_3  and  C_16
REMARK    2  A    between atoms: C_4  and  O_10
REMARK    3  A    between atoms: C_5  and  O_12
REMARK    4  A    between atoms: C_6  and  O_14
REMARK    5  A    between atoms: C_9  and  C_19
REMARK    6  A    between atoms: C_16  and  O_17
REMARK    7  A    between atoms: C_19  and  N_20
REMARK    8  A    between atoms: N_20  and  C_22
REMARK                            x       y       z     vdW  Elec       q    Type
REMARK                         _______ _______ _______ _____ _____    ______ ____
ROOT
ATOM      1  N   UNL     1      34.406 -16.409 -23.447  0.00  0.00    -0.275 N 
ATOM      2  N   UNL     1      33.344 -15.160 -21.956  0.00  0.00    -0.394 NA
ATOM      3  C   UNL     1      35.119 -17.549 -24.016  0.00  0.00    +0.134 C 
ATOM      4  C   UNL     1      35.725 -18.450 -22.916  0.00  0.00    +0.161 C 
ATOM      5  C   UNL     1      34.808 -18.635 -21.695  0.00  0.00    +0.174 C 
ATOM      6  C   UNL     1      34.327 -17.304 -21.100  0.00  0.00    +0.207 C 
ATOM      7  C   UNL     1      33.999 -16.290 -22.141  0.00  0.00    +0.189 C 
ATOM      8  C   UNL     1      34.024 -15.281 -24.113  0.00  0.00    +0.149 C 
ATOM      9  C   UNL     1      33.357 -14.530 -23.173  0.00  0.00    +0.128 C 
ENDROOT
BRANCH   4  10
ATOM     10  O   UNL     1      36.974 -17.896 -22.493  0.00  0.00    -0.380 OA
ATOM     11  H   UNL     1      36.812 -17.119 -21.936  0.00  0.00    +0.211 HD
ENDBRANCH   4  10
BRANCH   5  12
ATOM     12  O   UNL     1      33.683 -19.426 -22.069  0.00  0.00    -0.379 OA
ATOM     13  H   UNL     1      33.971 -20.133 -22.668  0.00  0.00    +0.211 HD
ENDBRANCH   5  12
BRANCH   6  14
ATOM     14  O   UNL     1      35.373 -16.748 -20.308  0.00  0.00    -0.374 OA
ATOM     15  H   UNL     1      35.955 -16.212 -20.870  0.00  0.00    +0.211 HD
ENDBRANCH   6  14
BRANCH   3  16
ATOM     16  C   UNL     1      34.200 -18.331 -24.959  0.00  0.00    +0.159 C 
BRANCH  16  17
ATOM     17  O   UNL     1      34.596 -19.688 -24.941  0.00  0.00    -0.380 OA
ATOM     18  H   UNL     1      34.239 -20.140 -25.721  0.00  0.00    +0.211 HD
ENDBRANCH  16  17
ENDBRANCH   3  16
BRANCH   9  19
ATOM     19  C   UNL     1      32.717 -13.218 -23.346  0.00  0.00    +0.144 C 
BRANCH  19  20
ATOM     20  N   UNL     1      31.659 -12.878 -22.399  0.00  0.00    -0.327 N 
ATOM     21  H   UNL     1      30.866 -13.460 -22.353  0.00  0.00    +0.147 HD
BRANCH  20  22
ATOM     22  C   UNL     1      31.717 -11.782 -21.567  0.00  0.00    +0.045 C 
ATOM     23  C   UNL     1      31.626 -11.924 -20.165  0.00  0.00    +0.014 C 
ATOM     24  C   UNL     1      31.868 -10.477 -22.085  0.00  0.00    +0.014 C 
ATOM     25  C   UNL     1      31.684 -10.815 -19.322  0.00  0.00    +0.001 C 
ATOM     26  C   UNL     1      31.926  -9.367 -21.241  0.00  0.00    +0.001 C 
ATOM     27  C   UNL     1      31.835  -9.537 -19.860  0.00  0.00    +0.000 C 
ENDBRANCH  20  22
ENDBRANCH  19  20
ENDBRANCH   9  19
TORSDOF 8
ENDMDL
MODEL 8
REMARK VINA RESULT:      -8.4      1.974      3.347
REMARK  Name = 5459372
REMARK  8 active torsions:
REMARK  status: ('A' for Active; 'I' for Inactive)
REMARK    1  A    between atoms: C_3  and  C_16
REMARK    2  A    between atoms: C_4  and  O_10
REMARK    3  A    between atoms: C_5  and  O_12
REMARK    4  A    between atoms: C_6  and  O_14
REMARK    5  A    between atoms: C_9  and  C_19
REMARK    6  A    between atoms: C_16  and  O_17
REMARK    7  A    between atoms: C_19  and  N_20
REMARK    8  A    between atoms: N_20  and  C_22
REMARK                            x       y       z     vdW  Elec       q    Type
REMARK                         _______ _______ _______ _____ _____    ______ ____
ROOT
ATOM      1  N   UNL     1      36.963 -23.131 -15.255  0.00  0.00    -0.275 N 
ATOM      2  N   UNL     1      35.463 -22.797 -16.852  0.00  0.00    -0.394 NA
ATOM      3  C   UNL     1      37.558 -23.645 -14.025  0.00  0.00    +0.134 C 
ATOM      4  C   UNL     1      36.482 -24.161 -13.043  0.00  0.00    +0.161 C 
ATOM      5  C   UNL     1      35.334 -24.921 -13.729  0.00  0.00    +0.174 C 
ATOM      6  C   UNL     1      34.687 -24.124 -14.870  0.00  0.00    +0.207 C 
ATOM      7  C   UNL     1      35.679 -23.366 -15.683  0.00  0.00    +0.189 C 
ATOM      8  C   UNL     1      37.579 -22.341 -16.182  0.00  0.00    +0.149 C 
ATOM      9  C   UNL     1      36.636 -22.159 -17.166  0.00  0.00    +0.128 C 
ENDROOT
BRANCH   4  10
ATOM     10  O   UNL     1      35.950 -23.056 -12.308  0.00  0.00    -0.380 OA
ATOM     11  H   UNL     1      35.418 -23.386 -11.567  0.00  0.00    +0.211 HD
ENDBRANCH   4  10
BRANCH   5  12
ATOM     12  O   UNL     1      35.826 -26.161 -14.230  0.00  0.00    -0.379 OA
ATOM     13  H   UNL     1      36.082 -26.055 -15.159  0.00  0.00    +0.211 HD
ENDBRANCH   5  12
BRANCH   6  14
ATOM     14  O   UNL     1      33.798 -23.159 -14.313  0.00  0.00    -0.374 OA
ATOM     15  H   UNL     1      33.859 -22.333 -14.819  0.00  0.00    +0.211 HD
ENDBRANCH   6  14
BRANCH   3  16
ATOM     16  C   UNL     1      38.604 -24.716 -14.350  0.00  0.00    +0.159 C 
BRANCH  16  17
ATOM     17  O   UNL     1      38.147 -25.461 -15.461  0.00  0.00    -0.380 OA
ATOM     18  H   UNL     1      37.248 -25.783 -15.287  0.00  0.00    +0.211 HD
ENDBRANCH  16  17
ENDBRANCH   3  16
BRANCH   9  19
ATOM     19  C   UNL     1      36.764 -21.398 -18.418  0.00  0.00    +0.144 C 
BRANCH  19  20
ATOM     20  N   UNL     1      35.607 -21.405 -19.308  0.00  0.00    -0.327 N 
ATOM     21  H   UNL     1      34.975 -22.158 -19.250  0.00  0.00    +0.147 HD
BRANCH  20  22
ATOM     22  C   UNL     1      35.356 -20.408 -20.225  0.00  0.00    +0.045 C 
ATOM     23  C   UNL     1      36.394 -19.589 -20.717  0.00  0.00    +0.014 C 
ATOM     24  C   UNL     1      34.049 -20.170 -20.705  0.00  0.00    +0.014 C 
ATOM     25  C   UNL     1      36.140 -18.580 -21.645  0.00  0.00    +0.001 C 
ATOM     26  C   UNL     1      33.795 -19.160 -21.634  0.00  0.00    +0.001 C 
ATOM     27  C   UNL     1      34.841 -18.366 -22.104  0.00  0.00    +0.000 C 
ENDBRANCH  20  22
ENDBRANCH  19  20
ENDBRANCH   9  19
TORSDOF 8
ENDMDL
MODEL 9
REMARK VINA RESULT:      -8.4      3.847      5.156
REMARK  Name = 5459372
REMARK  8 active torsions:
REMARK  status: ('A' for Active; 'I' for Inactive)
REMARK    1  A    between atoms: C_3  and  C_16
REMARK    2  A    between atoms: C_4  and  O_10
REMARK    3  A    between atoms: C_5  and  O_12
REMARK    4  A    between atoms: C_6  and  O_14
REMARK    5  A    between atoms: C_9  and  C_19
REMARK    6  A    between atoms: C_16  and  O_17
REMARK    7  A    between atoms: C_19  and  N_20
REMARK    8  A    between atoms: N_20  and  C_22
REMARK                            x       y       z     vdW  Elec       q    Type
REMARK                         _______ _______ _______ _____ _____    ______ ____
ROOT
ATOM      1  N   UNL     1      31.212 -23.575 -15.951  0.00  0.00    -0.275 N 
ATOM      2  N   UNL     1      33.427 -23.522 -15.895  0.00  0.00    -0.394 NA
ATOM      3  C   UNL     1      29.838 -23.763 -15.496  0.00  0.00    +0.134 C 
ATOM      4  C   UNL     1      29.770 -24.663 -14.241  0.00  0.00    +0.161 C 
ATOM      5  C   UNL     1      30.896 -24.393 -13.228  0.00  0.00    +0.174 C 
ATOM      6  C   UNL     1      32.294 -24.448 -13.858  0.00  0.00    +0.207 C 
ATOM      7  C   UNL     1      32.342 -23.837 -15.216  0.00  0.00    +0.189 C 
ATOM      8  C   UNL     1      31.602 -23.105 -17.172  0.00  0.00    +0.149 C 
ATOM      9  C   UNL     1      32.975 -23.069 -17.109  0.00  0.00    +0.128 C 
ENDROOT
BRANCH   4  10
ATOM     10  O   UNL     1      29.811 -26.034 -14.644  0.00  0.00    -0.380 OA
ATOM     11  H   UNL     1      29.572 -26.600 -13.893  0.00  0.00    +0.211 HD
ENDBRANCH   4  10
BRANCH   5  12
ATOM     12  O   UNL     1      30.691 -23.117 -12.628  0.00  0.00    -0.379 OA
ATOM     13  H   UNL     1      30.153 -22.566 -13.217  0.00  0.00    +0.211 HD
ENDBRANCH   5  12
BRANCH   6  14
ATOM     14  O   UNL     1      32.677 -25.812 -14.014  0.00  0.00    -0.374 OA
ATOM     15  H   UNL     1      32.189 -26.203 -14.756  0.00  0.00    +0.211 HD
ENDBRANCH   6  14
BRANCH   3  16
ATOM     16  C   UNL     1      29.164 -22.407 -15.270  0.00  0.00    +0.159 C 
BRANCH  16  17
ATOM     17  O   UNL     1      28.447 -22.066 -16.440  0.00  0.00    -0.380 OA
ATOM     18  H   UNL     1      28.758 -22.611 -17.180  0.00  0.00    +0.211 HD
ENDBRANCH  16  17
ENDBRANCH   3  16
BRANCH   9  19
ATOM     19  C   UNL     1      33.921 -22.629 -18.145  0.00  0.00    +0.144 C 
BRANCH  19  20
ATOM     20  N   UNL     1      33.343 -22.095 -19.373  0.00  0.00    -0.327 N 
ATOM     21  H   UNL     1      32.562 -22.552 -19.761  0.00  0.00    +0.147 HD
BRANCH  20  22
ATOM     22  C   UNL     1      33.836 -20.981 -20.017  0.00  0.00    +0.045 C 
ATOM     23  C   UNL     1      32.971 -19.992 -20.532  0.00  0.00    +0.014 C 
ATOM     24  C   UNL     1      35.225 -20.790 -20.185  0.00  0.00    +0.014 C 
ATOM     25  C   UNL     1      33.470 -18.864 -21.183  0.00  0.00    +0.001 C 
ATOM     26  C   UNL     1      35.725 -19.662 -20.837  0.00  0.00    +0.001 C 
ATOM     27  C   UNL     1      34.847 -18.699 -21.335  0.00  0.00    +0.000 C 
ENDBRANCH  20  22
ENDBRANCH  19  20
ENDBRANCH   9  19
TORSDOF 8
ENDMDL
