MODEL 1
REMARK VINA RESULT:      -9.6      0.000      0.000
REMARK  Name = 5164
REMARK  3 active torsions:
REMARK  status: ('A' for Active; 'I' for Inactive)
REMARK    1  A    between atoms: N_1  and  C_16
REMARK    2  A    between atoms: C_3  and  C_9
REMARK    3  A    between atoms: C_5  and  C_24
REMARK                            x       y       z     vdW  Elec       q    Type
REMARK                         _______ _______ _______ _____ _____    ______ ____
ROOT
ATOM      1  N   UNL     1      34.551 -24.361 -14.007  0.00  0.00    -0.244 NA
ATOM      2  N   UNL     1      32.557 -24.651 -13.078  0.00  0.00    -0.255 NA
ATOM      3  C   UNL     1      33.644 -23.933 -14.934  0.00  0.00    +0.153 C 
ATOM      4  C   UNL     1      33.854 -24.783 -12.911  0.00  0.00    +0.201 C 
ATOM      5  C   UNL     1      32.419 -24.122 -14.337  0.00  0.00    +0.077 C 
ENDROOT
BRANCH   3   9
ATOM      6  N   UNL     1      35.234 -22.859 -16.288  0.00  0.00    -0.340 NA
ATOM      7  N   UNL     1      34.828 -22.383 -18.615  0.00  0.00    -0.170 NA
ATOM      8  N   UNL     1      36.855 -21.782 -17.598  0.00  0.00    -0.293 N 
ATOM      9  C   UNL     1      34.007 -23.410 -16.230  0.00  0.00    +0.143 C 
ATOM     10  C   UNL     1      33.142 -23.488 -17.299  0.00  0.00    +0.052 C 
ATOM     11  C   UNL     1      33.612 -22.952 -18.480  0.00  0.00    +0.114 C 
ATOM     12  C   UNL     1      35.576 -22.370 -17.495  0.00  0.00    +0.141 C 
ATOM     13  H   UNL     1      37.445 -21.745 -16.810  0.00  0.00    +0.155 HD
ATOM     14  H   UNL     1      37.158 -21.408 -18.457  0.00  0.00    +0.155 HD
ENDBRANCH   3   9
BRANCH   1  16
ATOM     15  N   UNL     1      38.683 -25.391 -13.525  0.00  0.00    +0.384 N 
ATOM     16  C   UNL     1      36.011 -24.377 -14.137  0.00  0.00    +0.056 C 
ATOM     17  C   UNL     1      36.541 -25.693 -14.726  0.00  0.00    -0.007 C 
ATOM     18  C   UNL     1      36.728 -24.051 -12.816  0.00  0.00    -0.007 C 
ATOM     19  C   UNL     1      38.066 -25.673 -14.823  0.00  0.00    -0.080 C 
ATOM     20  C   UNL     1      38.245 -24.099 -12.993  0.00  0.00    -0.080 C 
ATOM     21  H   UNL     1      39.696 -25.377 -13.637  0.00  0.00    -0.085 HD
ATOM     22  H   UNL     1      38.399 -26.120 -12.871  0.00  0.00    -0.085 HD
ENDBRANCH   1  16
BRANCH   5  24
ATOM     23  F   UNL     1      27.484 -22.938 -16.621  0.00  0.00    -0.204 F 
ATOM     24  C   UNL     1      31.149 -23.817 -14.926  0.00  0.00    +0.015 C 
ATOM     25  C   UNL     1      30.401 -24.825 -15.537  0.00  0.00    +0.004 C 
ATOM     26  C   UNL     1      30.656 -22.512 -14.890  0.00  0.00    +0.004 C 
ATOM     27  C   UNL     1      29.163 -24.527 -16.110  0.00  0.00    +0.030 C 
ATOM     28  C   UNL     1      29.419 -22.214 -15.462  0.00  0.00    +0.030 C 
ATOM     29  C   UNL     1      28.672 -23.223 -16.072  0.00  0.00    +0.140 C 
ENDBRANCH   5  24
TORSDOF 3
ENDMDL
MODEL 2
REMARK VINA RESULT:      -9.4      9.515     12.524
REMARK  Name = 5164
REMARK  3 active torsions:
REMARK  status: ('A' for Active; 'I' for Inactive)
REMARK    1  A    between atoms: N_1  and  C_16
REMARK    2  A    between atoms: C_3  and  C_9
REMARK    3  A    between atoms: C_5  and  C_24
REMARK                            x       y       z     vdW  Elec       q    Type
REMARK                         _______ _______ _______ _____ _____    ______ ____
ROOT
ATOM      1  N   UNL     1      32.859 -13.931 -21.816  0.00  0.00    -0.244 NA
ATOM      2  N   UNL     1      33.144 -15.193 -20.013  0.00  0.00    -0.255 NA
ATOM      3  C   UNL     1      33.363 -15.117 -22.268  0.00  0.00    +0.153 C 
ATOM      4  C   UNL     1      32.745 -14.022 -20.458  0.00  0.00    +0.201 C 
ATOM      5  C   UNL     1      33.531 -15.880 -21.136  0.00  0.00    +0.077 C 
ENDROOT
BRANCH   3   9
ATOM      6  N   UNL     1      32.831 -14.737 -24.523  0.00  0.00    -0.340 NA
ATOM      7  N   UNL     1      34.001 -15.834 -26.322  0.00  0.00    -0.170 NA
ATOM      8  N   UNL     1      32.260 -14.323 -26.761  0.00  0.00    -0.293 N 
ATOM      9  C   UNL     1      33.624 -15.400 -23.660  0.00  0.00    +0.143 C 
ATOM     10  C   UNL     1      34.611 -16.282 -24.037  0.00  0.00    +0.052 C 
ATOM     11  C   UNL     1      34.757 -16.461 -25.397  0.00  0.00    +0.114 C 
ATOM     12  C   UNL     1      33.070 -14.998 -25.823  0.00  0.00    +0.141 C 
ATOM     13  H   UNL     1      31.564 -13.699 -26.452  0.00  0.00    +0.155 HD
ATOM     14  H   UNL     1      32.391 -14.476 -27.725  0.00  0.00    +0.155 HD
ENDBRANCH   3   9
BRANCH   1  16
ATOM     15  N   UNL     1      32.519  -9.901 -23.234  0.00  0.00    +0.384 N 
ATOM     16  C   UNL     1      32.498 -12.758 -22.617  0.00  0.00    +0.056 C 
ATOM     17  C   UNL     1      33.719 -12.064 -23.240  0.00  0.00    -0.007 C 
ATOM     18  C   UNL     1      31.644 -11.746 -21.836  0.00  0.00    -0.007 C 
ATOM     19  C   UNL     1      33.298 -10.837 -24.047  0.00  0.00    -0.080 C 
ATOM     20  C   UNL     1      31.309 -10.532 -22.702  0.00  0.00    -0.080 C 
ATOM     21  H   UNL     1      32.251  -9.105 -23.811  0.00  0.00    -0.085 HD
ATOM     22  H   UNL     1      33.096  -9.603 -22.448  0.00  0.00    -0.085 HD
ENDBRANCH   1  16
BRANCH   5  24
ATOM     23  F   UNL     1      35.508 -21.081 -21.002  0.00  0.00    -0.204 F 
ATOM     24  C   UNL     1      34.040 -17.218 -21.101  0.00  0.00    +0.015 C 
ATOM     25  C   UNL     1      33.159 -18.302 -21.061  0.00  0.00    +0.004 C 
ATOM     26  C   UNL     1      35.417 -17.444 -21.106  0.00  0.00    +0.004 C 
ATOM     27  C   UNL     1      33.656 -19.605 -21.028  0.00  0.00    +0.030 C 
ATOM     28  C   UNL     1      35.914 -18.747 -21.073  0.00  0.00    +0.030 C 
ATOM     29  C   UNL     1      35.032 -19.829 -21.034  0.00  0.00    +0.140 C 
ENDBRANCH   5  24
TORSDOF 3
ENDMDL
MODEL 3
REMARK VINA RESULT:      -9.3     13.184     15.432
REMARK  Name = 5164
REMARK  3 active torsions:
REMARK  status: ('A' for Active; 'I' for Inactive)
REMARK    1  A    between atoms: N_1  and  C_16
REMARK    2  A    between atoms: C_3  and  C_9
REMARK    3  A    between atoms: C_5  and  C_24
REMARK                            x       y       z     vdW  Elec       q    Type
REMARK                         _______ _______ _______ _____ _____    ______ ____
ROOT
ATOM      1  N   UNL     1      33.020 -12.861 -22.935  0.00  0.00    -0.244 NA
ATOM      2  N   UNL     1      31.554 -11.834 -21.625  0.00  0.00    -0.255 NA
ATOM      3  C   UNL     1      33.090 -11.538 -23.266  0.00  0.00    +0.153 C 
ATOM      4  C   UNL     1      32.086 -12.992 -21.948  0.00  0.00    +0.201 C 
ATOM      5  C   UNL     1      32.175 -10.924 -22.443  0.00  0.00    +0.077 C 
ENDROOT
BRANCH   3   9
ATOM      6  N   UNL     1      34.025 -11.735 -25.410  0.00  0.00    -0.340 NA
ATOM      7  N   UNL     1      35.600 -10.130 -26.277  0.00  0.00    -0.170 NA
ATOM      8  N   UNL     1      34.933 -11.977 -27.561  0.00  0.00    -0.293 N 
ATOM      9  C   UNL     1      33.974 -11.009 -24.278  0.00  0.00    +0.143 C 
ATOM     10  C   UNL     1      34.690  -9.852 -24.066  0.00  0.00    +0.052 C 
ATOM     11  C   UNL     1      35.496  -9.455 -25.114  0.00  0.00    +0.114 C 
ATOM     12  C   UNL     1      34.849 -11.245 -26.357  0.00  0.00    +0.141 C 
ATOM     13  H   UNL     1      34.405 -12.800 -27.674  0.00  0.00    +0.155 HD
ATOM     14  H   UNL     1      35.520 -11.665 -28.288  0.00  0.00    +0.155 HD
ENDBRANCH   3   9
BRANCH   1  16
ATOM     15  N   UNL     1      34.281 -16.775 -24.144  0.00  0.00    +0.384 N 
ATOM     16  C   UNL     1      33.794 -13.962 -23.518  0.00  0.00    +0.056 C 
ATOM     17  C   UNL     1      33.036 -14.695 -24.636  0.00  0.00    -0.007 C 
ATOM     18  C   UNL     1      34.291 -14.962 -22.461  0.00  0.00    -0.007 C 
ATOM     19  C   UNL     1      33.870 -15.846 -25.198  0.00  0.00    -0.080 C 
ATOM     20  C   UNL     1      35.073 -16.101 -23.113  0.00  0.00    -0.080 C 
ATOM     21  H   UNL     1      34.841 -17.519 -24.559  0.00  0.00    -0.085 HD
ATOM     22  H   UNL     1      33.441 -17.153 -23.706  0.00  0.00    -0.085 HD
ENDBRANCH   1  16
BRANCH   5  24
ATOM     23  F   UNL     1      31.053  -5.474 -22.348  0.00  0.00    -0.204 F 
ATOM     24  C   UNL     1      31.885  -9.521 -22.418  0.00  0.00    +0.015 C 
ATOM     25  C   UNL     1      32.302  -8.739 -21.338  0.00  0.00    +0.004 C 
ATOM     26  C   UNL     1      31.187  -8.931 -23.473  0.00  0.00    +0.004 C 
ATOM     27  C   UNL     1      32.020  -7.373 -21.315  0.00  0.00    +0.030 C 
ATOM     28  C   UNL     1      30.906  -7.566 -23.450  0.00  0.00    +0.030 C 
ATOM     29  C   UNL     1      31.323  -6.786 -22.371  0.00  0.00    +0.140 C 
ENDBRANCH   5  24
TORSDOF 3
ENDMDL
MODEL 4
REMARK VINA RESULT:      -9.2     13.011     15.760
REMARK  Name = 5164
REMARK  3 active torsions:
REMARK  status: ('A' for Active; 'I' for Inactive)
REMARK    1  A    between atoms: N_1  and  C_16
REMARK    2  A    between atoms: C_3  and  C_9
REMARK    3  A    between atoms: C_5  and  C_24
REMARK                            x       y       z     vdW  Elec       q    Type
REMARK                         _______ _______ _______ _____ _____    ______ ____
ROOT
ATOM      1  N   UNL     1      32.351 -10.719 -22.626  0.00  0.00    -0.244 NA
ATOM      2  N   UNL     1      31.894 -12.787 -21.963  0.00  0.00    -0.255 NA
ATOM      3  C   UNL     1      33.127 -11.537 -23.397  0.00  0.00    +0.153 C 
ATOM      4  C   UNL     1      31.630 -11.512 -21.780  0.00  0.00    +0.201 C 
ATOM      5  C   UNL     1      32.827 -12.809 -22.970  0.00  0.00    +0.077 C 
ENDROOT
BRANCH   3   9
ATOM      6  N   UNL     1      34.054 -11.801 -25.539  0.00  0.00    -0.340 NA
ATOM      7  N   UNL     1      35.691 -10.271 -26.427  0.00  0.00    -0.170 NA
ATOM      8  N   UNL     1      34.952 -12.109 -27.684  0.00  0.00    -0.293 N 
ATOM      9  C   UNL     1      34.031 -11.057 -24.416  0.00  0.00    +0.143 C 
ATOM     10  C   UNL     1      34.792  -9.926 -24.221  0.00  0.00    +0.052 C 
ATOM     11  C   UNL     1      35.613  -9.577 -25.273  0.00  0.00    +0.114 C 
ATOM     12  C   UNL     1      34.897 -11.357 -26.491  0.00  0.00    +0.141 C 
ATOM     13  H   UNL     1      34.392 -12.912 -27.787  0.00  0.00    +0.155 HD
ATOM     14  H   UNL     1      35.551 -11.830 -28.415  0.00  0.00    +0.155 HD
ENDBRANCH   3   9
BRANCH   1  16
ATOM     15  N   UNL     1      31.026  -6.673 -22.138  0.00  0.00    +0.384 N 
ATOM     16  C   UNL     1      32.285  -9.255 -22.673  0.00  0.00    +0.056 C 
ATOM     17  C   UNL     1      32.294  -8.614 -21.277  0.00  0.00    -0.007 C 
ATOM     18  C   UNL     1      31.091  -8.742 -23.494  0.00  0.00    -0.007 C 
ATOM     19  C   UNL     1      32.202  -7.092 -21.374  0.00  0.00    -0.080 C 
ATOM     20  C   UNL     1      31.049  -7.214 -23.498  0.00  0.00    -0.080 C 
ATOM     21  H   UNL     1      31.008  -5.655 -22.187  0.00  0.00    -0.085 HD
ATOM     22  H   UNL     1      30.195  -7.029 -21.667  0.00  0.00    -0.085 HD
ENDBRANCH   1  16
BRANCH   5  24
ATOM     23  F   UNL     1      35.035 -17.507 -24.975  0.00  0.00    -0.204 F 
ATOM     24  C   UNL     1      33.396 -14.018 -23.486  0.00  0.00    +0.015 C 
ATOM     25  C   UNL     1      34.360 -14.709 -22.749  0.00  0.00    +0.004 C 
ATOM     26  C   UNL     1      32.988 -14.509 -24.728  0.00  0.00    +0.004 C 
ATOM     27  C   UNL     1      34.913 -15.887 -23.253  0.00  0.00    +0.030 C 
ATOM     28  C   UNL     1      33.540 -15.687 -25.231  0.00  0.00    +0.030 C 
ATOM     29  C   UNL     1      34.503 -16.376 -24.492  0.00  0.00    +0.140 C 
ENDBRANCH   5  24
TORSDOF 3
ENDMDL
MODEL 5
REMARK VINA RESULT:      -9.1     13.362     15.544
REMARK  Name = 5164
REMARK  3 active torsions:
REMARK  status: ('A' for Active; 'I' for Inactive)
REMARK    1  A    between atoms: N_1  and  C_16
REMARK    2  A    between atoms: C_3  and  C_9
REMARK    3  A    between atoms: C_5  and  C_24
REMARK                            x       y       z     vdW  Elec       q    Type
REMARK                         _______ _______ _______ _____ _____    ______ ____
ROOT
ATOM      1  N   UNL     1      32.252 -12.260 -22.083  0.00  0.00    -0.244 NA
ATOM      2  N   UNL     1      31.170 -10.614 -21.062  0.00  0.00    -0.255 NA
ATOM      3  C   UNL     1      32.537 -11.131 -22.795  0.00  0.00    +0.153 C 
ATOM      4  C   UNL     1      31.429 -11.903 -21.054  0.00  0.00    +0.201 C 
ATOM      5  C   UNL     1      31.858 -10.127 -22.145  0.00  0.00    +0.077 C 
ENDROOT
BRANCH   3   9
ATOM      6  N   UNL     1      33.038 -11.990 -24.922  0.00  0.00    -0.340 NA
ATOM      7  N   UNL     1      34.897 -11.187 -26.228  0.00  0.00    -0.170 NA
ATOM      8  N   UNL     1      33.496 -12.884 -27.043  0.00  0.00    -0.293 N 
ATOM      9  C   UNL     1      33.386 -11.112 -23.964  0.00  0.00    +0.143 C 
ATOM     10  C   UNL     1      34.456 -10.250 -24.055  0.00  0.00    +0.052 C 
ATOM     11  C   UNL     1      35.184 -10.333 -25.224  0.00  0.00    +0.114 C 
ATOM     12  C   UNL     1      33.827 -11.976 -26.014  0.00  0.00    +0.141 C 
ATOM     13  H   UNL     1      32.723 -13.484 -26.941  0.00  0.00    +0.155 HD
ATOM     14  H   UNL     1      34.039 -12.916 -27.865  0.00  0.00    +0.155 HD
ENDBRANCH   3   9
BRANCH   1  16
ATOM     15  N   UNL     1      34.347 -15.988 -21.786  0.00  0.00    +0.384 N 
ATOM     16  C   UNL     1      32.728 -13.621 -22.351  0.00  0.00    +0.056 C 
ATOM     17  C   UNL     1      32.371 -14.608 -21.228  0.00  0.00    -0.007 C 
ATOM     18  C   UNL     1      34.233 -13.675 -22.657  0.00  0.00    -0.007 C 
ATOM     19  C   UNL     1      32.904 -16.005 -21.538  0.00  0.00    -0.080 C 
ATOM     20  C   UNL     1      34.688 -15.112 -22.908  0.00  0.00    -0.080 C 
ATOM     21  H   UNL     1      34.658 -16.935 -21.999  0.00  0.00    -0.085 HD
ATOM     22  H   UNL     1      34.810 -15.631 -20.950  0.00  0.00    -0.085 HD
ENDBRANCH   1  16
BRANCH   5  24
ATOM     23  F   UNL     1      31.826  -4.760 -23.618  0.00  0.00    -0.204 F 
ATOM     24  C   UNL     1      31.849  -8.746 -22.524  0.00  0.00    +0.015 C 
ATOM     25  C   UNL     1      32.569  -7.810 -21.778  0.00  0.00    +0.004 C 
ATOM     26  C   UNL     1      31.121  -8.330 -23.640  0.00  0.00    +0.004 C 
ATOM     27  C   UNL     1      32.561  -6.465 -22.148  0.00  0.00    +0.030 C 
ATOM     28  C   UNL     1      31.112  -6.985 -24.010  0.00  0.00    +0.030 C 
ATOM     29  C   UNL     1      31.834  -6.052 -23.264  0.00  0.00    +0.140 C 
ENDBRANCH   5  24
TORSDOF 3
ENDMDL
MODEL 6
REMARK VINA RESULT:      -8.9      8.918     12.430
REMARK  Name = 5164
REMARK  3 active torsions:
REMARK  status: ('A' for Active; 'I' for Inactive)
REMARK    1  A    between atoms: N_1  and  C_16
REMARK    2  A    between atoms: C_3  and  C_9
REMARK    3  A    between atoms: C_5  and  C_24
REMARK                            x       y       z     vdW  Elec       q    Type
REMARK                         _______ _______ _______ _____ _____    ______ ____
ROOT
ATOM      1  N   UNL     1      33.951 -16.037 -24.731  0.00  0.00    -0.244 NA
ATOM      2  N   UNL     1      34.776 -18.094 -24.838  0.00  0.00    -0.255 NA
ATOM      3  C   UNL     1      34.131 -16.434 -23.436  0.00  0.00    +0.153 C 
ATOM      4  C   UNL     1      34.351 -17.065 -25.537  0.00  0.00    +0.201 C 
ATOM      5  C   UNL     1      34.641 -17.707 -23.528  0.00  0.00    +0.077 C 
ENDROOT
BRANCH   3   9
ATOM      6  N   UNL     1      32.830 -14.717 -22.500  0.00  0.00    -0.340 NA
ATOM      7  N   UNL     1      33.120 -13.981 -20.224  0.00  0.00    -0.170 NA
ATOM      8  N   UNL     1      31.505 -12.996 -21.612  0.00  0.00    -0.293 N 
ATOM      9  C   UNL     1      33.818 -15.608 -22.294  0.00  0.00    +0.143 C 
ATOM     10  C   UNL     1      34.498 -15.748 -21.104  0.00  0.00    +0.052 C 
ATOM     11  C   UNL     1      34.101 -14.898 -20.092  0.00  0.00    +0.114 C 
ATOM     12  C   UNL     1      32.536 -13.944 -21.437  0.00  0.00    +0.141 C 
ATOM     13  H   UNL     1      31.042 -12.926 -22.478  0.00  0.00    +0.155 HD
ATOM     14  H   UNL     1      31.248 -12.405 -20.868  0.00  0.00    +0.155 HD
ENDBRANCH   3   9
BRANCH   1  16
ATOM     15  N   UNL     1      33.593 -12.242 -26.689  0.00  0.00    +0.384 N 
ATOM     16  C   UNL     1      33.427 -14.751 -25.200  0.00  0.00    +0.056 C 
ATOM     17  C   UNL     1      33.271 -14.694 -26.728  0.00  0.00    -0.007 C 
ATOM     18  C   UNL     1      34.251 -13.555 -24.698  0.00  0.00    -0.007 C 
ATOM     19  C   UNL     1      32.743 -13.331 -27.172  0.00  0.00    -0.080 C 
ATOM     20  C   UNL     1      33.682 -12.239 -25.227  0.00  0.00    -0.080 C 
ATOM     21  H   UNL     1      33.201 -11.353 -26.998  0.00  0.00    -0.085 HD
ATOM     22  H   UNL     1      34.531 -12.377 -27.066  0.00  0.00    -0.085 HD
ENDBRANCH   1  16
BRANCH   5  24
ATOM     23  F   UNL     1      36.018 -20.966 -19.232  0.00  0.00    -0.204 F 
ATOM     24  C   UNL     1      34.996 -18.545 -22.422  0.00  0.00    +0.015 C 
ATOM     25  C   UNL     1      34.028 -19.347 -21.813  0.00  0.00    +0.004 C 
ATOM     26  C   UNL     1      36.309 -18.564 -21.950  0.00  0.00    +0.004 C 
ATOM     27  C   UNL     1      34.374 -20.164 -20.736  0.00  0.00    +0.030 C 
ATOM     28  C   UNL     1      36.655 -19.381 -20.874  0.00  0.00    +0.030 C 
ATOM     29  C   UNL     1      35.687 -20.181 -20.266  0.00  0.00    +0.140 C 
ENDBRANCH   5  24
TORSDOF 3
ENDMDL
MODEL 7
REMARK VINA RESULT:      -8.6      9.828     12.165
REMARK  Name = 5164
REMARK  3 active torsions:
REMARK  status: ('A' for Active; 'I' for Inactive)
REMARK    1  A    between atoms: N_1  and  C_16
REMARK    2  A    between atoms: C_3  and  C_9
REMARK    3  A    between atoms: C_5  and  C_24
REMARK                            x       y       z     vdW  Elec       q    Type
REMARK                         _______ _______ _______ _____ _____    ______ ____
ROOT
ATOM      1  N   UNL     1      33.498 -16.026 -21.307  0.00  0.00    -0.244 NA
ATOM      2  N   UNL     1      32.862 -14.164 -20.282  0.00  0.00    -0.255 NA
ATOM      3  C   UNL     1      33.381 -15.083 -22.288  0.00  0.00    +0.153 C 
ATOM      4  C   UNL     1      33.177 -15.430 -20.121  0.00  0.00    +0.201 C 
ATOM      5  C   UNL     1      32.987 -13.942 -21.630  0.00  0.00    +0.077 C 
ENDROOT
BRANCH   3   9
ATOM      6  N   UNL     1      32.808 -14.715 -24.535  0.00  0.00    -0.340 NA
ATOM      7  N   UNL     1      34.015 -15.737 -26.353  0.00  0.00    -0.170 NA
ATOM      8  N   UNL     1      32.195 -14.315 -26.765  0.00  0.00    -0.293 N 
ATOM      9  C   UNL     1      33.642 -15.342 -23.685  0.00  0.00    +0.143 C 
ATOM     10  C   UNL     1      34.670 -16.170 -24.078  0.00  0.00    +0.052 C 
ATOM     11  C   UNL     1      34.811 -16.332 -25.440  0.00  0.00    +0.114 C 
ATOM     12  C   UNL     1      33.048 -14.954 -25.839  0.00  0.00    +0.141 C 
ATOM     13  H   UNL     1      31.470 -13.730 -26.445  0.00  0.00    +0.155 HD
ATOM     14  H   UNL     1      32.325 -14.454 -27.731  0.00  0.00    +0.155 HD
ENDBRANCH   3   9
BRANCH   1  16
ATOM     15  N   UNL     1      34.743 -20.040 -20.468  0.00  0.00    +0.384 N 
ATOM     16  C   UNL     1      33.893 -17.429 -21.468  0.00  0.00    +0.056 C 
ATOM     17  C   UNL     1      32.917 -18.403 -20.790  0.00  0.00    -0.007 C 
ATOM     18  C   UNL     1      35.333 -17.697 -21.000  0.00  0.00    -0.007 C 
ATOM     19  C   UNL     1      33.379 -19.849 -20.964  0.00  0.00    -0.080 C 
ATOM     20  C   UNL     1      35.694 -19.173 -21.165  0.00  0.00    -0.080 C 
ATOM     21  H   UNL     1      35.014 -21.012 -20.612  0.00  0.00    -0.085 HD
ATOM     22  H   UNL     1      34.759 -19.801 -19.477  0.00  0.00    -0.085 HD
ENDBRANCH   1  16
BRANCH   5  24
ATOM     23  F   UNL     1      32.000  -9.008 -24.009  0.00  0.00    -0.204 F 
ATOM     24  C   UNL     1      32.733 -12.672 -22.243  0.00  0.00    +0.015 C 
ATOM     25  C   UNL     1      31.619 -11.921 -21.861  0.00  0.00    +0.004 C 
ATOM     26  C   UNL     1      33.597 -12.182 -23.223  0.00  0.00    +0.004 C 
ATOM     27  C   UNL     1      31.373 -10.683 -22.458  0.00  0.00    +0.030 C 
ATOM     28  C   UNL     1      33.351 -10.945 -23.820  0.00  0.00    +0.030 C 
ATOM     29  C   UNL     1      32.238 -10.195 -23.436  0.00  0.00    +0.140 C 
ENDBRANCH   5  24
TORSDOF 3
ENDMDL
MODEL 8
REMARK VINA RESULT:      -8.6      3.027      6.225
REMARK  Name = 5164
REMARK  3 active torsions:
REMARK  status: ('A' for Active; 'I' for Inactive)
REMARK    1  A    between atoms: N_1  and  C_16
REMARK    2  A    between atoms: C_3  and  C_9
REMARK    3  A    between atoms: C_5  and  C_24
REMARK                            x       y       z     vdW  Elec       q    Type
REMARK                         _______ _______ _______ _____ _____    ______ ____
ROOT
ATOM      1  N   UNL     1      32.137 -23.327 -16.484  0.00  0.00    -0.244 NA
ATOM      2  N   UNL     1      32.071 -22.131 -18.351  0.00  0.00    -0.255 NA
ATOM      3  C   UNL     1      33.437 -23.046 -16.791  0.00  0.00    +0.153 C 
ATOM      4  C   UNL     1      31.353 -22.760 -17.447  0.00  0.00    +0.201 C 
ATOM      5  C   UNL     1      33.371 -22.306 -17.948  0.00  0.00    +0.077 C 
ENDROOT
BRANCH   3   9
ATOM      6  N   UNL     1      34.805 -24.805 -16.049  0.00  0.00    -0.340 NA
ATOM      7  N   UNL     1      36.655 -24.449 -14.547  0.00  0.00    -0.170 NA
ATOM      8  N   UNL     1      36.141 -26.598 -15.336  0.00  0.00    -0.293 N 
ATOM      9  C   UNL     1      34.562 -23.482 -15.997  0.00  0.00    +0.143 C 
ATOM     10  C   UNL     1      35.304 -22.588 -15.257  0.00  0.00    +0.052 C 
ATOM     11  C   UNL     1      36.351 -23.134 -14.545  0.00  0.00    +0.114 C 
ATOM     12  C   UNL     1      35.853 -25.216 -15.309  0.00  0.00    +0.141 C 
ATOM     13  H   UNL     1      35.587 -27.206 -15.877  0.00  0.00    +0.155 HD
ATOM     14  H   UNL     1      36.896 -26.954 -14.814  0.00  0.00    +0.155 HD
ENDBRANCH   3   9
BRANCH   1  16
ATOM     15  N   UNL     1      29.677 -24.755 -13.278  0.00  0.00    +0.384 N 
ATOM     16  C   UNL     1      31.643 -24.097 -15.338  0.00  0.00    +0.056 C 
ATOM     17  C   UNL     1      30.355 -24.874 -15.653  0.00  0.00    -0.007 C 
ATOM     18  C   UNL     1      31.456 -23.234 -14.079  0.00  0.00    -0.007 C 
ATOM     19  C   UNL     1      29.866 -25.642 -14.427  0.00  0.00    -0.080 C 
ATOM     20  C   UNL     1      30.921 -24.071 -12.918  0.00  0.00    -0.080 C 
ATOM     21  H   UNL     1      29.362 -25.307 -12.481  0.00  0.00    -0.085 HD
ATOM     22  H   UNL     1      28.985 -24.049 -13.528  0.00  0.00    -0.085 HD
ENDBRANCH   1  16
BRANCH   5  24
ATOM     23  F   UNL     1      37.727 -20.234 -20.723  0.00  0.00    -0.204 F 
ATOM     24  C   UNL     1      34.492 -21.773 -18.663  0.00  0.00    +0.015 C 
ATOM     25  C   UNL     1      34.290 -21.004 -19.811  0.00  0.00    +0.004 C 
ATOM     26  C   UNL     1      35.791 -22.021 -18.214  0.00  0.00    +0.004 C 
ATOM     27  C   UNL     1      35.383 -20.484 -20.506  0.00  0.00    +0.030 C 
ATOM     28  C   UNL     1      36.883 -21.502 -18.909  0.00  0.00    +0.030 C 
ATOM     29  C   UNL     1      36.679 -20.732 -20.055  0.00  0.00    +0.140 C 
ENDBRANCH   5  24
TORSDOF 3
ENDMDL
MODEL 9
REMARK VINA RESULT:      -8.6     12.815     14.903
REMARK  Name = 5164
REMARK  3 active torsions:
REMARK  status: ('A' for Active; 'I' for Inactive)
REMARK    1  A    between atoms: N_1  and  C_16
REMARK    2  A    between atoms: C_3  and  C_9
REMARK    3  A    between atoms: C_5  and  C_24
REMARK                            x       y       z     vdW  Elec       q    Type
REMARK                         _______ _______ _______ _____ _____    ______ ____
ROOT
ATOM      1  N   UNL     1      32.392 -12.770 -21.594  0.00  0.00    -0.244 NA
ATOM      2  N   UNL     1      31.540 -11.024 -20.521  0.00  0.00    -0.255 NA
ATOM      3  C   UNL     1      32.534 -11.708 -22.441  0.00  0.00    +0.153 C 
ATOM      4  C   UNL     1      31.791 -12.313 -20.456  0.00  0.00    +0.201 C 
ATOM      5  C   UNL     1      32.001 -10.641 -21.756  0.00  0.00    +0.077 C 
ENDROOT
BRANCH   3   9
ATOM      6  N   UNL     1      34.115 -10.910 -23.983  0.00  0.00    -0.340 NA
ATOM      7  N   UNL     1      34.357 -11.861 -26.184  0.00  0.00    -0.170 NA
ATOM      8  N   UNL     1      35.710 -10.075 -25.489  0.00  0.00    -0.293 N 
ATOM      9  C   UNL     1      33.133 -11.802 -23.752  0.00  0.00    +0.143 C 
ATOM     10  C   UNL     1      32.709 -12.741 -24.665  0.00  0.00    +0.052 C 
ATOM     11  C   UNL     1      33.365 -12.724 -25.879  0.00  0.00    +0.114 C 
ATOM     12  C   UNL     1      34.676 -10.994 -25.205  0.00  0.00    +0.141 C 
ATOM     13  H   UNL     1      35.985  -9.418 -24.809  0.00  0.00    +0.155 HD
ATOM     14  H   UNL     1      36.156 -10.091 -26.367  0.00  0.00    +0.155 HD
ENDBRANCH   3   9
BRANCH   1  16
ATOM     15  N   UNL     1      34.256 -16.608 -21.193  0.00  0.00    +0.384 N 
ATOM     16  C   UNL     1      32.799 -14.157 -21.836  0.00  0.00    +0.056 C 
ATOM     17  C   UNL     1      32.342 -15.113 -20.722  0.00  0.00    -0.007 C 
ATOM     18  C   UNL     1      34.310 -14.299 -22.080  0.00  0.00    -0.007 C 
ATOM     19  C   UNL     1      32.806 -16.542 -21.004  0.00  0.00    -0.080 C 
ATOM     20  C   UNL     1      34.692 -15.761 -22.305  0.00  0.00    -0.080 C 
ATOM     21  H   UNL     1      34.521 -17.573 -21.388  0.00  0.00    -0.085 HD
ATOM     22  H   UNL     1      34.705 -16.272 -20.341  0.00  0.00    -0.085 HD
ENDBRANCH   1  16
BRANCH   5  24
ATOM     23  F   UNL     1      31.693  -5.411 -23.635  0.00  0.00    -0.204 F 
ATOM     24  C   UNL     1      31.923  -9.295 -22.240  0.00  0.00    +0.015 C 
ATOM     25  C   UNL     1      31.045  -8.974 -23.278  0.00  0.00    +0.004 C 
ATOM     26  C   UNL     1      32.723  -8.300 -21.676  0.00  0.00    +0.004 C 
ATOM     27  C   UNL     1      30.968  -7.663 -23.748  0.00  0.00    +0.030 C 
ATOM     28  C   UNL     1      32.646  -6.989 -22.146  0.00  0.00    +0.030 C 
ATOM     29  C   UNL     1      31.767  -6.670 -23.183  0.00  0.00    +0.140 C 
ENDBRANCH   5  24
TORSDOF 3
ENDMDL
