MODEL 1
REMARK VINA RESULT:      -9.6      0.000      0.000
REMARK  Name = 54560057
REMARK  7 active torsions:
REMARK  status: ('A' for Active; 'I' for Inactive)
REMARK    1  A    between atoms: C_1  and  N_2
REMARK    2  A    between atoms: C_1  and  C_6
REMARK    3  A    between atoms: C_1  and  C_17
REMARK    4  A    between atoms: C_7  and  S_8
REMARK    5  A    between atoms: S_8  and  C_11
REMARK    6  A    between atoms: C_17  and  C_18
REMARK    7  A    between atoms: C_18  and  C_19
REMARK                            x       y       z     vdW  Elec       q    Type
REMARK                         _______ _______ _______ _____ _____    ______ ____
ROOT
ATOM      1  C   UNL     1      34.448 -19.015 -21.179  0.00  0.00    -0.041 C 
ENDROOT
BRANCH   1   2
ATOM      2  N   UNL     1      35.768 -18.645 -20.656  0.00  0.00    +0.384 N 
ATOM      3  H   UNL     1      36.440 -19.379 -20.878  0.00  0.00    -0.089 HD
ATOM      4  H   UNL     1      35.712 -18.529 -19.644  0.00  0.00    -0.089 HD
ATOM      5  H   UNL     1      36.069 -17.769 -21.082  0.00  0.00    -0.089 HD
ENDBRANCH   1   2
BRANCH   1   6
ATOM      6  C   UNL     1      33.921 -20.210 -20.425  0.00  0.00    -0.028 C 
ATOM      7  C   UNL     1      34.711 -21.159 -19.911  0.00  0.00    +0.121 C 
BRANCH   7   8
ATOM      8  S   UNL     1      33.954 -22.451 -19.068  0.00  0.00    +0.028 S 
ATOM      9  O   UNL     1      34.146 -23.688 -19.809  0.00  0.00    -0.164 OA
ATOM     10  O   UNL     1      32.616 -22.061 -18.654  0.00  0.00    -0.164 OA
BRANCH   8  11
ATOM     11  C   UNL     1      34.929 -22.560 -17.594  0.00  0.00    +0.110 C 
ATOM     12  C   UNL     1      34.403 -23.168 -16.453  0.00  0.00    +0.019 C 
ATOM     13  C   UNL     1      36.220 -22.036 -17.571  0.00  0.00    +0.019 C 
ATOM     14  C   UNL     1      35.169 -23.250 -15.291  0.00  0.00    +0.001 C 
ATOM     15  C   UNL     1      36.987 -22.118 -16.409  0.00  0.00    +0.001 C 
ATOM     16  C   UNL     1      36.460 -22.725 -15.268  0.00  0.00    +0.000 C 
ENDBRANCH   8  11
ENDBRANCH   7   8
ENDBRANCH   1   6
BRANCH   1  17
ATOM     17  C   UNL     1      34.575 -19.304 -22.688  0.00  0.00    -0.013 C 
BRANCH  17  18
ATOM     18  C   UNL     1      35.563 -18.365 -23.395  0.00  0.00    +0.025 C 
BRANCH  18  19
ATOM     19  C   UNL     1      34.889 -17.098 -23.857  0.00  0.00    -0.022 C 
ATOM     20  C   UNL     1      34.288 -17.046 -25.115  0.00  0.00    -0.004 C 
ATOM     21  C   UNL     1      34.866 -15.978 -23.026  0.00  0.00    -0.004 C 
ATOM     22  C   UNL     1      33.665 -15.874 -25.543  0.00  0.00    -0.000 C 
ATOM     23  C   UNL     1      34.243 -14.806 -23.454  0.00  0.00    -0.000 C 
ATOM     24  C   UNL     1      33.643 -14.753 -24.712  0.00  0.00    -0.000 C 
ENDBRANCH  18  19
ENDBRANCH  17  18
ENDBRANCH   1  17
TORSDOF 7
ENDMDL
MODEL 2
REMARK VINA RESULT:      -9.5      3.319      8.679
REMARK  Name = 54560057
REMARK  7 active torsions:
REMARK  status: ('A' for Active; 'I' for Inactive)
REMARK    1  A    between atoms: C_1  and  N_2
REMARK    2  A    between atoms: C_1  and  C_6
REMARK    3  A    between atoms: C_1  and  C_17
REMARK    4  A    between atoms: C_7  and  S_8
REMARK    5  A    between atoms: S_8  and  C_11
REMARK    6  A    between atoms: C_17  and  C_18
REMARK    7  A    between atoms: C_18  and  C_19
REMARK                            x       y       z     vdW  Elec       q    Type
REMARK                         _______ _______ _______ _____ _____    ______ ____
ROOT
ATOM      1  C   UNL     1      34.782 -23.849 -14.984  0.00  0.00    -0.041 C 
ENDROOT
BRANCH   1   2
ATOM      2  N   UNL     1      35.394 -22.593 -14.534  0.00  0.00    +0.384 N 
ATOM      3  H   UNL     1      35.320 -21.895 -15.274  0.00  0.00    -0.089 HD
ATOM      4  H   UNL     1      36.377 -22.754 -14.315  0.00  0.00    -0.089 HD
ATOM      5  H   UNL     1      34.911 -22.258 -13.701  0.00  0.00    -0.089 HD
ENDBRANCH   1   2
BRANCH   1   6
ATOM      6  C   UNL     1      34.121 -23.639 -16.323  0.00  0.00    -0.028 C 
ATOM      7  C   UNL     1      34.599 -22.805 -17.253  0.00  0.00    +0.121 C 
BRANCH   7   8
ATOM      8  S   UNL     1      33.733 -22.688 -18.734  0.00  0.00    +0.028 S 
ATOM      9  O   UNL     1      32.384 -22.217 -18.467  0.00  0.00    -0.164 OA
ATOM     10  O   UNL     1      33.932 -23.893 -19.524  0.00  0.00    -0.164 OA
BRANCH   8  11
ATOM     11  C   UNL     1      34.594 -21.386 -19.570  0.00  0.00    +0.110 C 
ATOM     12  C   UNL     1      33.881 -20.439 -20.304  0.00  0.00    +0.019 C 
ATOM     13  C   UNL     1      35.984 -21.310 -19.497  0.00  0.00    +0.019 C 
ATOM     14  C   UNL     1      34.559 -19.415 -20.966  0.00  0.00    +0.001 C 
ATOM     15  C   UNL     1      36.662 -20.286 -20.159  0.00  0.00    +0.001 C 
ATOM     16  C   UNL     1      35.949 -19.339 -20.894  0.00  0.00    +0.000 C 
ENDBRANCH   8  11
ENDBRANCH   7   8
ENDBRANCH   1   6
BRANCH   1  17
ATOM     17  C   UNL     1      33.772 -24.317 -13.917  0.00  0.00    -0.013 C 
BRANCH  17  18
ATOM     18  C   UNL     1      32.638 -23.309 -13.682  0.00  0.00    +0.025 C 
BRANCH  18  19
ATOM     19  C   UNL     1      31.363 -23.743 -14.362  0.00  0.00    -0.022 C 
ATOM     20  C   UNL     1      30.622 -22.824 -15.105  0.00  0.00    -0.004 C 
ATOM     21  C   UNL     1      30.925 -25.062 -14.245  0.00  0.00    -0.004 C 
ATOM     22  C   UNL     1      29.442 -23.225 -15.733  0.00  0.00    -0.000 C 
ATOM     23  C   UNL     1      29.745 -25.462 -14.872  0.00  0.00    -0.000 C 
ATOM     24  C   UNL     1      29.004 -24.544 -15.616  0.00  0.00    -0.000 C 
ENDBRANCH  18  19
ENDBRANCH  17  18
ENDBRANCH   1  17
TORSDOF 7
ENDMDL
MODEL 3
REMARK VINA RESULT:      -9.4      4.080      5.825
REMARK  Name = 54560057
REMARK  7 active torsions:
REMARK  status: ('A' for Active; 'I' for Inactive)
REMARK    1  A    between atoms: C_1  and  N_2
REMARK    2  A    between atoms: C_1  and  C_6
REMARK    3  A    between atoms: C_1  and  C_17
REMARK    4  A    between atoms: C_7  and  S_8
REMARK    5  A    between atoms: S_8  and  C_11
REMARK    6  A    between atoms: C_17  and  C_18
REMARK    7  A    between atoms: C_18  and  C_19
REMARK                            x       y       z     vdW  Elec       q    Type
REMARK                         _______ _______ _______ _____ _____    ______ ____
ROOT
ATOM      1  C   UNL     1      34.249 -14.483 -22.157  0.00  0.00    -0.041 C 
ENDROOT
BRANCH   1   2
ATOM      2  N   UNL     1      34.500 -13.527 -23.242  0.00  0.00    +0.384 N 
ATOM      3  H   UNL     1      33.630 -13.345 -23.743  0.00  0.00    -0.089 HD
ATOM      4  H   UNL     1      35.188 -13.917 -23.886  0.00  0.00    -0.089 HD
ATOM      5  H   UNL     1      34.856 -12.655 -22.851  0.00  0.00    -0.089 HD
ENDBRANCH   1   2
BRANCH   1   6
ATOM      6  C   UNL     1      34.718 -15.855 -22.572  0.00  0.00    -0.028 C 
ATOM      7  C   UNL     1      35.033 -16.818 -21.699  0.00  0.00    +0.121 C 
BRANCH   7   8
ATOM      8  S   UNL     1      35.541 -18.331 -22.334  0.00  0.00    +0.028 S 
ATOM      9  O   UNL     1      36.980 -18.464 -22.171  0.00  0.00    -0.164 OA
ATOM     10  O   UNL     1      34.942 -18.550 -23.641  0.00  0.00    -0.164 OA
BRANCH   8  11
ATOM     11  C   UNL     1      34.773 -19.480 -21.227  0.00  0.00    +0.110 C 
ATOM     12  C   UNL     1      35.553 -20.408 -20.535  0.00  0.00    +0.019 C 
ATOM     13  C   UNL     1      33.391 -19.459 -21.048  0.00  0.00    +0.019 C 
ATOM     14  C   UNL     1      34.948 -21.316 -19.665  0.00  0.00    +0.001 C 
ATOM     15  C   UNL     1      32.786 -20.367 -20.178  0.00  0.00    +0.001 C 
ATOM     16  C   UNL     1      33.565 -21.296 -19.487  0.00  0.00    +0.000 C 
ENDBRANCH   8  11
ENDBRANCH   7   8
ENDBRANCH   1   6
BRANCH   1  17
ATOM     17  C   UNL     1      32.744 -14.472 -21.825  0.00  0.00    -0.013 C 
BRANCH  17  18
ATOM     18  C   UNL     1      31.987 -13.327 -22.514  0.00  0.00    +0.025 C 
BRANCH  18  19
ATOM     19  C   UNL     1      31.862 -12.126 -21.611  0.00  0.00    -0.022 C 
ATOM     20  C   UNL     1      31.848 -10.842 -22.157  0.00  0.00    -0.004 C 
ATOM     21  C   UNL     1      31.759 -12.298 -20.231  0.00  0.00    -0.004 C 
ATOM     22  C   UNL     1      31.733  -9.730 -21.321  0.00  0.00    -0.000 C 
ATOM     23  C   UNL     1      31.644 -11.187 -19.396  0.00  0.00    -0.000 C 
ATOM     24  C   UNL     1      31.631  -9.903 -19.941  0.00  0.00    -0.000 C 
ENDBRANCH  18  19
ENDBRANCH  17  18
ENDBRANCH   1  17
TORSDOF 7
ENDMDL
MODEL 4
REMARK VINA RESULT:      -9.4      3.826      9.156
REMARK  Name = 54560057
REMARK  7 active torsions:
REMARK  status: ('A' for Active; 'I' for Inactive)
REMARK    1  A    between atoms: C_1  and  N_2
REMARK    2  A    between atoms: C_1  and  C_6
REMARK    3  A    between atoms: C_1  and  C_17
REMARK    4  A    between atoms: C_7  and  S_8
REMARK    5  A    between atoms: S_8  and  C_11
REMARK    6  A    between atoms: C_17  and  C_18
REMARK    7  A    between atoms: C_18  and  C_19
REMARK                            x       y       z     vdW  Elec       q    Type
REMARK                         _______ _______ _______ _____ _____    ______ ____
ROOT
ATOM      1  C   UNL     1      35.640 -18.074 -23.191  0.00  0.00    -0.041 C 
ENDROOT
BRANCH   1   2
ATOM      2  N   UNL     1      36.910 -18.315 -22.494  0.00  0.00    +0.384 N 
ATOM      3  H   UNL     1      37.624 -17.687 -22.863  0.00  0.00    -0.089 HD
ATOM      4  H   UNL     1      37.199 -19.282 -22.641  0.00  0.00    -0.089 HD
ATOM      5  H   UNL     1      36.787 -18.144 -21.497  0.00  0.00    -0.089 HD
ENDBRANCH   1   2
BRANCH   1   6
ATOM      6  C   UNL     1      35.138 -16.690 -22.864  0.00  0.00    -0.028 C 
ATOM      7  C   UNL     1      33.969 -16.212 -23.303  0.00  0.00    +0.121 C 
BRANCH   7   8
ATOM      8  S   UNL     1      33.536 -14.617 -22.832  0.00  0.00    +0.028 S 
ATOM      9  O   UNL     1      34.611 -14.040 -22.040  0.00  0.00    -0.164 OA
ATOM     10  O   UNL     1      32.176 -14.601 -22.318  0.00  0.00    -0.164 OA
BRANCH   8  11
ATOM     11  C   UNL     1      33.503 -13.763 -24.382  0.00  0.00    +0.110 C 
ATOM     12  C   UNL     1      33.120 -14.439 -25.542  0.00  0.00    +0.019 C 
ATOM     13  C   UNL     1      33.862 -12.418 -24.446  0.00  0.00    +0.019 C 
ATOM     14  C   UNL     1      33.098 -13.767 -26.764  0.00  0.00    +0.001 C 
ATOM     15  C   UNL     1      33.839 -11.746 -25.668  0.00  0.00    +0.001 C 
ATOM     16  C   UNL     1      33.458 -12.422 -26.828  0.00  0.00    +0.000 C 
ENDBRANCH   8  11
ENDBRANCH   7   8
ENDBRANCH   1   6
BRANCH   1  17
ATOM     17  C   UNL     1      34.630 -19.161 -22.771  0.00  0.00    -0.013 C 
BRANCH  17  18
ATOM     18  C   UNL     1      34.052 -18.931 -21.368  0.00  0.00    +0.025 C 
BRANCH  18  19
ATOM     19  C   UNL     1      34.273 -20.126 -20.476  0.00  0.00    -0.022 C 
ATOM     20  C   UNL     1      35.568 -20.582 -20.228  0.00  0.00    -0.004 C 
ATOM     21  C   UNL     1      33.183 -20.777 -19.899  0.00  0.00    -0.004 C 
ATOM     22  C   UNL     1      35.773 -21.689 -19.404  0.00  0.00    -0.000 C 
ATOM     23  C   UNL     1      33.387 -21.883 -19.074  0.00  0.00    -0.000 C 
ATOM     24  C   UNL     1      34.682 -22.339 -18.827  0.00  0.00    -0.000 C 
ENDBRANCH  18  19
ENDBRANCH  17  18
ENDBRANCH   1  17
TORSDOF 7
ENDMDL
MODEL 5
REMARK VINA RESULT:      -9.3      3.164      4.463
REMARK  Name = 54560057
REMARK  7 active torsions:
REMARK  status: ('A' for Active; 'I' for Inactive)
REMARK    1  A    between atoms: C_1  and  N_2
REMARK    2  A    between atoms: C_1  and  C_6
REMARK    3  A    between atoms: C_1  and  C_17
REMARK    4  A    between atoms: C_7  and  S_8
REMARK    5  A    between atoms: S_8  and  C_11
REMARK    6  A    between atoms: C_17  and  C_18
REMARK    7  A    between atoms: C_18  and  C_19
REMARK                            x       y       z     vdW  Elec       q    Type
REMARK                         _______ _______ _______ _____ _____    ______ ____
ROOT
ATOM      1  C   UNL     1      33.509 -15.382 -21.140  0.00  0.00    -0.041 C 
ENDROOT
BRANCH   1   2
ATOM      2  N   UNL     1      34.558 -14.486 -20.638  0.00  0.00    +0.384 N 
ATOM      3  H   UNL     1      34.832 -13.837 -21.375  0.00  0.00    -0.089 HD
ATOM      4  H   UNL     1      35.367 -15.036 -20.351  0.00  0.00    -0.089 HD
ATOM      5  H   UNL     1      34.203 -13.962 -19.838  0.00  0.00    -0.089 HD
ENDBRANCH   1   2
BRANCH   1   6
ATOM      6  C   UNL     1      34.136 -16.643 -21.679  0.00  0.00    -0.028 C 
ATOM      7  C   UNL     1      35.108 -17.308 -21.044  0.00  0.00    +0.121 C 
BRANCH   7   8
ATOM      8  S   UNL     1      35.708 -18.736 -21.788  0.00  0.00    +0.028 S 
ATOM      9  O   UNL     1      37.158 -18.765 -21.676  0.00  0.00    -0.164 OA
ATOM     10  O   UNL     1      35.083 -18.923 -23.087  0.00  0.00    -0.164 OA
BRANCH   8  11
ATOM     11  C   UNL     1      35.070 -20.006 -20.731  0.00  0.00    +0.110 C 
ATOM     12  C   UNL     1      35.947 -20.869 -20.071  0.00  0.00    +0.019 C 
ATOM     13  C   UNL     1      33.694 -20.145 -20.560  0.00  0.00    +0.019 C 
ATOM     14  C   UNL     1      35.444 -21.871 -19.242  0.00  0.00    +0.001 C 
ATOM     15  C   UNL     1      33.192 -21.148 -19.730  0.00  0.00    +0.001 C 
ATOM     16  C   UNL     1      34.068 -22.011 -19.071  0.00  0.00    +0.000 C 
ENDBRANCH   8  11
ENDBRANCH   7   8
ENDBRANCH   1   6
BRANCH   1  17
ATOM     17  C   UNL     1      32.699 -14.640 -22.221  0.00  0.00    -0.013 C 
BRANCH  17  18
ATOM     18  C   UNL     1      33.420 -13.396 -22.761  0.00  0.00    +0.025 C 
BRANCH  18  19
ATOM     19  C   UNL     1      33.400 -13.356 -24.268  0.00  0.00    -0.022 C 
ATOM     20  C   UNL     1      33.747 -12.184 -24.939  0.00  0.00    -0.004 C 
ATOM     21  C   UNL     1      33.033 -14.491 -24.991  0.00  0.00    -0.004 C 
ATOM     22  C   UNL     1      33.728 -12.146 -26.334  0.00  0.00    -0.000 C 
ATOM     23  C   UNL     1      33.014 -14.454 -26.385  0.00  0.00    -0.000 C 
ATOM     24  C   UNL     1      33.361 -13.281 -27.057  0.00  0.00    -0.000 C 
ENDBRANCH  18  19
ENDBRANCH  17  18
ENDBRANCH   1  17
TORSDOF 7
ENDMDL
MODEL 6
REMARK VINA RESULT:      -9.2      4.678      9.819
REMARK  Name = 54560057
REMARK  7 active torsions:
REMARK  status: ('A' for Active; 'I' for Inactive)
REMARK    1  A    between atoms: C_1  and  N_2
REMARK    2  A    between atoms: C_1  and  C_6
REMARK    3  A    between atoms: C_1  and  C_17
REMARK    4  A    between atoms: C_7  and  S_8
REMARK    5  A    between atoms: S_8  and  C_11
REMARK    6  A    between atoms: C_17  and  C_18
REMARK    7  A    between atoms: C_18  and  C_19
REMARK                            x       y       z     vdW  Elec       q    Type
REMARK                         _______ _______ _______ _____ _____    ______ ____
ROOT
ATOM      1  C   UNL     1      35.013 -16.306 -22.103  0.00  0.00    -0.041 C 
ENDROOT
BRANCH   1   2
ATOM      2  N   UNL     1      34.812 -16.221 -20.651  0.00  0.00    +0.384 N 
ATOM      3  H   UNL     1      34.840 -17.158 -20.250  0.00  0.00    -0.089 HD
ATOM      4  H   UNL     1      33.906 -15.795 -20.459  0.00  0.00    -0.089 HD
ATOM      5  H   UNL     1      35.550 -15.652 -20.239  0.00  0.00    -0.089 HD
ENDBRANCH   1   2
BRANCH   1   6
ATOM      6  C   UNL     1      33.997 -15.442 -22.807  0.00  0.00    -0.028 C 
ATOM      7  C   UNL     1      34.260 -14.204 -23.238  0.00  0.00    +0.121 C 
BRANCH   7   8
ATOM      8  S   UNL     1      32.995 -13.355 -24.033  0.00  0.00    +0.028 S 
ATOM      9  O   UNL     1      31.880 -13.181 -23.115  0.00  0.00    -0.164 OA
ATOM     10  O   UNL     1      32.760 -13.926 -25.349  0.00  0.00    -0.164 OA
BRANCH   8  11
ATOM     11  C   UNL     1      33.719 -11.760 -24.294  0.00  0.00    +0.110 C 
ATOM     12  C   UNL     1      33.382 -10.696 -23.456  0.00  0.00    +0.019 C 
ATOM     13  C   UNL     1      34.623 -11.567 -25.337  0.00  0.00    +0.019 C 
ATOM     14  C   UNL     1      33.950  -9.439 -23.664  0.00  0.00    +0.001 C 
ATOM     15  C   UNL     1      35.190 -10.310 -25.545  0.00  0.00    +0.001 C 
ATOM     16  C   UNL     1      34.853  -9.245 -24.708  0.00  0.00    +0.000 C 
ENDBRANCH   8  11
ENDBRANCH   7   8
ENDBRANCH   1   6
BRANCH   1  17
ATOM     17  C   UNL     1      34.904 -17.782 -22.534  0.00  0.00    -0.013 C 
BRANCH  17  18
ATOM     18  C   UNL     1      35.840 -18.707 -21.743  0.00  0.00    +0.025 C 
BRANCH  18  19
ATOM     19  C   UNL     1      35.066 -19.714 -20.930  0.00  0.00    -0.022 C 
ATOM     20  C   UNL     1      35.744 -20.690 -20.199  0.00  0.00    -0.004 C 
ATOM     21  C   UNL     1      33.672 -19.670 -20.910  0.00  0.00    -0.004 C 
ATOM     22  C   UNL     1      35.028 -21.622 -19.448  0.00  0.00    -0.000 C 
ATOM     23  C   UNL     1      32.956 -20.602 -20.159  0.00  0.00    -0.000 C 
ATOM     24  C   UNL     1      33.634 -21.578 -19.428  0.00  0.00    -0.000 C 
ENDBRANCH  18  19
ENDBRANCH  17  18
ENDBRANCH   1  17
TORSDOF 7
ENDMDL
MODEL 7
REMARK VINA RESULT:      -9.2      3.081      4.625
REMARK  Name = 54560057
REMARK  7 active torsions:
REMARK  status: ('A' for Active; 'I' for Inactive)
REMARK    1  A    between atoms: C_1  and  N_2
REMARK    2  A    between atoms: C_1  and  C_6
REMARK    3  A    between atoms: C_1  and  C_17
REMARK    4  A    between atoms: C_7  and  S_8
REMARK    5  A    between atoms: S_8  and  C_11
REMARK    6  A    between atoms: C_17  and  C_18
REMARK    7  A    between atoms: C_18  and  C_19
REMARK                            x       y       z     vdW  Elec       q    Type
REMARK                         _______ _______ _______ _____ _____    ______ ____
ROOT
ATOM      1  C   UNL     1      34.662 -16.928 -24.869  0.00  0.00    -0.041 C 
ENDROOT
BRANCH   1   2
ATOM      2  N   UNL     1      33.963 -18.131 -25.340  0.00  0.00    +0.384 N 
ATOM      3  H   UNL     1      34.139 -18.900 -24.694  0.00  0.00    -0.089 HD
ATOM      4  H   UNL     1      34.305 -18.381 -26.267  0.00  0.00    -0.089 HD
ATOM      5  H   UNL     1      32.962 -17.946 -25.385  0.00  0.00    -0.089 HD
ENDBRANCH   1   2
BRANCH   1   6
ATOM      6  C   UNL     1      35.321 -17.212 -23.544  0.00  0.00    -0.028 C 
ATOM      7  C   UNL     1      34.998 -18.255 -22.772  0.00  0.00    +0.121 C 
BRANCH   7   8
ATOM      8  S   UNL     1      35.853 -18.445 -21.293  0.00  0.00    +0.028 S 
ATOM      9  O   UNL     1      35.584 -17.304 -20.431  0.00  0.00    -0.164 OA
ATOM     10  O   UNL     1      37.227 -18.837 -21.559  0.00  0.00    -0.164 OA
BRANCH   8  11
ATOM     11  C   UNL     1      35.053 -19.852 -20.575  0.00  0.00    +0.110 C 
ATOM     12  C   UNL     1      33.661 -19.944 -20.587  0.00  0.00    +0.019 C 
ATOM     13  C   UNL     1      35.814 -20.866 -19.994  0.00  0.00    +0.019 C 
ATOM     14  C   UNL     1      33.031 -21.050 -20.018  0.00  0.00    +0.001 C 
ATOM     15  C   UNL     1      35.184 -21.972 -19.425  0.00  0.00    +0.001 C 
ATOM     16  C   UNL     1      33.791 -22.064 -19.437  0.00  0.00    +0.000 C 
ENDBRANCH   8  11
ENDBRANCH   7   8
ENDBRANCH   1   6
BRANCH   1  17
ATOM     17  C   UNL     1      33.645 -15.774 -24.765  0.00  0.00    -0.013 C 
BRANCH  17  18
ATOM     18  C   UNL     1      34.252 -14.494 -24.171  0.00  0.00    +0.025 C 
BRANCH  18  19
ATOM     19  C   UNL     1      33.478 -14.024 -22.965  0.00  0.00    -0.022 C 
ATOM     20  C   UNL     1      33.540 -14.744 -21.772  0.00  0.00    -0.004 C 
ATOM     21  C   UNL     1      32.700 -12.869 -23.043  0.00  0.00    -0.004 C 
ATOM     22  C   UNL     1      32.824 -14.309 -20.657  0.00  0.00    -0.000 C 
ATOM     23  C   UNL     1      31.984 -12.434 -21.928  0.00  0.00    -0.000 C 
ATOM     24  C   UNL     1      32.046 -13.154 -20.735  0.00  0.00    -0.000 C 
ENDBRANCH  18  19
ENDBRANCH  17  18
ENDBRANCH   1  17
TORSDOF 7
ENDMDL
MODEL 8
REMARK VINA RESULT:      -9.2      4.234      6.654
REMARK  Name = 54560057
REMARK  7 active torsions:
REMARK  status: ('A' for Active; 'I' for Inactive)
REMARK    1  A    between atoms: C_1  and  N_2
REMARK    2  A    between atoms: C_1  and  C_6
REMARK    3  A    between atoms: C_1  and  C_17
REMARK    4  A    between atoms: C_7  and  S_8
REMARK    5  A    between atoms: S_8  and  C_11
REMARK    6  A    between atoms: C_17  and  C_18
REMARK    7  A    between atoms: C_18  and  C_19
REMARK                            x       y       z     vdW  Elec       q    Type
REMARK                         _______ _______ _______ _____ _____    ______ ____
ROOT
ATOM      1  C   UNL     1      34.380 -22.988 -16.256  0.00  0.00    -0.041 C 
ENDROOT
BRANCH   1   2
ATOM      2  N   UNL     1      35.654 -23.503 -15.740  0.00  0.00    +0.384 N 
ATOM      3  H   UNL     1      36.016 -22.865 -15.031  0.00  0.00    -0.089 HD
ATOM      4  H   UNL     1      36.325 -23.578 -16.505  0.00  0.00    -0.089 HD
ATOM      5  H   UNL     1      35.506 -24.423 -15.326  0.00  0.00    -0.089 HD
ENDBRANCH   1   2
BRANCH   1   6
ATOM      6  C   UNL     1      33.236 -23.697 -15.576  0.00  0.00    -0.028 C 
ATOM      7  C   UNL     1      32.556 -23.176 -14.549  0.00  0.00    +0.121 C 
BRANCH   7   8
ATOM      8  S   UNL     1      31.269 -24.108 -13.893  0.00  0.00    +0.028 S 
ATOM      9  O   UNL     1      30.895 -23.567 -12.596  0.00  0.00    -0.164 OA
ATOM     10  O   UNL     1      31.563 -25.525 -14.024  0.00  0.00    -0.164 OA
BRANCH   8  11
ATOM     11  C   UNL     1      29.944 -23.759 -15.015  0.00  0.00    +0.110 C 
ATOM     12  C   UNL     1      29.495 -24.747 -15.892  0.00  0.00    +0.019 C 
ATOM     13  C   UNL     1      29.351 -22.497 -15.023  0.00  0.00    +0.019 C 
ATOM     14  C   UNL     1      28.454 -24.471 -16.778  0.00  0.00    +0.001 C 
ATOM     15  C   UNL     1      28.310 -22.222 -15.909  0.00  0.00    +0.001 C 
ATOM     16  C   UNL     1      27.861 -23.209 -16.787  0.00  0.00    +0.000 C 
ENDBRANCH   8  11
ENDBRANCH   7   8
ENDBRANCH   1   6
BRANCH   1  17
ATOM     17  C   UNL     1      34.347 -23.186 -17.784  0.00  0.00    -0.013 C 
BRANCH  17  18
ATOM     18  C   UNL     1      33.246 -22.366 -18.470  0.00  0.00    +0.025 C 
BRANCH  18  19
ATOM     19  C   UNL     1      33.824 -21.361 -19.435  0.00  0.00    -0.022 C 
ATOM     20  C   UNL     1      35.204 -21.299 -19.633  0.00  0.00    -0.004 C 
ATOM     21  C   UNL     1      32.980 -20.493 -20.127  0.00  0.00    -0.004 C 
ATOM     22  C   UNL     1      35.739 -20.369 -20.524  0.00  0.00    -0.000 C 
ATOM     23  C   UNL     1      33.515 -19.563 -21.018  0.00  0.00    -0.000 C 
ATOM     24  C   UNL     1      34.895 -19.500 -21.217  0.00  0.00    -0.000 C 
ENDBRANCH  18  19
ENDBRANCH  17  18
ENDBRANCH   1  17
TORSDOF 7
ENDMDL
MODEL 9
REMARK VINA RESULT:      -9.2      4.855      9.191
REMARK  Name = 54560057
REMARK  7 active torsions:
REMARK  status: ('A' for Active; 'I' for Inactive)
REMARK    1  A    between atoms: C_1  and  N_2
REMARK    2  A    between atoms: C_1  and  C_6
REMARK    3  A    between atoms: C_1  and  C_17
REMARK    4  A    between atoms: C_7  and  S_8
REMARK    5  A    between atoms: S_8  and  C_11
REMARK    6  A    between atoms: C_17  and  C_18
REMARK    7  A    between atoms: C_18  and  C_19
REMARK                            x       y       z     vdW  Elec       q    Type
REMARK                         _______ _______ _______ _____ _____    ______ ____
ROOT
ATOM      1  C   UNL     1      35.034 -16.371 -21.887  0.00  0.00    -0.041 C 
ENDROOT
BRANCH   1   2
ATOM      2  N   UNL     1      34.750 -16.240 -20.452  0.00  0.00    +0.384 N 
ATOM      3  H   UNL     1      34.718 -15.252 -20.202  0.00  0.00    -0.089 HD
ATOM      4  H   UNL     1      35.484 -16.703 -19.917  0.00  0.00    -0.089 HD
ATOM      5  H   UNL     1      33.851 -16.673 -20.243  0.00  0.00    -0.089 HD
ENDBRANCH   1   2
BRANCH   1   6
ATOM      6  C   UNL     1      34.151 -15.429 -22.666  0.00  0.00    -0.028 C 
ATOM      7  C   UNL     1      34.399 -14.119 -22.782  0.00  0.00    +0.121 C 
BRANCH   7   8
ATOM      8  S   UNL     1      33.300 -13.184 -23.716  0.00  0.00    +0.028 S 
ATOM      9  O   UNL     1      32.288 -14.058 -24.287  0.00  0.00    -0.164 OA
ATOM     10  O   UNL     1      34.032 -12.270 -24.578  0.00  0.00    -0.164 OA
BRANCH   8  11
ATOM     11  C   UNL     1      32.508 -12.192 -22.481  0.00  0.00    +0.110 C 
ATOM     12  C   UNL     1      32.277 -10.837 -22.719  0.00  0.00    +0.019 C 
ATOM     13  C   UNL     1      32.119 -12.764 -21.271  0.00  0.00    +0.019 C 
ATOM     14  C   UNL     1      31.656 -10.054 -21.745  0.00  0.00    +0.001 C 
ATOM     15  C   UNL     1      31.499 -11.981 -20.297  0.00  0.00    +0.001 C 
ATOM     16  C   UNL     1      31.268 -10.626 -20.534  0.00  0.00    +0.000 C 
ENDBRANCH   8  11
ENDBRANCH   7   8
ENDBRANCH   1   6
BRANCH   1  17
ATOM     17  C   UNL     1      34.811 -17.838 -22.304  0.00  0.00    -0.013 C 
BRANCH  17  18
ATOM     18  C   UNL     1      35.812 -18.804 -21.654  0.00  0.00    +0.025 C 
BRANCH  18  19
ATOM     19  C   UNL     1      35.111 -19.852 -20.827  0.00  0.00    -0.022 C 
ATOM     20  C   UNL     1      35.856 -20.802 -20.128  0.00  0.00    -0.004 C 
ATOM     21  C   UNL     1      33.718 -19.873 -20.762  0.00  0.00    -0.004 C 
ATOM     22  C   UNL     1      35.208 -21.773 -19.363  0.00  0.00    -0.000 C 
ATOM     23  C   UNL     1      33.070 -20.843 -19.997  0.00  0.00    -0.000 C 
ATOM     24  C   UNL     1      33.815 -21.793 -19.298  0.00  0.00    -0.000 C 
ENDBRANCH  18  19
ENDBRANCH  17  18
ENDBRANCH   1  17
TORSDOF 7
ENDMDL
