MODEL 1
REMARK VINA RESULT:      -6.5      0.000      0.000
REMARK  Name = 101798
REMARK  6 active torsions:
REMARK  status: ('A' for Active; 'I' for Inactive)
REMARK    1  A    between atoms: C_2  and  O_7
REMARK    2  A    between atoms: C_3  and  O_9
REMARK    3  A    between atoms: C_4  and  C_15
REMARK    4  A    between atoms: C_5  and  O_11
REMARK    5  A    between atoms: C_6  and  O_13
REMARK    6  A    between atoms: C_15  and  O_16
REMARK                            x       y       z     vdW  Elec       q    Type
REMARK                         _______ _______ _______ _____ _____    ______ ____
ROOT
ATOM      1  O   UNL     1      38.572 -23.917 -14.226  0.00  0.00    -0.326 OA
ATOM      2  C   UNL     1      38.009 -26.170 -14.994  0.00  0.00    +0.169 C 
ATOM      3  C   UNL     1      36.540 -25.901 -14.668  0.00  0.00    +0.172 C 
ATOM      4  C   UNL     1      38.914 -25.301 -14.111  0.00  0.00    +0.176 C 
ATOM      5  C   UNL     1      36.238 -24.402 -14.719  0.00  0.00    +0.196 C 
ATOM      6  C   UNL     1      37.222 -23.614 -13.856  0.00  0.00    +0.266 C 
ENDROOT
BRANCH   2   7
ATOM      7  O   UNL     1      38.310 -27.542 -14.751  0.00  0.00    -0.379 OA
ATOM      8  H   UNL     1      37.617 -27.931 -14.196  0.00  0.00    +0.211 HD
ENDBRANCH   2   7
BRANCH   3   9
ATOM      9  O   UNL     1      35.693 -26.571 -15.598  0.00  0.00    -0.379 OA
ATOM     10  H   UNL     1      35.452 -27.443 -15.245  0.00  0.00    +0.211 HD
ENDBRANCH   3   9
BRANCH   5  11
ATOM     11  O   UNL     1      36.360 -23.926 -16.060  0.00  0.00    -0.378 OA
ATOM     12  H   UNL     1      35.476 -23.779 -16.433  0.00  0.00    +0.211 HD
ENDBRANCH   5  11
BRANCH   6  13
ATOM     13  O   UNL     1      36.967 -23.870 -12.480  0.00  0.00    -0.326 OA
ATOM     14  C   UNL     1      37.388 -22.787 -11.663  0.00  0.00    +0.177 C 
ENDBRANCH   6  13
BRANCH   4  15
ATOM     15  C   UNL     1      40.382 -25.441 -14.503  0.00  0.00    +0.169 C 
BRANCH  15  16
ATOM     16  O   UNL     1      40.449 -25.870 -15.850  0.00  0.00    -0.379 OA
ATOM     17  H   UNL     1      39.558 -26.084 -16.166  0.00  0.00    +0.211 HD
ENDBRANCH  15  16
ENDBRANCH   4  15
TORSDOF 6
ENDMDL
MODEL 2
REMARK VINA RESULT:      -6.3      1.648      4.005
REMARK  Name = 101798
REMARK  6 active torsions:
REMARK  status: ('A' for Active; 'I' for Inactive)
REMARK    1  A    between atoms: C_2  and  O_7
REMARK    2  A    between atoms: C_3  and  O_9
REMARK    3  A    between atoms: C_4  and  C_15
REMARK    4  A    between atoms: C_5  and  O_11
REMARK    5  A    between atoms: C_6  and  O_13
REMARK    6  A    between atoms: C_15  and  O_16
REMARK                            x       y       z     vdW  Elec       q    Type
REMARK                         _______ _______ _______ _____ _____    ______ ____
ROOT
ATOM      1  O   UNL     1      37.607 -25.423 -11.900  0.00  0.00    -0.326 OA
ATOM      2  C   UNL     1      35.825 -24.489 -13.292  0.00  0.00    +0.169 C 
ATOM      3  C   UNL     1      36.591 -24.923 -14.543  0.00  0.00    +0.172 C 
ATOM      4  C   UNL     1      36.799 -24.265 -12.128  0.00  0.00    +0.176 C 
ATOM      5  C   UNL     1      37.506 -26.109 -14.234  0.00  0.00    +0.196 C 
ATOM      6  C   UNL     1      38.397 -25.816 -13.028  0.00  0.00    +0.266 C 
ENDROOT
BRANCH   2   7
ATOM      7  O   UNL     1      35.133 -23.270 -13.554  0.00  0.00    -0.379 OA
ATOM      8  H   UNL     1      34.212 -23.354 -13.266  0.00  0.00    +0.211 HD
ENDBRANCH   2   7
BRANCH   3   9
ATOM      9  O   UNL     1      35.684 -25.300 -15.576  0.00  0.00    -0.379 OA
ATOM     10  H   UNL     1      35.180 -24.522 -15.862  0.00  0.00    +0.211 HD
ENDBRANCH   3   9
BRANCH   5  11
ATOM     11  O   UNL     1      36.722 -27.262 -13.923  0.00  0.00    -0.378 OA
ATOM     12  H   UNL     1      36.908 -27.964 -14.567  0.00  0.00    +0.211 HD
ENDBRANCH   5  11
BRANCH   6  13
ATOM     13  O   UNL     1      39.371 -24.838 -13.376  0.00  0.00    -0.326 OA
ATOM     14  C   UNL     1      40.296 -25.342 -14.329  0.00  0.00    +0.177 C 
ENDBRANCH   6  13
BRANCH   4  15
ATOM     15  C   UNL     1      36.059 -23.964 -10.828  0.00  0.00    +0.169 C 
BRANCH  15  16
ATOM     16  O   UNL     1      35.292 -25.100 -10.473  0.00  0.00    -0.379 OA
ATOM     17  H   UNL     1      34.949 -25.522 -11.276  0.00  0.00    +0.211 HD
ENDBRANCH  15  16
ENDBRANCH   4  15
TORSDOF 6
ENDMDL
MODEL 3
REMARK VINA RESULT:      -6.2      1.934      3.695
REMARK  Name = 101798
REMARK  6 active torsions:
REMARK  status: ('A' for Active; 'I' for Inactive)
REMARK    1  A    between atoms: C_2  and  O_7
REMARK    2  A    between atoms: C_3  and  O_9
REMARK    3  A    between atoms: C_4  and  C_15
REMARK    4  A    between atoms: C_5  and  O_11
REMARK    5  A    between atoms: C_6  and  O_13
REMARK    6  A    between atoms: C_15  and  O_16
REMARK                            x       y       z     vdW  Elec       q    Type
REMARK                         _______ _______ _______ _____ _____    ______ ____
ROOT
ATOM      1  O   UNL     1      35.996 -23.156 -13.258  0.00  0.00    -0.326 OA
ATOM      2  C   UNL     1      36.991 -25.391 -13.250  0.00  0.00    +0.169 C 
ATOM      3  C   UNL     1      36.869 -25.437 -14.773  0.00  0.00    +0.172 C 
ATOM      4  C   UNL     1      35.926 -24.455 -12.663  0.00  0.00    +0.176 C 
ATOM      5  C   UNL     1      36.862 -24.024 -15.361  0.00  0.00    +0.196 C 
ATOM      6  C   UNL     1      35.810 -23.152 -14.678  0.00  0.00    +0.266 C 
ENDROOT
BRANCH   2   7
ATOM      7  O   UNL     1      36.801 -26.698 -12.715  0.00  0.00    -0.379 OA
ATOM      8  H   UNL     1      37.461 -27.300 -13.091  0.00  0.00    +0.211 HD
ENDBRANCH   2   7
BRANCH   3   9
ATOM      9  O   UNL     1      37.958 -26.163 -15.338  0.00  0.00    -0.379 OA
ATOM     10  H   UNL     1      38.587 -26.399 -14.637  0.00  0.00    +0.211 HD
ENDBRANCH   3   9
BRANCH   5  11
ATOM     11  O   UNL     1      38.134 -23.407 -15.160  0.00  0.00    -0.378 OA
ATOM     12  H   UNL     1      38.492 -23.118 -16.016  0.00  0.00    +0.211 HD
ENDBRANCH   5  11
BRANCH   6  13
ATOM     13  O   UNL     1      34.508 -23.583 -15.056  0.00  0.00    -0.326 OA
ATOM     14  C   UNL     1      34.239 -23.288 -16.420  0.00  0.00    +0.177 C 
ENDBRANCH   6  13
BRANCH   4  15
ATOM     15  C   UNL     1      36.104 -24.276 -11.159  0.00  0.00    +0.169 C 
BRANCH  15  16
ATOM     16  O   UNL     1      35.299 -25.232 -10.493  0.00  0.00    -0.379 OA
ATOM     17  H   UNL     1      35.844 -25.991 -10.235  0.00  0.00    +0.211 HD
ENDBRANCH  15  16
ENDBRANCH   4  15
TORSDOF 6
ENDMDL
MODEL 4
REMARK VINA RESULT:      -6.1      1.578      3.452
REMARK  Name = 101798
REMARK  6 active torsions:
REMARK  status: ('A' for Active; 'I' for Inactive)
REMARK    1  A    between atoms: C_2  and  O_7
REMARK    2  A    between atoms: C_3  and  O_9
REMARK    3  A    between atoms: C_4  and  C_15
REMARK    4  A    between atoms: C_5  and  O_11
REMARK    5  A    between atoms: C_6  and  O_13
REMARK    6  A    between atoms: C_15  and  O_16
REMARK                            x       y       z     vdW  Elec       q    Type
REMARK                         _______ _______ _______ _____ _____    ______ ____
ROOT
ATOM      1  O   UNL     1      37.991 -23.513 -13.866  0.00  0.00    -0.326 OA
ATOM      2  C   UNL     1      36.927 -25.236 -12.493  0.00  0.00    +0.169 C 
ATOM      3  C   UNL     1      36.738 -26.097 -13.742  0.00  0.00    +0.172 C 
ATOM      4  C   UNL     1      36.984 -23.752 -12.879  0.00  0.00    +0.176 C 
ATOM      5  C   UNL     1      37.783 -25.749 -14.805  0.00  0.00    +0.196 C 
ATOM      6  C   UNL     1      37.806 -24.247 -15.081  0.00  0.00    +0.266 C 
ENDROOT
BRANCH   2   7
ATOM      7  O   UNL     1      35.832 -25.438 -11.603  0.00  0.00    -0.379 OA
ATOM      8  H   UNL     1      35.237 -26.109 -11.971  0.00  0.00    +0.211 HD
ENDBRANCH   2   7
BRANCH   3   9
ATOM      9  O   UNL     1      36.858 -27.480 -13.417  0.00  0.00    -0.379 OA
ATOM     10  H   UNL     1      36.882 -28.003 -14.234  0.00  0.00    +0.211 HD
ENDBRANCH   3   9
BRANCH   5  11
ATOM     11  O   UNL     1      39.084 -26.126 -14.350  0.00  0.00    -0.378 OA
ATOM     12  H   UNL     1      39.107 -27.084 -14.194  0.00  0.00    +0.211 HD
ENDBRANCH   5  11
BRANCH   6  13
ATOM     13  O   UNL     1      36.620 -23.867 -15.769  0.00  0.00    -0.326 OA
ATOM     14  C   UNL     1      36.741 -22.570 -16.336  0.00  0.00    +0.177 C 
ENDBRANCH   6  13
BRANCH   4  15
ATOM     15  C   UNL     1      37.309 -22.872 -11.675  0.00  0.00    +0.169 C 
BRANCH  15  16
ATOM     16  O   UNL     1      38.715 -22.740 -11.580  0.00  0.00    -0.379 OA
ATOM     17  H   UNL     1      38.931 -21.956 -11.052  0.00  0.00    +0.211 HD
ENDBRANCH  15  16
ENDBRANCH   4  15
TORSDOF 6
ENDMDL
MODEL 5
REMARK VINA RESULT:      -6.0      1.802      3.997
REMARK  Name = 101798
REMARK  6 active torsions:
REMARK  status: ('A' for Active; 'I' for Inactive)
REMARK    1  A    between atoms: C_2  and  O_7
REMARK    2  A    between atoms: C_3  and  O_9
REMARK    3  A    between atoms: C_4  and  C_15
REMARK    4  A    between atoms: C_5  and  O_11
REMARK    5  A    between atoms: C_6  and  O_13
REMARK    6  A    between atoms: C_15  and  O_16
REMARK                            x       y       z     vdW  Elec       q    Type
REMARK                         _______ _______ _______ _____ _____    ______ ____
ROOT
ATOM      1  O   UNL     1      37.749 -23.579 -13.901  0.00  0.00    -0.326 OA
ATOM      2  C   UNL     1      35.527 -24.197 -13.085  0.00  0.00    +0.169 C 
ATOM      3  C   UNL     1      36.177 -24.977 -11.942  0.00  0.00    +0.172 C 
ATOM      4  C   UNL     1      36.483 -24.122 -14.283  0.00  0.00    +0.176 C 
ATOM      5  C   UNL     1      37.565 -24.417 -11.623  0.00  0.00    +0.196 C 
ATOM      6  C   UNL     1      38.423 -24.327 -12.883  0.00  0.00    +0.266 C 
ENDROOT
BRANCH   2   7
ATOM      7  O   UNL     1      34.329 -24.854 -13.492  0.00  0.00    -0.379 OA
ATOM      8  H   UNL     1      33.878 -25.214 -12.714  0.00  0.00    +0.211 HD
ENDBRANCH   2   7
BRANCH   3   9
ATOM      9  O   UNL     1      35.371 -24.904 -10.769  0.00  0.00    -0.379 OA
ATOM     10  H   UNL     1      35.310 -25.784 -10.364  0.00  0.00    +0.211 HD
ENDBRANCH   3   9
BRANCH   5  11
ATOM     11  O   UNL     1      37.446 -23.099 -11.084  0.00  0.00    -0.378 OA
ATOM     12  H   UNL     1      38.044 -22.501 -11.560  0.00  0.00    +0.211 HD
ENDBRANCH   5  11
BRANCH   6  13
ATOM     13  O   UNL     1      38.779 -25.635 -13.317  0.00  0.00    -0.326 OA
ATOM     14  C   UNL     1      39.967 -25.619 -14.096  0.00  0.00    +0.177 C 
ENDBRANCH   6  13
BRANCH   4  15
ATOM     15  C   UNL     1      35.924 -23.235 -15.392  0.00  0.00    +0.169 C 
BRANCH  15  16
ATOM     16  O   UNL     1      35.084 -24.020 -16.217  0.00  0.00    -0.379 OA
ATOM     17  H   UNL     1      34.181 -24.011 -15.862  0.00  0.00    +0.211 HD
ENDBRANCH  15  16
ENDBRANCH   4  15
TORSDOF 6
ENDMDL
MODEL 6
REMARK VINA RESULT:      -6.0      1.753      3.509
REMARK  Name = 101798
REMARK  6 active torsions:
REMARK  status: ('A' for Active; 'I' for Inactive)
REMARK    1  A    between atoms: C_2  and  O_7
REMARK    2  A    between atoms: C_3  and  O_9
REMARK    3  A    between atoms: C_4  and  C_15
REMARK    4  A    between atoms: C_5  and  O_11
REMARK    5  A    between atoms: C_6  and  O_13
REMARK    6  A    between atoms: C_15  and  O_16
REMARK                            x       y       z     vdW  Elec       q    Type
REMARK                         _______ _______ _______ _____ _____    ______ ____
ROOT
ATOM      1  O   UNL     1      35.944 -25.292 -14.234  0.00  0.00    -0.326 OA
ATOM      2  C   UNL     1      37.760 -24.617 -12.740  0.00  0.00    +0.169 C 
ATOM      3  C   UNL     1      36.877 -23.494 -12.194  0.00  0.00    +0.172 C 
ATOM      4  C   UNL     1      37.337 -24.973 -14.171  0.00  0.00    +0.176 C 
ATOM      5  C   UNL     1      35.396 -23.839 -12.359  0.00  0.00    +0.196 C 
ATOM      6  C   UNL     1      35.081 -24.234 -13.801  0.00  0.00    +0.266 C 
ENDROOT
BRANCH   2   7
ATOM      7  O   UNL     1      39.120 -24.192 -12.754  0.00  0.00    -0.379 OA
ATOM      8  H   UNL     1      39.650 -24.822 -13.266  0.00  0.00    +0.211 HD
ENDBRANCH   2   7
BRANCH   3   9
ATOM      9  O   UNL     1      37.146 -23.277 -10.811  0.00  0.00    -0.379 OA
ATOM     10  H   UNL     1      36.900 -22.369 -10.574  0.00  0.00    +0.211 HD
ENDBRANCH   3   9
BRANCH   5  11
ATOM     11  O   UNL     1      35.057 -24.947 -11.523  0.00  0.00    -0.378 OA
ATOM     12  H   UNL     1      35.870 -25.366 -11.196  0.00  0.00    +0.211 HD
ENDBRANCH   5  11
BRANCH   6  13
ATOM     13  O   UNL     1      35.163 -23.089 -14.642  0.00  0.00    -0.326 OA
ATOM     14  C   UNL     1      34.395 -23.257 -15.825  0.00  0.00    +0.177 C 
ENDBRANCH   6  13
BRANCH   4  15
ATOM     15  C   UNL     1      38.105 -26.181 -14.699  0.00  0.00    +0.169 C 
BRANCH  15  16
ATOM     16  O   UNL     1      39.248 -25.720 -15.394  0.00  0.00    -0.379 OA
ATOM     17  H   UNL     1      39.899 -25.384 -14.759  0.00  0.00    +0.211 HD
ENDBRANCH  15  16
ENDBRANCH   4  15
TORSDOF 6
ENDMDL
MODEL 7
REMARK VINA RESULT:      -5.9      1.464      3.063
REMARK  Name = 101798
REMARK  6 active torsions:
REMARK  status: ('A' for Active; 'I' for Inactive)
REMARK    1  A    between atoms: C_2  and  O_7
REMARK    2  A    between atoms: C_3  and  O_9
REMARK    3  A    between atoms: C_4  and  C_15
REMARK    4  A    between atoms: C_5  and  O_11
REMARK    5  A    between atoms: C_6  and  O_13
REMARK    6  A    between atoms: C_15  and  O_16
REMARK                            x       y       z     vdW  Elec       q    Type
REMARK                         _______ _______ _______ _____ _____    ______ ____
ROOT
ATOM      1  O   UNL     1      36.066 -24.324 -13.670  0.00  0.00    -0.326 OA
ATOM      2  C   UNL     1      38.109 -24.669 -14.970  0.00  0.00    +0.169 C 
ATOM      3  C   UNL     1      38.549 -25.740 -13.972  0.00  0.00    +0.172 C 
ATOM      4  C   UNL     1      37.174 -23.663 -14.287  0.00  0.00    +0.176 C 
ATOM      5  C   UNL     1      37.337 -26.361 -13.273  0.00  0.00    +0.196 C 
ATOM      6  C   UNL     1      36.437 -25.283 -12.674  0.00  0.00    +0.266 C 
ENDROOT
BRANCH   2   7
ATOM      7  O   UNL     1      39.253 -23.974 -15.461  0.00  0.00    -0.379 OA
ATOM      8  H   UNL     1      40.037 -24.536 -15.366  0.00  0.00    +0.211 HD
ENDBRANCH   2   7
BRANCH   3   9
ATOM      9  O   UNL     1      39.274 -26.772 -14.636  0.00  0.00    -0.379 OA
ATOM     10  H   UNL     1      39.159 -26.681 -15.595  0.00  0.00    +0.211 HD
ENDBRANCH   3   9
BRANCH   5  11
ATOM     11  O   UNL     1      36.559 -27.102 -14.215  0.00  0.00    -0.378 OA
ATOM     12  H   UNL     1      36.758 -26.792 -15.113  0.00  0.00    +0.211 HD
ENDBRANCH   5  11
BRANCH   6  13
ATOM     13  O   UNL     1      37.084 -24.682 -11.557  0.00  0.00    -0.326 OA
ATOM     14  C   UNL     1      36.167 -23.948 -10.758  0.00  0.00    +0.177 C 
ENDBRANCH   6  13
BRANCH   4  15
ATOM     15  C   UNL     1      36.606 -22.658 -15.285  0.00  0.00    +0.169 C 
BRANCH  15  16
ATOM     16  O   UNL     1      36.740 -23.193 -16.588  0.00  0.00    -0.379 OA
ATOM     17  H   UNL     1      35.861 -23.302 -16.985  0.00  0.00    +0.211 HD
ENDBRANCH  15  16
ENDBRANCH   4  15
TORSDOF 6
ENDMDL
MODEL 8
REMARK VINA RESULT:      -5.9      2.418      3.923
REMARK  Name = 101798
REMARK  6 active torsions:
REMARK  status: ('A' for Active; 'I' for Inactive)
REMARK    1  A    between atoms: C_2  and  O_7
REMARK    2  A    between atoms: C_3  and  O_9
REMARK    3  A    between atoms: C_4  and  C_15
REMARK    4  A    between atoms: C_5  and  O_11
REMARK    5  A    between atoms: C_6  and  O_13
REMARK    6  A    between atoms: C_15  and  O_16
REMARK                            x       y       z     vdW  Elec       q    Type
REMARK                         _______ _______ _______ _____ _____    ______ ____
ROOT
ATOM      1  O   UNL     1      37.284 -23.840 -14.214  0.00  0.00    -0.326 OA
ATOM      2  C   UNL     1      35.312 -24.177 -12.805  0.00  0.00    +0.169 C 
ATOM      3  C   UNL     1      34.437 -24.207 -14.059  0.00  0.00    +0.172 C 
ATOM      4  C   UNL     1      36.581 -23.355 -13.067  0.00  0.00    +0.176 C 
ATOM      5  C   UNL     1      35.250 -24.649 -15.278  0.00  0.00    +0.196 C 
ATOM      6  C   UNL     1      36.519 -23.813 -15.424  0.00  0.00    +0.266 C 
ENDROOT
BRANCH   2   7
ATOM      7  O   UNL     1      34.590 -23.580 -11.732  0.00  0.00    -0.379 OA
ATOM      8  H   UNL     1      33.643 -23.756 -11.843  0.00  0.00    +0.211 HD
ENDBRANCH   2   7
BRANCH   3   9
ATOM      9  O   UNL     1      33.347 -25.108 -13.883  0.00  0.00    -0.379 OA
ATOM     10  H   UNL     1      32.652 -24.903 -14.529  0.00  0.00    +0.211 HD
ENDBRANCH   3   9
BRANCH   5  11
ATOM     11  O   UNL     1      35.645 -26.015 -15.131  0.00  0.00    -0.378 OA
ATOM     12  H   UNL     1      36.346 -26.219 -15.770  0.00  0.00    +0.211 HD
ENDBRANCH   5  11
BRANCH   6  13
ATOM     13  O   UNL     1      36.180 -22.489 -15.822  0.00  0.00    -0.326 OA
ATOM     14  C   UNL     1      37.138 -21.957 -16.726  0.00  0.00    +0.177 C 
ENDBRANCH   6  13
BRANCH   4  15
ATOM     15  C   UNL     1      37.543 -23.417 -11.884  0.00  0.00    +0.169 C 
BRANCH  15  16
ATOM     16  O   UNL     1      37.268 -22.328 -11.023  0.00  0.00    -0.379 OA
ATOM     17  H   UNL     1      37.612 -22.522 -10.137  0.00  0.00    +0.211 HD
ENDBRANCH  15  16
ENDBRANCH   4  15
TORSDOF 6
ENDMDL
MODEL 9
REMARK VINA RESULT:      -5.6      5.810      7.840
REMARK  Name = 101798
REMARK  6 active torsions:
REMARK  status: ('A' for Active; 'I' for Inactive)
REMARK    1  A    between atoms: C_2  and  O_7
REMARK    2  A    between atoms: C_3  and  O_9
REMARK    3  A    between atoms: C_4  and  C_15
REMARK    4  A    between atoms: C_5  and  O_11
REMARK    5  A    between atoms: C_6  and  O_13
REMARK    6  A    between atoms: C_15  and  O_16
REMARK                            x       y       z     vdW  Elec       q    Type
REMARK                         _______ _______ _______ _____ _____    ______ ____
ROOT
ATOM      1  O   UNL     1      30.540 -22.822 -16.006  0.00  0.00    -0.326 OA
ATOM      2  C   UNL     1      30.316 -24.786 -14.565  0.00  0.00    +0.169 C 
ATOM      3  C   UNL     1      31.838 -24.841 -14.424  0.00  0.00    +0.172 C 
ATOM      4  C   UNL     1      29.933 -24.111 -15.888  0.00  0.00    +0.176 C 
ATOM      5  C   UNL     1      32.454 -23.458 -14.642  0.00  0.00    +0.196 C 
ATOM      6  C   UNL     1      31.971 -22.843 -15.954  0.00  0.00    +0.266 C 
ENDROOT
BRANCH   2   7
ATOM      7  O   UNL     1      29.786 -26.109 -14.552  0.00  0.00    -0.379 OA
ATOM      8  H   UNL     1      30.501 -26.741 -14.379  0.00  0.00    +0.211 HD
ENDBRANCH   2   7
BRANCH   3   9
ATOM      9  O   UNL     1      32.201 -25.306 -13.127  0.00  0.00    -0.379 OA
ATOM     10  H   UNL     1      31.575 -25.990 -12.842  0.00  0.00    +0.211 HD
ENDBRANCH   3   9
BRANCH   5  11
ATOM     11  O   UNL     1      32.067 -22.580 -13.584  0.00  0.00    -0.378 OA
ATOM     12  H   UNL     1      32.388 -22.933 -12.738  0.00  0.00    +0.211 HD
ENDBRANCH   5  11
BRANCH   6  13
ATOM     13  O   UNL     1      32.544 -23.543 -17.053  0.00  0.00    -0.326 OA
ATOM     14  C   UNL     1      33.877 -23.121 -17.300  0.00  0.00    +0.177 C 
ENDBRANCH   6  13
BRANCH   4  15
ATOM     15  C   UNL     1      28.424 -23.915 -16.000  0.00  0.00    +0.169 C 
BRANCH  15  16
ATOM     16  O   UNL     1      27.994 -24.427 -17.248  0.00  0.00    -0.379 OA
ATOM     17  H   UNL     1      28.733 -24.410 -17.876  0.00  0.00    +0.211 HD
ENDBRANCH  15  16
ENDBRANCH   4  15
TORSDOF 6
ENDMDL
