MODEL 1
REMARK VINA RESULT:     -10.6      0.000      0.000
REMARK  Name = 158784
REMARK  4 active torsions:
REMARK  status: ('A' for Active; 'I' for Inactive)
REMARK    1  A    between atoms: C_5  and  C_16
REMARK    2  A    between atoms: C_16  and  N_17
REMARK    3  A    between atoms: N_17  and  C_20
REMARK    4  A    between atoms: C_20  and  C_21
REMARK                            x       y       z     vdW  Elec       q    Type
REMARK                         _______ _______ _______ _____ _____    ______ ____
ROOT
ATOM      1  O   UNL     1      35.437 -24.296 -15.287  0.00  0.00    -0.475 OA
ATOM      2  O   UNL     1      34.163 -24.060 -12.710  0.00  0.00    -0.469 OA
ATOM      3  O   UNL     1      40.580 -26.103 -15.274  0.00  0.00    -0.274 OA
ATOM      4  N   UNL     1      39.346 -25.781 -13.299  0.00  0.00    -0.284 N 
ATOM      5  C   UNL     1      34.250 -23.520 -15.073  0.00  0.00    +0.188 C 
ATOM      6  C   UNL     1      37.373 -25.053 -14.166  0.00  0.00    +0.037 C 
ATOM      7  C   UNL     1      36.070 -24.596 -14.115  0.00  0.00    +0.170 C 
ATOM      8  C   UNL     1      33.433 -24.130 -13.940  0.00  0.00    +0.246 C 
ATOM      9  C   UNL     1      35.462 -24.474 -12.859  0.00  0.00    +0.172 C 
ATOM     10  C   UNL     1      38.061 -25.351 -12.993  0.00  0.00    +0.050 C 
ATOM     11  C   UNL     1      38.267 -25.297 -15.342  0.00  0.00    +0.116 C 
ATOM     12  C   UNL     1      36.173 -24.768 -11.681  0.00  0.00    +0.041 C 
ATOM     13  C   UNL     1      37.494 -25.216 -11.740  0.00  0.00    +0.018 C 
ATOM     14  C   UNL     1      39.562 -25.781 -14.681  0.00  0.00    +0.231 C 
ATOM     15  H   UNL     1      40.018 -26.049 -12.631  0.00  0.00    +0.155 HD
ENDROOT
BRANCH   5  16
ATOM     16  C   UNL     1      33.465 -23.508 -16.376  0.00  0.00    -0.033 C 
BRANCH  16  17
ATOM     17  N   UNL     1      34.213 -22.840 -17.433  0.00  0.00    +0.389 N 
ATOM     18  H   UNL     1      34.954 -23.461 -17.761  0.00  0.00    -0.084 HD
ATOM     19  H   UNL     1      34.612 -21.979 -17.056  0.00  0.00    -0.084 HD
BRANCH  17  20
ATOM     20  C   UNL     1      33.345 -22.500 -18.551  0.00  0.00    -0.054 C 
BRANCH  20  21
ATOM     21  C   UNL     1      33.962 -21.456 -19.443  0.00  0.00    -0.044 C 
ATOM     22  C   UNL     1      35.343 -21.391 -19.565  0.00  0.00    -0.006 C 
ATOM     23  C   UNL     1      33.142 -20.573 -20.131  0.00  0.00    -0.006 C 
ATOM     24  C   UNL     1      35.915 -20.424 -20.392  0.00  0.00    -0.000 C 
ATOM     25  C   UNL     1      33.713 -19.607 -20.959  0.00  0.00    -0.000 C 
ATOM     26  C   UNL     1      35.100 -19.532 -21.088  0.00  0.00    -0.000 C 
ENDBRANCH  20  21
ENDBRANCH  17  20
ENDBRANCH  16  17
ENDBRANCH   5  16
TORSDOF 4
ENDMDL
MODEL 2
REMARK VINA RESULT:     -10.5      6.621     12.091
REMARK  Name = 158784
REMARK  4 active torsions:
REMARK  status: ('A' for Active; 'I' for Inactive)
REMARK    1  A    between atoms: C_5  and  C_16
REMARK    2  A    between atoms: C_16  and  N_17
REMARK    3  A    between atoms: N_17  and  C_20
REMARK    4  A    between atoms: C_20  and  C_21
REMARK                            x       y       z     vdW  Elec       q    Type
REMARK                         _______ _______ _______ _____ _____    ______ ____
ROOT
ATOM      1  O   UNL     1      34.332 -16.723 -22.974  0.00  0.00    -0.475 OA
ATOM      2  O   UNL     1      34.321 -16.609 -25.856  0.00  0.00    -0.469 OA
ATOM      3  O   UNL     1      31.932 -12.565 -20.390  0.00  0.00    -0.274 OA
ATOM      4  N   UNL     1      32.093 -12.677 -22.732  0.00  0.00    -0.284 N 
ATOM      5  C   UNL     1      35.204 -17.518 -23.788  0.00  0.00    +0.188 C 
ATOM      6  C   UNL     1      33.181 -14.661 -22.972  0.00  0.00    +0.037 C 
ATOM      7  C   UNL     1      33.779 -15.689 -23.674  0.00  0.00    +0.170 C 
ATOM      8  C   UNL     1      34.531 -17.820 -25.121  0.00  0.00    +0.246 C 
ATOM      9  C   UNL     1      33.779 -15.621 -25.073  0.00  0.00    +0.172 C 
ATOM     10  C   UNL     1      32.623 -13.578 -23.648  0.00  0.00    +0.050 C 
ATOM     11  C   UNL     1      33.014 -14.464 -21.497  0.00  0.00    +0.116 C 
ATOM     12  C   UNL     1      33.223 -14.516 -25.742  0.00  0.00    +0.041 C 
ATOM     13  C   UNL     1      32.631 -13.474 -25.025  0.00  0.00    +0.018 C 
ATOM     14  C   UNL     1      32.279 -13.122 -21.420  0.00  0.00    +0.231 C 
ATOM     15  H   UNL     1      31.645 -11.834 -22.976  0.00  0.00    +0.155 HD
ENDROOT
BRANCH   5  16
ATOM     16  C   UNL     1      35.513 -18.796 -23.022  0.00  0.00    -0.033 C 
BRANCH  16  17
ATOM     17  N   UNL     1      35.115 -18.680 -21.626  0.00  0.00    +0.389 N 
ATOM     18  H   UNL     1      34.884 -17.707 -21.424  0.00  0.00    -0.084 HD
ATOM     19  H   UNL     1      35.889 -18.992 -21.039  0.00  0.00    -0.084 HD
BRANCH  17  20
ATOM     20  C   UNL     1      33.954 -19.513 -21.344  0.00  0.00    -0.054 C 
BRANCH  20  21
ATOM     21  C   UNL     1      34.248 -20.549 -20.293  0.00  0.00    -0.044 C 
ATOM     22  C   UNL     1      35.563 -20.790 -19.921  0.00  0.00    -0.006 C 
ATOM     23  C   UNL     1      33.201 -21.248 -19.710  0.00  0.00    -0.006 C 
ATOM     24  C   UNL     1      35.836 -21.750 -18.945  0.00  0.00    -0.000 C 
ATOM     25  C   UNL     1      33.473 -22.208 -18.735  0.00  0.00    -0.000 C 
ATOM     26  C   UNL     1      34.791 -22.459 -18.353  0.00  0.00    -0.000 C 
ENDBRANCH  20  21
ENDBRANCH  17  20
ENDBRANCH  16  17
ENDBRANCH   5  16
TORSDOF 4
ENDMDL
MODEL 3
REMARK VINA RESULT:     -10.3      2.631      5.010
REMARK  Name = 158784
REMARK  4 active torsions:
REMARK  status: ('A' for Active; 'I' for Inactive)
REMARK    1  A    between atoms: C_5  and  C_16
REMARK    2  A    between atoms: C_16  and  N_17
REMARK    3  A    between atoms: N_17  and  C_20
REMARK    4  A    between atoms: C_20  and  C_21
REMARK                            x       y       z     vdW  Elec       q    Type
REMARK                         _______ _______ _______ _____ _____    ______ ____
ROOT
ATOM      1  O   UNL     1      34.792 -22.836 -16.168  0.00  0.00    -0.475 OA
ATOM      2  O   UNL     1      35.554 -24.220 -13.755  0.00  0.00    -0.469 OA
ATOM      3  O   UNL     1      29.448 -22.583 -17.214  0.00  0.00    -0.274 OA
ATOM      4  N   UNL     1      30.319 -23.696 -15.336  0.00  0.00    -0.284 N 
ATOM      5  C   UNL     1      36.127 -23.301 -15.925  0.00  0.00    +0.188 C 
ATOM      6  C   UNL     1      32.543 -23.324 -15.638  0.00  0.00    +0.037 C 
ATOM      7  C   UNL     1      33.886 -23.418 -15.328  0.00  0.00    +0.170 C 
ATOM      8  C   UNL     1      36.411 -23.292 -14.428  0.00  0.00    +0.246 C 
ATOM      9  C   UNL     1      34.249 -24.101 -14.160  0.00  0.00    +0.172 C 
ATOM     10  C   UNL     1      31.589 -23.921 -14.817  0.00  0.00    +0.050 C 
ATOM     11  C   UNL     1      31.860 -22.655 -16.790  0.00  0.00    +0.116 C 
ATOM     12  C   UNL     1      33.275 -24.710 -13.348  0.00  0.00    +0.041 C 
ATOM     13  C   UNL     1      31.920 -24.621 -13.674  0.00  0.00    +0.018 C 
ATOM     14  C   UNL     1      30.381 -22.948 -16.515  0.00  0.00    +0.231 C 
ATOM     15  H   UNL     1      29.485 -24.023 -14.927  0.00  0.00    +0.155 HD
ENDROOT
BRANCH   5  16
ATOM     16  C   UNL     1      37.080 -22.383 -16.675  0.00  0.00    -0.033 C 
BRANCH  16  17
ATOM     17  N   UNL     1      36.349 -21.390 -17.452  0.00  0.00    +0.389 N 
ATOM     18  H   UNL     1      36.711 -20.462 -17.234  0.00  0.00    -0.084 HD
ATOM     19  H   UNL     1      35.359 -21.452 -17.211  0.00  0.00    -0.084 HD
BRANCH  17  20
ATOM     20  C   UNL     1      36.495 -21.636 -18.880  0.00  0.00    -0.054 C 
BRANCH  20  21
ATOM     21  C   UNL     1      35.402 -20.978 -19.678  0.00  0.00    -0.044 C 
ATOM     22  C   UNL     1      35.726 -19.992 -20.598  0.00  0.00    -0.006 C 
ATOM     23  C   UNL     1      34.084 -21.367 -19.481  0.00  0.00    -0.006 C 
ATOM     24  C   UNL     1      34.712 -19.382 -21.338  0.00  0.00    -0.000 C 
ATOM     25  C   UNL     1      33.070 -20.758 -20.221  0.00  0.00    -0.000 C 
ATOM     26  C   UNL     1      33.384 -19.765 -21.149  0.00  0.00    -0.000 C 
ENDBRANCH  20  21
ENDBRANCH  17  20
ENDBRANCH  16  17
ENDBRANCH   5  16
TORSDOF 4
ENDMDL
MODEL 4
REMARK VINA RESULT:     -10.3      1.479      2.202
REMARK  Name = 158784
REMARK  4 active torsions:
REMARK  status: ('A' for Active; 'I' for Inactive)
REMARK    1  A    between atoms: C_5  and  C_16
REMARK    2  A    between atoms: C_16  and  N_17
REMARK    3  A    between atoms: N_17  and  C_20
REMARK    4  A    between atoms: C_20  and  C_21
REMARK                            x       y       z     vdW  Elec       q    Type
REMARK                         _______ _______ _______ _____ _____    ______ ____
ROOT
ATOM      1  O   UNL     1      37.700 -23.048 -16.037  0.00  0.00    -0.475 OA
ATOM      2  O   UNL     1      35.129 -23.018 -14.730  0.00  0.00    -0.469 OA
ATOM      3  O   UNL     1      41.359 -26.580 -14.073  0.00  0.00    -0.274 OA
ATOM      4  N   UNL     1      39.212 -26.335 -13.148  0.00  0.00    -0.284 N 
ATOM      5  C   UNL     1      36.767 -21.968 -16.178  0.00  0.00    +0.188 C 
ATOM      6  C   UNL     1      38.360 -24.729 -14.516  0.00  0.00    +0.037 C 
ATOM      7  C   UNL     1      37.398 -23.850 -14.974  0.00  0.00    +0.170 C 
ATOM      8  C   UNL     1      35.344 -22.495 -16.045  0.00  0.00    +0.246 C 
ATOM      9  C   UNL     1      36.156 -23.833 -14.327  0.00  0.00    +0.172 C 
ATOM     10  C   UNL     1      38.098 -25.551 -13.422  0.00  0.00    +0.050 C 
ATOM     11  C   UNL     1      39.752 -24.982 -15.005  0.00  0.00    +0.116 C 
ATOM     12  C   UNL     1      35.910 -24.659 -13.215  0.00  0.00    +0.041 C 
ATOM     13  C   UNL     1      36.891 -25.537 -12.750  0.00  0.00    +0.018 C 
ATOM     14  C   UNL     1      40.252 -26.064 -14.043  0.00  0.00    +0.231 C 
ATOM     15  H   UNL     1      39.263 -26.994 -12.418  0.00  0.00    +0.155 HD
ENDROOT
BRANCH   5  16
ATOM     16  C   UNL     1      36.997 -21.333 -17.541  0.00  0.00    -0.033 C 
BRANCH  16  17
ATOM     17  N   UNL     1      36.181 -21.975 -18.563  0.00  0.00    +0.389 N 
ATOM     18  H   UNL     1      35.197 -21.889 -18.308  0.00  0.00    -0.084 HD
ATOM     19  H   UNL     1      36.448 -22.958 -18.623  0.00  0.00    -0.084 HD
BRANCH  17  20
ATOM     20  C   UNL     1      36.393 -21.356 -19.864  0.00  0.00    -0.054 C 
BRANCH  20  21
ATOM     21  C   UNL     1      35.205 -20.542 -20.298  0.00  0.00    -0.044 C 
ATOM     22  C   UNL     1      35.402 -19.399 -21.062  0.00  0.00    -0.006 C 
ATOM     23  C   UNL     1      33.929 -20.944 -19.930  0.00  0.00    -0.006 C 
ATOM     24  C   UNL     1      34.299 -18.644 -21.465  0.00  0.00    -0.000 C 
ATOM     25  C   UNL     1      32.827 -20.189 -20.333  0.00  0.00    -0.000 C 
ATOM     26  C   UNL     1      33.012 -19.039 -21.100  0.00  0.00    -0.000 C 
ENDBRANCH  20  21
ENDBRANCH  17  20
ENDBRANCH  16  17
ENDBRANCH   5  16
TORSDOF 4
ENDMDL
MODEL 5
REMARK VINA RESULT:     -10.3      8.523     12.716
REMARK  Name = 158784
REMARK  4 active torsions:
REMARK  status: ('A' for Active; 'I' for Inactive)
REMARK    1  A    between atoms: C_5  and  C_16
REMARK    2  A    between atoms: C_16  and  N_17
REMARK    3  A    between atoms: N_17  and  C_20
REMARK    4  A    between atoms: C_20  and  C_21
REMARK                            x       y       z     vdW  Elec       q    Type
REMARK                         _______ _______ _______ _____ _____    ______ ____
ROOT
ATOM      1  O   UNL     1      33.396 -14.825 -21.794  0.00  0.00    -0.475 OA
ATOM      2  O   UNL     1      32.974 -14.350 -24.607  0.00  0.00    -0.469 OA
ATOM      3  O   UNL     1      36.416 -19.178 -20.512  0.00  0.00    -0.274 OA
ATOM      4  N   UNL     1      35.893 -18.609 -22.731  0.00  0.00    -0.284 N 
ATOM      5  C   UNL     1      32.362 -13.965 -22.292  0.00  0.00    +0.188 C 
ATOM      6  C   UNL     1      34.659 -16.728 -22.390  0.00  0.00    +0.037 C 
ATOM      7  C   UNL     1      33.898 -15.639 -22.768  0.00  0.00    +0.170 C 
ATOM      8  C   UNL     1      32.803 -13.338 -23.608  0.00  0.00    +0.246 C 
ATOM      9  C   UNL     1      33.689 -15.421 -24.135  0.00  0.00    +0.172 C 
ATOM     10  C   UNL     1      35.174 -17.595 -23.352  0.00  0.00    +0.050 C 
ATOM     11  C   UNL     1      35.062 -17.203 -21.028  0.00  0.00    +0.116 C 
ATOM     12  C   UNL     1      34.204 -16.312 -25.095  0.00  0.00    +0.041 C 
ATOM     13  C   UNL     1      34.962 -17.418 -24.705  0.00  0.00    +0.018 C 
ATOM     14  C   UNL     1      35.882 -18.459 -21.341  0.00  0.00    +0.231 C 
ATOM     15  H   UNL     1      36.349 -19.340 -23.209  0.00  0.00    +0.155 HD
ENDROOT
BRANCH   5  16
ATOM     16  C   UNL     1      32.094 -12.903 -21.236  0.00  0.00    -0.033 C 
BRANCH  16  17
ATOM     17  N   UNL     1      31.141 -11.913 -21.718  0.00  0.00    +0.389 N 
ATOM     18  H   UNL     1      30.217 -12.341 -21.780  0.00  0.00    -0.084 HD
ATOM     19  H   UNL     1      31.444 -11.588 -22.637  0.00  0.00    -0.084 HD
BRANCH  17  20
ATOM     20  C   UNL     1      31.077 -10.769 -20.818  0.00  0.00    -0.054 C 
BRANCH  20  21
ATOM     21  C   UNL     1      31.874  -9.602 -21.337  0.00  0.00    -0.044 C 
ATOM     22  C   UNL     1      32.200  -8.562 -20.478  0.00  0.00    -0.006 C 
ATOM     23  C   UNL     1      32.271  -9.583 -22.667  0.00  0.00    -0.006 C 
ATOM     24  C   UNL     1      32.939  -7.480 -20.959  0.00  0.00    -0.000 C 
ATOM     25  C   UNL     1      33.009  -8.501 -23.148  0.00  0.00    -0.000 C 
ATOM     26  C   UNL     1      33.343  -7.450 -22.294  0.00  0.00    -0.000 C 
ENDBRANCH  20  21
ENDBRANCH  17  20
ENDBRANCH  16  17
ENDBRANCH   5  16
TORSDOF 4
ENDMDL
MODEL 6
REMARK VINA RESULT:     -10.3      1.046      1.251
REMARK  Name = 158784
REMARK  4 active torsions:
REMARK  status: ('A' for Active; 'I' for Inactive)
REMARK    1  A    between atoms: C_5  and  C_16
REMARK    2  A    between atoms: C_16  and  N_17
REMARK    3  A    between atoms: N_17  and  C_20
REMARK    4  A    between atoms: C_20  and  C_21
REMARK                            x       y       z     vdW  Elec       q    Type
REMARK                         _______ _______ _______ _____ _____    ______ ____
ROOT
ATOM      1  O   UNL     1      34.958 -24.316 -16.019  0.00  0.00    -0.475 OA
ATOM      2  O   UNL     1      33.211 -23.448 -13.894  0.00  0.00    -0.469 OA
ATOM      3  O   UNL     1      39.623 -26.683 -14.486  0.00  0.00    -0.274 OA
ATOM      4  N   UNL     1      38.060 -25.849 -12.942  0.00  0.00    -0.284 N 
ATOM      5  C   UNL     1      33.891 -23.380 -16.221  0.00  0.00    +0.188 C 
ATOM      6  C   UNL     1      36.461 -25.070 -14.361  0.00  0.00    +0.037 C 
ATOM      7  C   UNL     1      35.267 -24.462 -14.697  0.00  0.00    +0.170 C 
ATOM      8  C   UNL     1      32.763 -23.662 -15.237  0.00  0.00    +0.246 C 
ATOM      9  C   UNL     1      34.429 -24.033 -13.660  0.00  0.00    +0.172 C 
ATOM     10  C   UNL     1      36.823 -25.221 -13.025  0.00  0.00    +0.050 C 
ATOM     11  C   UNL     1      37.538 -25.637 -15.234  0.00  0.00    +0.116 C 
ATOM     12  C   UNL     1      34.813 -24.180 -12.314  0.00  0.00    +0.041 C 
ATOM     13  C   UNL     1      36.028 -24.785 -11.983  0.00  0.00    +0.018 C 
ATOM     14  C   UNL     1      38.566 -26.137 -14.213  0.00  0.00    +0.231 C 
ATOM     15  H   UNL     1      38.520 -26.063 -12.098  0.00  0.00    +0.155 HD
ENDROOT
BRANCH   5  16
ATOM     16  C   UNL     1      33.418 -23.521 -17.661  0.00  0.00    -0.033 C 
BRANCH  16  17
ATOM     17  N   UNL     1      33.553 -22.263 -18.383  0.00  0.00    +0.389 N 
ATOM     18  H   UNL     1      33.659 -21.502 -17.712  0.00  0.00    -0.084 HD
ATOM     19  H   UNL     1      32.717 -22.123 -18.952  0.00  0.00    -0.084 HD
BRANCH  17  20
ATOM     20  C   UNL     1      34.714 -22.289 -19.261  0.00  0.00    -0.054 C 
BRANCH  20  21
ATOM     21  C   UNL     1      34.902 -20.981 -19.982  0.00  0.00    -0.044 C 
ATOM     22  C   UNL     1      36.184 -20.490 -20.183  0.00  0.00    -0.006 C 
ATOM     23  C   UNL     1      33.791 -20.284 -20.435  0.00  0.00    -0.006 C 
ATOM     24  C   UNL     1      36.359 -19.278 -20.852  0.00  0.00    -0.000 C 
ATOM     25  C   UNL     1      33.965 -19.073 -21.104  0.00  0.00    -0.000 C 
ATOM     26  C   UNL     1      35.249 -18.569 -21.311  0.00  0.00    -0.000 C 
ENDBRANCH  20  21
ENDBRANCH  17  20
ENDBRANCH  16  17
ENDBRANCH   5  16
TORSDOF 4
ENDMDL
MODEL 7
REMARK VINA RESULT:     -10.2      3.144      5.819
REMARK  Name = 158784
REMARK  4 active torsions:
REMARK  status: ('A' for Active; 'I' for Inactive)
REMARK    1  A    between atoms: C_5  and  C_16
REMARK    2  A    between atoms: C_16  and  N_17
REMARK    3  A    between atoms: N_17  and  C_20
REMARK    4  A    between atoms: C_20  and  C_21
REMARK                            x       y       z     vdW  Elec       q    Type
REMARK                         _______ _______ _______ _____ _____    ______ ____
ROOT
ATOM      1  O   UNL     1      33.160 -23.019 -16.264  0.00  0.00    -0.475 OA
ATOM      2  O   UNL     1      33.843 -24.590 -13.943  0.00  0.00    -0.469 OA
ATOM      3  O   UNL     1      27.839 -22.304 -17.207  0.00  0.00    -0.274 OA
ATOM      4  N   UNL     1      28.645 -23.584 -15.408  0.00  0.00    -0.284 N 
ATOM      5  C   UNL     1      34.458 -23.597 -16.069  0.00  0.00    +0.188 C 
ATOM      6  C   UNL     1      30.887 -23.364 -15.725  0.00  0.00    +0.037 C 
ATOM      7  C   UNL     1      32.223 -23.577 -15.443  0.00  0.00    +0.170 C 
ATOM      8  C   UNL     1      34.761 -23.693 -14.579  0.00  0.00    +0.246 C 
ATOM      9  C   UNL     1      32.547 -24.350 -14.320  0.00  0.00    +0.172 C 
ATOM     10  C   UNL     1      29.900 -23.932 -14.923  0.00  0.00    +0.050 C 
ATOM     11  C   UNL     1      30.243 -22.583 -16.827  0.00  0.00    +0.116 C 
ATOM     12  C   UNL     1      31.539 -24.928 -13.527  0.00  0.00    +0.041 C 
ATOM     13  C   UNL     1      30.190 -24.718 -13.825  0.00  0.00    +0.018 C 
ATOM     14  C   UNL     1      28.750 -22.777 -16.545  0.00  0.00    +0.231 C 
ATOM     15  H   UNL     1      27.793 -23.868 -15.004  0.00  0.00    +0.155 HD
ENDROOT
BRANCH   5  16
ATOM     16  C   UNL     1      35.470 -22.713 -16.783  0.00  0.00    -0.033 C 
BRANCH  16  17
ATOM     17  N   UNL     1      35.023 -22.389 -18.131  0.00  0.00    +0.389 N 
ATOM     18  H   UNL     1      34.175 -21.824 -18.076  0.00  0.00    -0.084 HD
ATOM     19  H   UNL     1      34.839 -23.259 -18.632  0.00  0.00    -0.084 HD
BRANCH  17  20
ATOM     20  C   UNL     1      36.045 -21.644 -18.854  0.00  0.00    -0.054 C 
BRANCH  20  21
ATOM     21  C   UNL     1      35.446 -20.708 -19.868  0.00  0.00    -0.044 C 
ATOM     22  C   UNL     1      36.272 -19.844 -20.573  0.00  0.00    -0.006 C 
ATOM     23  C   UNL     1      34.075 -20.721 -20.085  0.00  0.00    -0.006 C 
ATOM     24  C   UNL     1      35.716 -18.976 -21.513  0.00  0.00    -0.000 C 
ATOM     25  C   UNL     1      33.519 -19.854 -21.025  0.00  0.00    -0.000 C 
ATOM     26  C   UNL     1      34.340 -18.981 -21.739  0.00  0.00    -0.000 C 
ENDBRANCH  20  21
ENDBRANCH  17  20
ENDBRANCH  16  17
ENDBRANCH   5  16
TORSDOF 4
ENDMDL
MODEL 8
REMARK VINA RESULT:     -10.1      9.158     13.342
REMARK  Name = 158784
REMARK  4 active torsions:
REMARK  status: ('A' for Active; 'I' for Inactive)
REMARK    1  A    between atoms: C_5  and  C_16
REMARK    2  A    between atoms: C_16  and  N_17
REMARK    3  A    between atoms: N_17  and  C_20
REMARK    4  A    between atoms: C_20  and  C_21
REMARK                            x       y       z     vdW  Elec       q    Type
REMARK                         _______ _______ _______ _____ _____    ______ ____
ROOT
ATOM      1  O   UNL     1      33.471 -14.485 -22.440  0.00  0.00    -0.475 OA
ATOM      2  O   UNL     1      33.133 -14.477 -25.304  0.00  0.00    -0.469 OA
ATOM      3  O   UNL     1      36.104 -18.771 -20.338  0.00  0.00    -0.274 OA
ATOM      4  N   UNL     1      35.663 -18.559 -22.637  0.00  0.00    -0.284 N 
ATOM      5  C   UNL     1      32.519 -13.647 -23.109  0.00  0.00    +0.188 C 
ATOM      6  C   UNL     1      34.583 -16.556 -22.661  0.00  0.00    +0.037 C 
ATOM      7  C   UNL     1      33.920 -15.493 -23.244  0.00  0.00    +0.170 C 
ATOM      8  C   UNL     1      33.030 -13.296 -24.501  0.00  0.00    +0.246 C 
ATOM      9  C   UNL     1      33.750 -15.502 -24.634  0.00  0.00    +0.172 C 
ATOM     10  C   UNL     1      35.039 -17.615 -23.444  0.00  0.00    +0.050 C 
ATOM     11  C   UNL     1      34.924 -16.816 -21.227  0.00  0.00    +0.116 C 
ATOM     12  C   UNL     1      34.205 -16.583 -25.410  0.00  0.00    +0.041 C 
ATOM     13  C   UNL     1      34.863 -17.661 -24.813  0.00  0.00    +0.018 C 
ATOM     14  C   UNL     1      35.643 -18.168 -21.295  0.00  0.00    +0.231 C 
ATOM     15  H   UNL     1      36.065 -19.394 -22.967  0.00  0.00    +0.155 HD
ENDROOT
BRANCH   5  16
ATOM     16  C   UNL     1      32.323 -12.400 -22.261  0.00  0.00    -0.033 C 
BRANCH  16  17
ATOM     17  N   UNL     1      32.710 -11.201 -22.993  0.00  0.00    +0.389 N 
ATOM     18  H   UNL     1      32.636 -11.383 -23.994  0.00  0.00    -0.084 HD
ATOM     19  H   UNL     1      33.670 -10.963 -22.744  0.00  0.00    -0.084 HD
BRANCH  17  20
ATOM     20  C   UNL     1      31.848 -10.079 -22.648  0.00  0.00    -0.054 C 
BRANCH  20  21
ATOM     21  C   UNL     1      32.337  -8.790 -23.251  0.00  0.00    -0.044 C 
ATOM     22  C   UNL     1      33.701  -8.552 -23.340  0.00  0.00    -0.006 C 
ATOM     23  C   UNL     1      31.417  -7.857 -23.710  0.00  0.00    -0.006 C 
ATOM     24  C   UNL     1      34.155  -7.356 -23.900  0.00  0.00    -0.000 C 
ATOM     25  C   UNL     1      31.870  -6.663 -24.270  0.00  0.00    -0.000 C 
ATOM     26  C   UNL     1      33.239  -6.412 -24.365  0.00  0.00    -0.000 C 
ENDBRANCH  20  21
ENDBRANCH  17  20
ENDBRANCH  16  17
ENDBRANCH   5  16
TORSDOF 4
ENDMDL
MODEL 9
REMARK VINA RESULT:     -10.1      2.447      4.094
REMARK  Name = 158784
REMARK  4 active torsions:
REMARK  status: ('A' for Active; 'I' for Inactive)
REMARK    1  A    between atoms: C_5  and  C_16
REMARK    2  A    between atoms: C_16  and  N_17
REMARK    3  A    between atoms: N_17  and  C_20
REMARK    4  A    between atoms: C_20  and  C_21
REMARK                            x       y       z     vdW  Elec       q    Type
REMARK                         _______ _______ _______ _____ _____    ______ ____
ROOT
ATOM      1  O   UNL     1      35.816 -22.403 -17.624  0.00  0.00    -0.475 OA
ATOM      2  O   UNL     1      32.986 -22.932 -17.807  0.00  0.00    -0.469 OA
ATOM      3  O   UNL     1      38.174 -23.544 -12.844  0.00  0.00    -0.274 OA
ATOM      4  N   UNL     1      35.875 -23.843 -13.224  0.00  0.00    -0.284 N 
ATOM      5  C   UNL     1      34.984 -21.845 -18.650  0.00  0.00    +0.188 C 
ATOM      6  C   UNL     1      35.729 -23.169 -15.392  0.00  0.00    +0.037 C 
ATOM      7  C   UNL     1      35.083 -22.894 -16.582  0.00  0.00    +0.170 C 
ATOM      8  C   UNL     1      33.833 -22.795 -18.954  0.00  0.00    +0.246 C 
ATOM      9  C   UNL     1      33.707 -23.144 -16.660  0.00  0.00    +0.172 C 
ATOM     10  C   UNL     1      35.014 -23.653 -14.298  0.00  0.00    +0.050 C 
ATOM     11  C   UNL     1      37.171 -23.023 -15.017  0.00  0.00    +0.116 C 
ATOM     12  C   UNL     1      32.996 -23.620 -15.543  0.00  0.00    +0.041 C 
ATOM     13  C   UNL     1      33.653 -23.884 -14.340  0.00  0.00    +0.018 C 
ATOM     14  C   UNL     1      37.186 -23.494 -13.559  0.00  0.00    +0.231 C 
ATOM     15  H   UNL     1      35.596 -24.180 -12.341  0.00  0.00    +0.155 HD
ENDROOT
BRANCH   5  16
ATOM     16  C   UNL     1      35.853 -21.618 -19.878  0.00  0.00    -0.033 C 
BRANCH  16  17
ATOM     17  N   UNL     1      35.870 -20.211 -20.256  0.00  0.00    +0.389 N 
ATOM     18  H   UNL     1      36.599 -20.061 -20.953  0.00  0.00    -0.084 HD
ATOM     19  H   UNL     1      36.054 -19.652 -19.422  0.00  0.00    -0.084 HD
BRANCH  17  20
ATOM     20  C   UNL     1      34.587 -19.806 -20.813  0.00  0.00    -0.054 C 
BRANCH  20  21
ATOM     21  C   UNL     1      34.741 -18.733 -21.856  0.00  0.00    -0.044 C 
ATOM     22  C   UNL     1      34.826 -17.405 -21.462  0.00  0.00    -0.006 C 
ATOM     23  C   UNL     1      34.796 -19.086 -23.197  0.00  0.00    -0.006 C 
ATOM     24  C   UNL     1      34.970 -16.409 -22.430  0.00  0.00    -0.000 C 
ATOM     25  C   UNL     1      34.940 -18.091 -24.164  0.00  0.00    -0.000 C 
ATOM     26  C   UNL     1      35.026 -16.753 -23.780  0.00  0.00    -0.000 C 
ENDBRANCH  20  21
ENDBRANCH  17  20
ENDBRANCH  16  17
ENDBRANCH   5  16
TORSDOF 4
ENDMDL
