MODEL 1
REMARK VINA RESULT:      -7.0      0.000      0.000
REMARK  Name = 656979
REMARK  7 active torsions:
REMARK  status: ('A' for Active; 'I' for Inactive)
REMARK    1  A    between atoms: C_1  and  CA_2
REMARK    2  A    between atoms: C_1  and  C_12
REMARK    3  A    between atoms: CA_2  and  N_4
REMARK    4  A    between atoms: CA_2  and  C_9
REMARK    5  A    between atoms: C_9  and  O_10
REMARK    6  A    between atoms: C_12  and  C_13
REMARK    7  A    between atoms: C_13  and  N_15
REMARK                            x       y       z     vdW  Elec       q    Type
REMARK                         _______ _______ _______ _____ _____    ______ ____
ROOT
ATOM      1  C   UNL     1      37.604 -25.992 -15.118  0.00  0.00    +0.033 C 
ENDROOT
BRANCH   1   2
ATOM      2  CA  UNL     1      38.517 -24.804 -14.816  0.00  0.00    +0.171 C 
BRANCH   2   4
ATOM      3  O   UNL     1      36.287 -22.945 -14.787  0.00  0.00    -0.275 OA
ATOM      4  N   UNL     1      38.287 -23.698 -15.711  0.00  0.00    -0.297 N 
ATOM      5  C   UNL     1      37.187 -22.860 -15.619  0.00  0.00    +0.223 C 
ATOM      6  C   UNL     1      37.206 -21.773 -16.660  0.00  0.00    +0.095 C 
ATOM      7  H   UNL     1      38.945 -23.529 -16.423  0.00  0.00    +0.150 HD
ENDBRANCH   2   4
BRANCH   2   9
ATOM      8  OXT UNL     1      40.863 -24.939 -14.173  0.00  0.00    -0.248 OA
ATOM      9  C   UNL     1      39.971 -25.202 -14.970  0.00  0.00    +0.332 C 
BRANCH   9  10
ATOM     10  O   UNL     1      40.198 -25.856 -16.139  0.00  0.00    -0.479 OA
ATOM     11  H   UNL     1      41.023 -25.766 -16.573  0.00  0.00    +0.295 HD
ENDBRANCH   9  10
ENDBRANCH   2   9
ENDBRANCH   1   2
BRANCH   1  12
ATOM     12  C   UNL     1      37.476 -26.948 -13.929  0.00  0.00    +0.024 C 
BRANCH  12  13
ATOM     13  C   UNL     1      37.251 -26.185 -12.628  0.00  0.00    +0.091 C 
BRANCH  13  15
ATOM     14  O   UNL     1      36.426 -24.194 -10.688  0.00  0.00    -0.253 OA
ATOM     15  N   UNL     1      36.164 -25.251 -12.745  0.00  0.00    -0.289 N 
ATOM     16  N   UNL     1      34.752 -23.543 -12.116  0.00  0.00    -0.313 N 
ATOM     17  C   UNL     1      35.836 -24.323 -11.759  0.00  0.00    +0.298 C 
ATOM     18  H   UNL     1      35.622 -25.268 -13.567  0.00  0.00    +0.151 HD
ATOM     19  H   UNL     1      34.421 -22.848 -11.502  0.00  0.00    +0.146 HD
ATOM     20  H   UNL     1      34.309 -23.683 -12.985  0.00  0.00    +0.146 HD
ENDBRANCH  13  15
ENDBRANCH  12  13
ENDBRANCH   1  12
TORSDOF 7
ENDMDL
MODEL 2
REMARK VINA RESULT:      -6.8      9.562     12.665
REMARK  Name = 656979
REMARK  7 active torsions:
REMARK  status: ('A' for Active; 'I' for Inactive)
REMARK    1  A    between atoms: C_1  and  CA_2
REMARK    2  A    between atoms: C_1  and  C_12
REMARK    3  A    between atoms: CA_2  and  N_4
REMARK    4  A    between atoms: CA_2  and  C_9
REMARK    5  A    between atoms: C_9  and  O_10
REMARK    6  A    between atoms: C_12  and  C_13
REMARK    7  A    between atoms: C_13  and  N_15
REMARK                            x       y       z     vdW  Elec       q    Type
REMARK                         _______ _______ _______ _____ _____    ______ ____
ROOT
ATOM      1  C   UNL     1      35.813 -17.842 -23.000  0.00  0.00    +0.033 C 
ENDROOT
BRANCH   1   2
ATOM      2  CA  UNL     1      35.308 -17.712 -21.564  0.00  0.00    +0.171 C 
BRANCH   2   4
ATOM      3  O   UNL     1      35.286 -20.216 -20.094  0.00  0.00    -0.275 OA
ATOM      4  N   UNL     1      34.176 -18.565 -21.305  0.00  0.00    -0.297 N 
ATOM      5  C   UNL     1      34.263 -19.749 -20.588  0.00  0.00    +0.223 C 
ATOM      6  C   UNL     1      32.928 -20.430 -20.443  0.00  0.00    +0.095 C 
ATOM      7  H   UNL     1      33.296 -18.293 -21.652  0.00  0.00    +0.150 HD
ENDBRANCH   2   4
BRANCH   2   9
ATOM      8  OXT UNL     1      34.489 -15.490 -22.135  0.00  0.00    -0.248 OA
ATOM      9  C   UNL     1      34.861 -16.290 -21.286  0.00  0.00    +0.332 C 
BRANCH   9  10
ATOM     10  O   UNL     1      34.966 -15.972 -19.970  0.00  0.00    -0.479 OA
ATOM     11  H   UNL     1      35.801 -15.746 -19.608  0.00  0.00    +0.295 HD
ENDBRANCH   9  10
ENDBRANCH   2   9
ENDBRANCH   1   2
BRANCH   1  12
ATOM     12  C   UNL     1      34.831 -18.596 -23.899  0.00  0.00    +0.024 C 
BRANCH  12  13
ATOM     13  C   UNL     1      34.452 -17.768 -25.122  0.00  0.00    +0.091 C 
BRANCH  13  15
ATOM     14  O   UNL     1      32.904 -15.819 -26.609  0.00  0.00    -0.253 OA
ATOM     15  N   UNL     1      34.217 -16.392 -24.775  0.00  0.00    -0.289 N 
ATOM     16  N   UNL     1      33.384 -14.256 -24.998  0.00  0.00    -0.313 N 
ATOM     17  C   UNL     1      33.456 -15.521 -25.551  0.00  0.00    +0.298 C 
ATOM     18  H   UNL     1      34.615 -16.047 -23.944  0.00  0.00    +0.151 HD
ATOM     19  H   UNL     1      32.873 -13.547 -25.454  0.00  0.00    +0.146 HD
ATOM     20  H   UNL     1      33.843 -14.063 -24.149  0.00  0.00    +0.146 HD
ENDBRANCH  13  15
ENDBRANCH  12  13
ENDBRANCH   1  12
TORSDOF 7
ENDMDL
MODEL 3
REMARK VINA RESULT:      -6.7      6.976      9.079
REMARK  Name = 656979
REMARK  7 active torsions:
REMARK  status: ('A' for Active; 'I' for Inactive)
REMARK    1  A    between atoms: C_1  and  CA_2
REMARK    2  A    between atoms: C_1  and  C_12
REMARK    3  A    between atoms: CA_2  and  N_4
REMARK    4  A    between atoms: CA_2  and  C_9
REMARK    5  A    between atoms: C_9  and  O_10
REMARK    6  A    between atoms: C_12  and  C_13
REMARK    7  A    between atoms: C_13  and  N_15
REMARK                            x       y       z     vdW  Elec       q    Type
REMARK                         _______ _______ _______ _____ _____    ______ ____
ROOT
ATOM      1  C   UNL     1      33.726 -19.435 -21.545  0.00  0.00    +0.033 C 
ENDROOT
BRANCH   1   2
ATOM      2  CA  UNL     1      34.666 -18.313 -21.106  0.00  0.00    +0.171 C 
BRANCH   2   4
ATOM      3  O   UNL     1      34.874 -15.567 -20.187  0.00  0.00    -0.275 OA
ATOM      4  N   UNL     1      34.484 -17.113 -21.884  0.00  0.00    -0.297 N 
ATOM      5  C   UNL     1      34.605 -15.837 -21.355  0.00  0.00    +0.223 C 
ATOM      6  C   UNL     1      34.391 -14.766 -22.390  0.00  0.00    +0.095 C 
ATOM      7  H   UNL     1      34.265 -17.204 -22.839  0.00  0.00    +0.150 HD
ENDBRANCH   2   4
BRANCH   2   9
ATOM      8  OXT UNL     1      36.772 -19.346 -20.450  0.00  0.00    -0.248 OA
ATOM      9  C   UNL     1      36.112 -18.735 -21.280  0.00  0.00    +0.332 C 
BRANCH   9  10
ATOM     10  O   UNL     1      36.626 -18.313 -22.465  0.00  0.00    -0.479 OA
ATOM     11  H   UNL     1      36.313 -18.680 -23.268  0.00  0.00    +0.295 HD
ENDBRANCH   9  10
ENDBRANCH   2   9
ENDBRANCH   1   2
BRANCH   1  12
ATOM     12  C   UNL     1      32.977 -20.064 -20.368  0.00  0.00    +0.024 C 
BRANCH  12  13
ATOM     13  C   UNL     1      33.656 -21.346 -19.902  0.00  0.00    +0.091 C 
BRANCH  13  15
ATOM     14  O   UNL     1      34.653 -23.019 -17.754  0.00  0.00    -0.253 OA
ATOM     15  N   UNL     1      32.887 -22.012 -18.886  0.00  0.00    -0.289 N 
ATOM     16  N   UNL     1      32.495 -23.327 -17.036  0.00  0.00    -0.313 N 
ATOM     17  C   UNL     1      33.449 -22.801 -17.886  0.00  0.00    +0.298 C 
ATOM     18  H   UNL     1      31.908 -21.905 -18.899  0.00  0.00    +0.151 HD
ATOM     19  H   UNL     1      32.767 -23.904 -16.285  0.00  0.00    +0.146 HD
ATOM     20  H   UNL     1      31.541 -23.126 -17.180  0.00  0.00    +0.146 HD
ENDBRANCH  13  15
ENDBRANCH  12  13
ENDBRANCH   1  12
TORSDOF 7
ENDMDL
MODEL 4
REMARK VINA RESULT:      -6.7      6.103      7.706
REMARK  Name = 656979
REMARK  7 active torsions:
REMARK  status: ('A' for Active; 'I' for Inactive)
REMARK    1  A    between atoms: C_1  and  CA_2
REMARK    2  A    between atoms: C_1  and  C_12
REMARK    3  A    between atoms: CA_2  and  N_4
REMARK    4  A    between atoms: CA_2  and  C_9
REMARK    5  A    between atoms: C_9  and  O_10
REMARK    6  A    between atoms: C_12  and  C_13
REMARK    7  A    between atoms: C_13  and  N_15
REMARK                            x       y       z     vdW  Elec       q    Type
REMARK                         _______ _______ _______ _____ _____    ______ ____
ROOT
ATOM      1  C   UNL     1      31.574 -23.074 -15.682  0.00  0.00    +0.033 C 
ENDROOT
BRANCH   1   2
ATOM      2  CA  UNL     1      30.354 -23.995 -15.701  0.00  0.00    +0.171 C 
BRANCH   2   4
ATOM      3  O   UNL     1      28.296 -23.296 -17.626  0.00  0.00    -0.275 OA
ATOM      4  N   UNL     1      29.127 -23.281 -15.450  0.00  0.00    -0.297 N 
ATOM      5  C   UNL     1      28.199 -22.992 -16.440  0.00  0.00    +0.223 C 
ATOM      6  C   UNL     1      26.999 -22.261 -15.901  0.00  0.00    +0.095 C 
ATOM      7  H   UNL     1      28.938 -22.985 -14.531  0.00  0.00    +0.150 HD
ENDBRANCH   2   4
BRANCH   2   9
ATOM      8  OXT UNL     1      31.527 -25.453 -14.142  0.00  0.00    -0.248 OA
ATOM      9  C   UNL     1      30.475 -25.055 -14.624  0.00  0.00    +0.332 C 
BRANCH   9  10
ATOM     10  O   UNL     1      29.265 -25.565 -14.276  0.00  0.00    -0.479 OA
ATOM     11  H   UNL     1      29.212 -26.406 -13.865  0.00  0.00    +0.295 HD
ENDBRANCH   9  10
ENDBRANCH   2   9
ENDBRANCH   1   2
BRANCH   1  12
ATOM     12  C   UNL     1      32.448 -23.237 -16.927  0.00  0.00    +0.024 C 
BRANCH  12  13
ATOM     13  C   UNL     1      33.921 -23.367 -16.555  0.00  0.00    +0.091 C 
BRANCH  13  15
ATOM     14  O   UNL     1      35.869 -25.268 -15.554  0.00  0.00    -0.253 OA
ATOM     15  N   UNL     1      34.086 -23.814 -15.199  0.00  0.00    -0.289 N 
ATOM     16  N   UNL     1      35.001 -24.997 -13.446  0.00  0.00    -0.313 N 
ATOM     17  C   UNL     1      35.053 -24.735 -14.803  0.00  0.00    +0.298 C 
ATOM     18  H   UNL     1      33.482 -23.450 -14.513  0.00  0.00    +0.151 HD
ATOM     19  H   UNL     1      35.636 -25.633 -13.042  0.00  0.00    +0.146 HD
ATOM     20  H   UNL     1      34.330 -24.547 -12.883  0.00  0.00    +0.146 HD
ENDBRANCH  13  15
ENDBRANCH  12  13
ENDBRANCH   1  12
TORSDOF 7
ENDMDL
MODEL 5
REMARK VINA RESULT:      -6.6      7.542      9.944
REMARK  Name = 656979
REMARK  7 active torsions:
REMARK  status: ('A' for Active; 'I' for Inactive)
REMARK    1  A    between atoms: C_1  and  CA_2
REMARK    2  A    between atoms: C_1  and  C_12
REMARK    3  A    between atoms: CA_2  and  N_4
REMARK    4  A    between atoms: CA_2  and  C_9
REMARK    5  A    between atoms: C_9  and  O_10
REMARK    6  A    between atoms: C_12  and  C_13
REMARK    7  A    between atoms: C_13  and  N_15
REMARK                            x       y       z     vdW  Elec       q    Type
REMARK                         _______ _______ _______ _____ _____    ______ ____
ROOT
ATOM      1  C   UNL     1      35.080 -18.927 -21.161  0.00  0.00    +0.033 C 
ENDROOT
BRANCH   1   2
ATOM      2  CA  UNL     1      35.186 -17.481 -21.645  0.00  0.00    +0.171 C 
BRANCH   2   4
ATOM      3  O   UNL     1      35.013 -14.933 -20.264  0.00  0.00    -0.275 OA
ATOM      4  N   UNL     1      33.996 -16.721 -21.356  0.00  0.00    -0.297 N 
ATOM      5  C   UNL     1      34.013 -15.506 -20.688  0.00  0.00    +0.223 C 
ATOM      6  C   UNL     1      32.636 -14.914 -20.542  0.00  0.00    +0.095 C 
ATOM      7  H   UNL     1      33.128 -17.081 -21.649  0.00  0.00    +0.150 HD
ENDBRANCH   2   4
BRANCH   2   9
ATOM      8  OXT UNL     1      35.298 -18.405 -23.896  0.00  0.00    -0.248 OA
ATOM      9  C   UNL     1      35.381 -17.440 -23.147  0.00  0.00    +0.332 C 
BRANCH   9  10
ATOM     10  O   UNL     1      35.715 -16.197 -23.582  0.00  0.00    -0.479 OA
ATOM     11  H   UNL     1      35.853 -16.042 -24.496  0.00  0.00    +0.295 HD
ENDBRANCH   9  10
ENDBRANCH   2   9
ENDBRANCH   1   2
BRANCH   1  12
ATOM     12  C   UNL     1      36.420 -19.477 -20.666  0.00  0.00    +0.024 C 
BRANCH  12  13
ATOM     13  C   UNL     1      36.244 -20.825 -19.977  0.00  0.00    +0.091 C 
BRANCH  13  15
ATOM     14  O   UNL     1      35.046 -22.704 -18.121  0.00  0.00    -0.253 OA
ATOM     15  N   UNL     1      34.857 -21.191 -19.879  0.00  0.00    -0.289 N 
ATOM     16  N   UNL     1      32.998 -22.283 -19.067  0.00  0.00    -0.313 N 
ATOM     17  C   UNL     1      34.364 -22.108 -18.953  0.00  0.00    +0.298 C 
ATOM     18  H   UNL     1      34.220 -20.771 -20.502  0.00  0.00    +0.151 HD
ATOM     19  H   UNL     1      32.529 -22.907 -18.466  0.00  0.00    +0.146 HD
ATOM     20  H   UNL     1      32.492 -21.784 -19.749  0.00  0.00    +0.146 HD
ENDBRANCH  13  15
ENDBRANCH  12  13
ENDBRANCH   1  12
TORSDOF 7
ENDMDL
MODEL 6
REMARK VINA RESULT:      -6.5      9.697     12.580
REMARK  Name = 656979
REMARK  7 active torsions:
REMARK  status: ('A' for Active; 'I' for Inactive)
REMARK    1  A    between atoms: C_1  and  CA_2
REMARK    2  A    between atoms: C_1  and  C_12
REMARK    3  A    between atoms: CA_2  and  N_4
REMARK    4  A    between atoms: CA_2  and  C_9
REMARK    5  A    between atoms: C_9  and  O_10
REMARK    6  A    between atoms: C_12  and  C_13
REMARK    7  A    between atoms: C_13  and  N_15
REMARK                            x       y       z     vdW  Elec       q    Type
REMARK                         _______ _______ _______ _____ _____    ______ ____
ROOT
ATOM      1  C   UNL     1      35.484 -18.500 -23.125  0.00  0.00    +0.033 C 
ENDROOT
BRANCH   1   2
ATOM      2  CA  UNL     1      34.706 -18.384 -21.814  0.00  0.00    +0.171 C 
BRANCH   2   4
ATOM      3  O   UNL     1      33.181 -15.926 -22.055  0.00  0.00    -0.275 OA
ATOM      4  N   UNL     1      34.951 -17.133 -21.143  0.00  0.00    -0.297 N 
ATOM      5  C   UNL     1      34.163 -16.006 -21.322  0.00  0.00    +0.223 C 
ATOM      6  C   UNL     1      34.625 -14.846 -20.482  0.00  0.00    +0.095 C 
ATOM      7  H   UNL     1      35.716 -17.076 -20.525  0.00  0.00    +0.150 HD
ENDBRANCH   2   4
BRANCH   2   9
ATOM      8  OXT UNL     1      34.414 -20.433 -20.528  0.00  0.00    -0.248 OA
ATOM      9  C   UNL     1      35.117 -19.486 -20.857  0.00  0.00    +0.332 C 
BRANCH   9  10
ATOM     10  O   UNL     1      36.361 -19.281 -20.351  0.00  0.00    -0.479 OA
ATOM     11  H   UNL     1      37.105 -19.668 -20.768  0.00  0.00    +0.295 HD
ENDBRANCH   9  10
ENDBRANCH   2   9
ENDBRANCH   1   2
BRANCH   1  12
ATOM     12  C   UNL     1      34.567 -18.718 -24.331  0.00  0.00    +0.024 C 
BRANCH  12  13
ATOM     13  C   UNL     1      34.648 -17.549 -25.306  0.00  0.00    +0.091 C 
BRANCH  13  15
ATOM     14  O   UNL     1      33.449 -15.335 -26.744  0.00  0.00    -0.253 OA
ATOM     15  N   UNL     1      34.074 -16.355 -24.748  0.00  0.00    -0.289 N 
ATOM     16  N   UNL     1      33.033 -14.300 -24.738  0.00  0.00    -0.313 N 
ATOM     17  C   UNL     1      33.516 -15.336 -25.516  0.00  0.00    +0.298 C 
ATOM     18  H   UNL     1      34.075 -16.252 -23.769  0.00  0.00    +0.151 HD
ATOM     19  H   UNL     1      32.614 -13.517 -25.165  0.00  0.00    +0.146 HD
ATOM     20  H   UNL     1      33.109 -14.343 -23.757  0.00  0.00    +0.146 HD
ENDBRANCH  13  15
ENDBRANCH  12  13
ENDBRANCH   1  12
TORSDOF 7
ENDMDL
MODEL 7
REMARK VINA RESULT:      -6.5      9.856     12.810
REMARK  Name = 656979
REMARK  7 active torsions:
REMARK  status: ('A' for Active; 'I' for Inactive)
REMARK    1  A    between atoms: C_1  and  CA_2
REMARK    2  A    between atoms: C_1  and  C_12
REMARK    3  A    between atoms: CA_2  and  N_4
REMARK    4  A    between atoms: CA_2  and  C_9
REMARK    5  A    between atoms: C_9  and  O_10
REMARK    6  A    between atoms: C_12  and  C_13
REMARK    7  A    between atoms: C_13  and  N_15
REMARK                            x       y       z     vdW  Elec       q    Type
REMARK                         _______ _______ _______ _____ _____    ______ ____
ROOT
ATOM      1  C   UNL     1      34.715 -16.002 -21.175  0.00  0.00    +0.033 C 
ENDROOT
BRANCH   1   2
ATOM      2  CA  UNL     1      34.452 -17.330 -21.883  0.00  0.00    +0.171 C 
BRANCH   2   4
ATOM      3  O   UNL     1      33.189 -19.846 -21.172  0.00  0.00    -0.275 OA
ATOM      4  N   UNL     1      35.049 -18.445 -21.192  0.00  0.00    -0.297 N 
ATOM      5  C   UNL     1      34.363 -19.613 -20.896  0.00  0.00    +0.223 C 
ATOM      6  C   UNL     1      35.230 -20.623 -20.193  0.00  0.00    +0.095 C 
ATOM      7  H   UNL     1      35.992 -18.374 -20.919  0.00  0.00    +0.150 HD
ENDBRANCH   2   4
BRANCH   2   9
ATOM      8  OXT UNL     1      34.972 -18.229 -24.087  0.00  0.00    -0.248 OA
ATOM      9  C   UNL     1      35.041 -17.311 -23.280  0.00  0.00    +0.332 C 
BRANCH   9  10
ATOM     10  O   UNL     1      35.712 -16.157 -23.532  0.00  0.00    -0.479 OA
ATOM     11  H   UNL     1      35.322 -15.497 -24.071  0.00  0.00    +0.295 HD
ENDBRANCH   9  10
ENDBRANCH   2   9
ENDBRANCH   1   2
BRANCH   1  12
ATOM     12  C   UNL     1      33.430 -15.347 -20.665  0.00  0.00    +0.024 C 
BRANCH  12  13
ATOM     13  C   UNL     1      32.591 -14.802 -21.816  0.00  0.00    +0.091 C 
BRANCH  13  15
ATOM     14  O   UNL     1      33.448 -14.418 -24.559  0.00  0.00    -0.253 OA
ATOM     15  N   UNL     1      33.182 -13.623 -22.388  0.00  0.00    -0.289 N 
ATOM     16  N   UNL     1      34.107 -12.287 -24.021  0.00  0.00    -0.313 N 
ATOM     17  C   UNL     1      33.566 -13.523 -23.723  0.00  0.00    +0.298 C 
ATOM     18  H   UNL     1      33.323 -12.843 -21.804  0.00  0.00    +0.151 HD
ATOM     19  H   UNL     1      34.418 -12.091 -24.935  0.00  0.00    +0.146 HD
ATOM     20  H   UNL     1      34.183 -11.600 -23.318  0.00  0.00    +0.146 HD
ENDBRANCH  13  15
ENDBRANCH  12  13
ENDBRANCH   1  12
TORSDOF 7
ENDMDL
MODEL 8
REMARK VINA RESULT:      -6.5     10.649     13.364
REMARK  Name = 656979
REMARK  7 active torsions:
REMARK  status: ('A' for Active; 'I' for Inactive)
REMARK    1  A    between atoms: C_1  and  CA_2
REMARK    2  A    between atoms: C_1  and  C_12
REMARK    3  A    between atoms: CA_2  and  N_4
REMARK    4  A    between atoms: CA_2  and  C_9
REMARK    5  A    between atoms: C_9  and  O_10
REMARK    6  A    between atoms: C_12  and  C_13
REMARK    7  A    between atoms: C_13  and  N_15
REMARK                            x       y       z     vdW  Elec       q    Type
REMARK                         _______ _______ _______ _____ _____    ______ ____
ROOT
ATOM      1  C   UNL     1      34.986 -16.766 -24.707  0.00  0.00    +0.033 C 
ENDROOT
BRANCH   1   2
ATOM      2  CA  UNL     1      33.987 -15.715 -24.224  0.00  0.00    +0.171 C 
BRANCH   2   4
ATOM      3  O   UNL     1      32.536 -15.707 -26.739  0.00  0.00    -0.275 OA
ATOM      4  N   UNL     1      33.853 -14.622 -25.154  0.00  0.00    -0.297 N 
ATOM      5  C   UNL     1      33.135 -14.713 -26.337  0.00  0.00    +0.223 C 
ATOM      6  C   UNL     1      33.136 -13.420 -27.108  0.00  0.00    +0.095 C 
ATOM      7  H   UNL     1      34.292 -13.768 -24.939  0.00  0.00    +0.150 HD
ENDBRANCH   2   4
BRANCH   2   9
ATOM      8  OXT UNL     1      34.751 -15.761 -21.912  0.00  0.00    -0.248 OA
ATOM      9  C   UNL     1      34.443 -15.119 -22.907  0.00  0.00    +0.332 C 
BRANCH   9  10
ATOM     10  O   UNL     1      34.426 -13.760 -22.931  0.00  0.00    -0.479 OA
ATOM     11  H   UNL     1      33.931 -13.287 -22.291  0.00  0.00    +0.295 HD
ENDBRANCH   9  10
ENDBRANCH   2   9
ENDBRANCH   1   2
BRANCH   1  12
ATOM     12  C   UNL     1      34.316 -18.103 -25.033  0.00  0.00    +0.024 C 
BRANCH  12  13
ATOM     13  C   UNL     1      34.792 -19.204 -24.092  0.00  0.00    +0.091 C 
BRANCH  13  15
ATOM     14  O   UNL     1      34.264 -19.935 -21.336  0.00  0.00    -0.253 OA
ATOM     15  N   UNL     1      35.409 -18.661 -22.913  0.00  0.00    -0.289 N 
ATOM     16  N   UNL     1      35.827 -18.395 -20.663  0.00  0.00    -0.313 N 
ATOM     17  C   UNL     1      35.094 -19.072 -21.619  0.00  0.00    +0.298 C 
ATOM     18  H   UNL     1      36.091 -17.960 -23.025  0.00  0.00    +0.151 HD
ATOM     19  H   UNL     1      35.696 -18.596 -19.708  0.00  0.00    +0.146 HD
ATOM     20  H   UNL     1      36.481 -17.710 -20.936  0.00  0.00    +0.146 HD
ENDBRANCH  13  15
ENDBRANCH  12  13
ENDBRANCH   1  12
TORSDOF 7
ENDMDL
MODEL 9
REMARK VINA RESULT:      -6.5      8.877     11.517
REMARK  Name = 656979
REMARK  7 active torsions:
REMARK  status: ('A' for Active; 'I' for Inactive)
REMARK    1  A    between atoms: C_1  and  CA_2
REMARK    2  A    between atoms: C_1  and  C_12
REMARK    3  A    between atoms: CA_2  and  N_4
REMARK    4  A    between atoms: CA_2  and  C_9
REMARK    5  A    between atoms: C_9  and  O_10
REMARK    6  A    between atoms: C_12  and  C_13
REMARK    7  A    between atoms: C_13  and  N_15
REMARK                            x       y       z     vdW  Elec       q    Type
REMARK                         _______ _______ _______ _____ _____    ______ ____
ROOT
ATOM      1  C   UNL     1      34.927 -18.007 -23.116  0.00  0.00    +0.033 C 
ENDROOT
BRANCH   1   2
ATOM      2  CA  UNL     1      34.758 -16.500 -23.305  0.00  0.00    +0.171 C 
BRANCH   2   4
ATOM      3  O   UNL     1      35.018 -15.705 -20.525  0.00  0.00    -0.275 OA
ATOM      4  N   UNL     1      33.733 -15.954 -22.451  0.00  0.00    -0.297 N 
ATOM      5  C   UNL     1      33.953 -15.602 -21.128  0.00  0.00    +0.223 C 
ATOM      6  C   UNL     1      32.721 -15.034 -20.475  0.00  0.00    +0.095 C 
ATOM      7  H   UNL     1      32.833 -15.824 -22.826  0.00  0.00    +0.150 HD
ENDBRANCH   2   4
BRANCH   2   9
ATOM      8  OXT UNL     1      34.820 -16.724 -25.730  0.00  0.00    -0.248 OA
ATOM      9  C   UNL     1      34.354 -16.188 -24.733  0.00  0.00    +0.332 C 
BRANCH   9  10
ATOM     10  O   UNL     1      33.433 -15.191 -24.794  0.00  0.00    -0.479 OA
ATOM     11  H   UNL     1      33.457 -14.493 -24.170  0.00  0.00    +0.295 HD
ENDBRANCH   9  10
ENDBRANCH   2   9
ENDBRANCH   1   2
BRANCH   1  12
ATOM     12  C   UNL     1      36.216 -18.363 -22.373  0.00  0.00    +0.024 C 
BRANCH  12  13
ATOM     13  C   UNL     1      35.919 -19.091 -21.067  0.00  0.00    +0.091 C 
BRANCH  13  15
ATOM     14  O   UNL     1      34.741 -21.280 -19.574  0.00  0.00    -0.253 OA
ATOM     15  N   UNL     1      34.523 -19.414 -20.948  0.00  0.00    -0.289 N 
ATOM     16  N   UNL     1      32.663 -20.583 -20.255  0.00  0.00    -0.313 N 
ATOM     17  C   UNL     1      34.042 -20.490 -20.206  0.00  0.00    +0.298 C 
ATOM     18  H   UNL     1      33.872 -18.845 -21.418  0.00  0.00    +0.151 HD
ATOM     19  H   UNL     1      32.200 -21.304 -19.769  0.00  0.00    +0.146 HD
ATOM     20  H   UNL     1      32.143 -19.928 -20.775  0.00  0.00    +0.146 HD
ENDBRANCH  13  15
ENDBRANCH  12  13
ENDBRANCH   1  12
TORSDOF 7
ENDMDL
