MODEL 1
REMARK VINA RESULT:      -7.4      0.000      0.000
REMARK  Name = 82313
REMARK  6 active torsions:
REMARK  status: ('A' for Active; 'I' for Inactive)
REMARK    1  A    between atoms: C_2  and  O_12
REMARK    2  A    between atoms: C_3  and  N_8
REMARK    3  A    between atoms: C_4  and  O_14
REMARK    4  A    between atoms: C_5  and  C_18
REMARK    5  A    between atoms: C_6  and  O_16
REMARK    6  A    between atoms: C_18  and  O_19
REMARK                            x       y       z     vdW  Elec       q    Type
REMARK                         _______ _______ _______ _____ _____    ______ ____
ROOT
ATOM      1  O   UNL     1      38.554 -23.694 -14.932  0.00  0.00    -0.327 OA
ATOM      2  C   UNL     1      36.496 -25.708 -14.812  0.00  0.00    +0.162 C 
ATOM      3  C   UNL     1      36.218 -24.266 -15.244  0.00  0.00    +0.158 C 
ATOM      4  C   UNL     1      37.968 -26.062 -15.047  0.00  0.00    +0.169 C 
ATOM      5  C   UNL     1      38.899 -24.998 -14.452  0.00  0.00    +0.176 C 
ATOM      6  C   UNL     1      37.220 -23.301 -14.604  0.00  0.00    +0.253 C 
ENDROOT
BRANCH   3   8
ATOM      7  O   UNL     1      34.126 -23.562 -17.131  0.00  0.00    -0.275 OA
ATOM      8  N   UNL     1      34.858 -23.880 -14.944  0.00  0.00    -0.299 N 
ATOM      9  C   UNL     1      33.928 -23.561 -15.920  0.00  0.00    +0.223 C 
ATOM     10  C   UNL     1      32.582 -23.221 -15.335  0.00  0.00    +0.095 C 
ATOM     11  H   UNL     1      34.579 -23.843 -14.001  0.00  0.00    +0.150 HD
ENDBRANCH   3   8
BRANCH   2  12
ATOM     12  O   UNL     1      35.683 -26.585 -15.594  0.00  0.00    -0.380 OA
ATOM     13  H   UNL     1      35.523 -26.187 -16.464  0.00  0.00    +0.211 HD
ENDBRANCH   2  12
BRANCH   4  14
ATOM     14  O   UNL     1      38.217 -27.330 -14.445  0.00  0.00    -0.379 OA
ATOM     15  H   UNL     1      37.460 -27.915 -14.600  0.00  0.00    +0.211 HD
ENDBRANCH   4  14
BRANCH   6  16
ATOM     16  O   UNL     1      37.015 -23.232 -13.195  0.00  0.00    -0.359 OA
ATOM     17  H   UNL     1      36.065 -23.161 -13.009  0.00  0.00    +0.213 HD
ENDBRANCH   6  16
BRANCH   5  18
ATOM     18  C   UNL     1      40.358 -25.241 -14.826  0.00  0.00    +0.169 C 
BRANCH  18  19
ATOM     19  O   UNL     1      40.397 -25.954 -16.048  0.00  0.00    -0.379 OA
ATOM     20  H   UNL     1      40.180 -25.356 -16.779  0.00  0.00    +0.211 HD
ENDBRANCH  18  19
ENDBRANCH   5  18
TORSDOF 6
ENDMDL
MODEL 2
REMARK VINA RESULT:      -6.9      1.614      2.856
REMARK  Name = 82313
REMARK  6 active torsions:
REMARK  status: ('A' for Active; 'I' for Inactive)
REMARK    1  A    between atoms: C_2  and  O_12
REMARK    2  A    between atoms: C_3  and  N_8
REMARK    3  A    between atoms: C_4  and  O_14
REMARK    4  A    between atoms: C_5  and  C_18
REMARK    5  A    between atoms: C_6  and  O_16
REMARK    6  A    between atoms: C_18  and  O_19
REMARK                            x       y       z     vdW  Elec       q    Type
REMARK                         _______ _______ _______ _____ _____    ______ ____
ROOT
ATOM      1  O   UNL     1      38.088 -26.618 -14.083  0.00  0.00    -0.327 OA
ATOM      2  C   UNL     1      36.932 -24.174 -15.081  0.00  0.00    +0.162 C 
ATOM      3  C   UNL     1      36.161 -25.148 -14.186  0.00  0.00    +0.158 C 
ATOM      4  C   UNL     1      38.441 -24.333 -14.869  0.00  0.00    +0.169 C 
ATOM      5  C   UNL     1      38.865 -25.803 -14.967  0.00  0.00    +0.176 C 
ATOM      6  C   UNL     1      36.686 -26.577 -14.356  0.00  0.00    +0.253 C 
ENDROOT
BRANCH   3   8
ATOM      7  O   UNL     1      34.118 -23.998 -12.473  0.00  0.00    -0.275 OA
ATOM      8  N   UNL     1      34.740 -25.081 -14.438  0.00  0.00    -0.299 N 
ATOM      9  C   UNL     1      33.840 -24.508 -13.554  0.00  0.00    +0.223 C 
ATOM     10  C   UNL     1      32.427 -24.549 -14.074  0.00  0.00    +0.095 C 
ATOM     11  H   UNL     1      34.395 -25.460 -15.278  0.00  0.00    +0.150 HD
ENDBRANCH   3   8
BRANCH   2  12
ATOM     12  O   UNL     1      36.558 -22.839 -14.732  0.00  0.00    -0.380 OA
ATOM     13  H   UNL     1      35.896 -22.864 -14.024  0.00  0.00    +0.211 HD
ENDBRANCH   2  12
BRANCH   4  14
ATOM     14  O   UNL     1      39.109 -23.558 -15.861  0.00  0.00    -0.379 OA
ATOM     15  H   UNL     1      38.490 -22.913 -16.238  0.00  0.00    +0.211 HD
ENDBRANCH   4  14
BRANCH   6  16
ATOM     16  O   UNL     1      36.382 -27.068 -15.660  0.00  0.00    -0.359 OA
ATOM     17  H   UNL     1      36.067 -27.983 -15.596  0.00  0.00    +0.213 HD
ENDBRANCH   6  16
BRANCH   5  18
ATOM     18  C   UNL     1      40.330 -26.003 -14.588  0.00  0.00    +0.169 C 
BRANCH  18  19
ATOM     19  O   UNL     1      40.855 -24.763 -14.152  0.00  0.00    -0.379 OA
ATOM     20  H   UNL     1      41.307 -24.326 -14.890  0.00  0.00    +0.211 HD
ENDBRANCH  18  19
ENDBRANCH   5  18
TORSDOF 6
ENDMDL
MODEL 3
REMARK VINA RESULT:      -6.6      2.139      2.616
REMARK  Name = 82313
REMARK  6 active torsions:
REMARK  status: ('A' for Active; 'I' for Inactive)
REMARK    1  A    between atoms: C_2  and  O_12
REMARK    2  A    between atoms: C_3  and  N_8
REMARK    3  A    between atoms: C_4  and  O_14
REMARK    4  A    between atoms: C_5  and  C_18
REMARK    5  A    between atoms: C_6  and  O_16
REMARK    6  A    between atoms: C_18  and  O_19
REMARK                            x       y       z     vdW  Elec       q    Type
REMARK                         _______ _______ _______ _____ _____    ______ ____
ROOT
ATOM      1  O   UNL     1      36.845 -24.868 -15.364  0.00  0.00    -0.327 OA
ATOM      2  C   UNL     1      35.473 -24.426 -12.868  0.00  0.00    +0.162 C 
ATOM      3  C   UNL     1      34.748 -24.453 -14.216  0.00  0.00    +0.158 C 
ATOM      4  C   UNL     1      36.781 -25.219 -12.948  0.00  0.00    +0.169 C 
ATOM      5  C   UNL     1      37.618 -24.794 -14.161  0.00  0.00    +0.176 C 
ATOM      6  C   UNL     1      35.688 -24.030 -15.349  0.00  0.00    +0.253 C 
ENDROOT
BRANCH   3   8
ATOM      7  O   UNL     1      32.004 -25.335 -13.870  0.00  0.00    -0.275 OA
ATOM      8  N   UNL     1      33.559 -23.633 -14.189  0.00  0.00    -0.299 N 
ATOM      9  C   UNL     1      32.286 -24.150 -14.018  0.00  0.00    +0.223 C 
ATOM     10  C   UNL     1      31.231 -23.074 -14.004  0.00  0.00    +0.095 C 
ATOM     11  H   UNL     1      33.659 -22.660 -14.298  0.00  0.00    +0.150 HD
ENDBRANCH   3   8
BRANCH   2  12
ATOM     12  O   UNL     1      34.631 -25.029 -11.883  0.00  0.00    -0.380 OA
ATOM     13  H   UNL     1      34.028 -25.654 -12.314  0.00  0.00    +0.211 HD
ENDBRANCH   2  12
BRANCH   4  14
ATOM     14  O   UNL     1      37.508 -24.994 -11.743  0.00  0.00    -0.379 OA
ATOM     15  H   UNL     1      37.233 -24.149 -11.352  0.00  0.00    +0.211 HD
ENDBRANCH   4  14
BRANCH   6  16
ATOM     16  O   UNL     1      36.029 -22.651 -15.224  0.00  0.00    -0.359 OA
ATOM     17  H   UNL     1      36.117 -22.423 -14.285  0.00  0.00    +0.213 HD
ENDBRANCH   6  16
BRANCH   5  18
ATOM     18  C   UNL     1      38.838 -25.690 -14.358  0.00  0.00    +0.169 C 
BRANCH  18  19
ATOM     19  O   UNL     1      38.391 -27.003 -14.639  0.00  0.00    -0.379 OA
ATOM     20  H   UNL     1      37.528 -27.147 -14.221  0.00  0.00    +0.211 HD
ENDBRANCH  18  19
ENDBRANCH   5  18
TORSDOF 6
ENDMDL
MODEL 4
REMARK VINA RESULT:      -6.6      2.525      5.475
REMARK  Name = 82313
REMARK  6 active torsions:
REMARK  status: ('A' for Active; 'I' for Inactive)
REMARK    1  A    between atoms: C_2  and  O_12
REMARK    2  A    between atoms: C_3  and  N_8
REMARK    3  A    between atoms: C_4  and  O_14
REMARK    4  A    between atoms: C_5  and  C_18
REMARK    5  A    between atoms: C_6  and  O_16
REMARK    6  A    between atoms: C_18  and  O_19
REMARK                            x       y       z     vdW  Elec       q    Type
REMARK                         _______ _______ _______ _____ _____    ______ ____
ROOT
ATOM      1  O   UNL     1      35.497 -24.728 -14.887  0.00  0.00    -0.327 OA
ATOM      2  C   UNL     1      36.859 -25.352 -12.425  0.00  0.00    +0.162 C 
ATOM      3  C   UNL     1      37.583 -25.260 -13.770  0.00  0.00    +0.158 C 
ATOM      4  C   UNL     1      35.570 -24.524 -12.455  0.00  0.00    +0.169 C 
ATOM      5  C   UNL     1      34.723 -24.856 -13.689  0.00  0.00    +0.176 C 
ATOM      6  C   UNL     1      36.633 -25.593 -14.925  0.00  0.00    +0.253 C 
ENDROOT
BRANCH   3   8
ATOM      7  O   UNL     1      40.265 -24.543 -14.623  0.00  0.00    -0.275 OA
ATOM      8  N   UNL     1      38.753 -26.108 -13.796  0.00  0.00    -0.299 N 
ATOM      9  C   UNL     1      39.996 -25.672 -14.222  0.00  0.00    +0.223 C 
ATOM     10  C   UNL     1      41.044 -26.749 -14.122  0.00  0.00    +0.095 C 
ATOM     11  H   UNL     1      38.661 -27.041 -13.495  0.00  0.00    +0.150 HD
ENDBRANCH   3   8
BRANCH   2  12
ATOM     12  O   UNL     1      37.716 -24.828 -11.408  0.00  0.00    -0.380 OA
ATOM     13  H   UNL     1      37.542 -25.289 -10.572  0.00  0.00    +0.211 HD
ENDBRANCH   2  12
BRANCH   4  14
ATOM     14  O   UNL     1      34.839 -24.804 -11.263  0.00  0.00    -0.379 OA
ATOM     15  H   UNL     1      35.326 -24.461 -10.498  0.00  0.00    +0.211 HD
ENDBRANCH   4  14
BRANCH   6  16
ATOM     16  O   UNL     1      36.260 -26.968 -14.882  0.00  0.00    -0.359 OA
ATOM     17  H   UNL     1      36.187 -27.255 -13.958  0.00  0.00    +0.213 HD
ENDBRANCH   6  16
BRANCH   5  18
ATOM     18  C   UNL     1      33.524 -23.922 -13.830  0.00  0.00    +0.169 C 
BRANCH  18  19
ATOM     19  O   UNL     1      32.427 -24.491 -13.139  0.00  0.00    -0.379 OA
ATOM     20  H   UNL     1      32.183 -23.920 -12.394  0.00  0.00    +0.211 HD
ENDBRANCH  18  19
ENDBRANCH   5  18
TORSDOF 6
ENDMDL
MODEL 5
REMARK VINA RESULT:      -6.6      8.759     11.106
REMARK  Name = 82313
REMARK  6 active torsions:
REMARK  status: ('A' for Active; 'I' for Inactive)
REMARK    1  A    between atoms: C_2  and  O_12
REMARK    2  A    between atoms: C_3  and  N_8
REMARK    3  A    between atoms: C_4  and  O_14
REMARK    4  A    between atoms: C_5  and  C_18
REMARK    5  A    between atoms: C_6  and  O_16
REMARK    6  A    between atoms: C_18  and  O_19
REMARK                            x       y       z     vdW  Elec       q    Type
REMARK                         _______ _______ _______ _____ _____    ______ ____
ROOT
ATOM      1  O   UNL     1      33.522 -15.999 -21.828  0.00  0.00    -0.327 OA
ATOM      2  C   UNL     1      34.985 -18.174 -23.026  0.00  0.00    +0.162 C 
ATOM      3  C   UNL     1      34.131 -18.346 -21.767  0.00  0.00    +0.158 C 
ATOM      4  C   UNL     1      34.496 -16.974 -23.843  0.00  0.00    +0.169 C 
ATOM      5  C   UNL     1      34.346 -15.726 -22.966  0.00  0.00    +0.176 C 
ATOM      6  C   UNL     1      34.039 -17.032 -20.986  0.00  0.00    +0.253 C 
ENDROOT
BRANCH   3   8
ATOM      7  O   UNL     1      32.607 -20.488 -20.534  0.00  0.00    -0.275 OA
ATOM      8  N   UNL     1      34.633 -19.414 -20.934  0.00  0.00    -0.299 N 
ATOM      9  C   UNL     1      33.822 -20.396 -20.388  0.00  0.00    +0.223 C 
ATOM     10  C   UNL     1      34.604 -21.400 -19.583  0.00  0.00    +0.095 C 
ATOM     11  H   UNL     1      35.599 -19.446 -20.744  0.00  0.00    +0.150 HD
ENDBRANCH   3   8
BRANCH   2  12
ATOM     12  O   UNL     1      34.865 -19.353 -23.825  0.00  0.00    -0.380 OA
ATOM     13  H   UNL     1      34.302 -19.167 -24.591  0.00  0.00    +0.211 HD
ENDBRANCH   2  12
BRANCH   4  14
ATOM     14  O   UNL     1      35.440 -16.737 -24.885  0.00  0.00    -0.379 OA
ATOM     15  H   UNL     1      35.250 -17.324 -25.633  0.00  0.00    +0.211 HD
ENDBRANCH   4  14
BRANCH   6  16
ATOM     16  O   UNL     1      35.309 -16.688 -20.438  0.00  0.00    -0.359 OA
ATOM     17  H   UNL     1      35.263 -16.719 -19.469  0.00  0.00    +0.213 HD
ENDBRANCH   6  16
BRANCH   5  18
ATOM     18  C   UNL     1      33.696 -14.570 -23.721  0.00  0.00    +0.169 C 
BRANCH  18  19
ATOM     19  O   UNL     1      34.333 -13.366 -23.337  0.00  0.00    -0.379 OA
ATOM     20  H   UNL     1      33.670 -12.666 -23.238  0.00  0.00    +0.211 HD
ENDBRANCH  18  19
ENDBRANCH   5  18
TORSDOF 6
ENDMDL
MODEL 6
REMARK VINA RESULT:      -6.2     17.654     19.797
REMARK  Name = 82313
REMARK  6 active torsions:
REMARK  status: ('A' for Active; 'I' for Inactive)
REMARK    1  A    between atoms: C_2  and  O_12
REMARK    2  A    between atoms: C_3  and  N_8
REMARK    3  A    between atoms: C_4  and  O_14
REMARK    4  A    between atoms: C_5  and  C_18
REMARK    5  A    between atoms: C_6  and  O_16
REMARK    6  A    between atoms: C_18  and  O_19
REMARK                            x       y       z     vdW  Elec       q    Type
REMARK                         _______ _______ _______ _____ _____    ______ ____
ROOT
ATOM      1  O   UNL     1      31.493  -9.242 -22.168  0.00  0.00    -0.327 OA
ATOM      2  C   UNL     1      32.478  -6.562 -21.779  0.00  0.00    +0.162 C 
ATOM      3  C   UNL     1      31.705  -6.985 -23.031  0.00  0.00    +0.158 C 
ATOM      4  C   UNL     1      32.136  -7.481 -20.603  0.00  0.00    +0.169 C 
ATOM      5  C   UNL     1      32.263  -8.958 -20.994  0.00  0.00    +0.176 C 
ATOM      6  C   UNL     1      31.892  -8.480 -23.308  0.00  0.00    +0.253 C 
ENDROOT
BRANCH   3   8
ATOM      7  O   UNL     1      30.518  -4.487 -23.915  0.00  0.00    -0.275 OA
ATOM      8  N   UNL     1      32.083  -6.190 -24.176  0.00  0.00    -0.299 N 
ATOM      9  C   UNL     1      31.453  -5.005 -24.518  0.00  0.00    +0.223 C 
ATOM     10  C   UNL     1      32.061  -4.367 -25.739  0.00  0.00    +0.095 C 
ATOM     11  H   UNL     1      32.825  -6.506 -24.741  0.00  0.00    +0.150 HD
ENDBRANCH   3   8
BRANCH   2  12
ATOM     12  O   UNL     1      32.103  -5.225 -21.440  0.00  0.00    -0.380 OA
ATOM     13  H   UNL     1      32.032  -5.145 -20.477  0.00  0.00    +0.211 HD
ENDBRANCH   2  12
BRANCH   4  14
ATOM     14  O   UNL     1      33.025  -7.175 -19.531  0.00  0.00    -0.379 OA
ATOM     15  H   UNL     1      32.592  -7.374 -18.686  0.00  0.00    +0.211 HD
ENDBRANCH   4  14
BRANCH   6  16
ATOM     16  O   UNL     1      33.240  -8.751 -23.686  0.00  0.00    -0.359 OA
ATOM     17  H   UNL     1      33.389  -9.710 -23.686  0.00  0.00    +0.213 HD
ENDBRANCH   6  16
BRANCH   5  18
ATOM     18  C   UNL     1      31.759  -9.888 -19.894  0.00  0.00    +0.169 C 
BRANCH  18  19
ATOM     19  O   UNL     1      32.618  -9.768 -18.775  0.00  0.00    -0.379 OA
ATOM     20  H   UNL     1      32.562  -8.868 -18.420  0.00  0.00    +0.211 HD
ENDBRANCH  18  19
ENDBRANCH   5  18
TORSDOF 6
ENDMDL
MODEL 7
REMARK VINA RESULT:      -6.2      2.467      3.659
REMARK  Name = 82313
REMARK  6 active torsions:
REMARK  status: ('A' for Active; 'I' for Inactive)
REMARK    1  A    between atoms: C_2  and  O_12
REMARK    2  A    between atoms: C_3  and  N_8
REMARK    3  A    between atoms: C_4  and  O_14
REMARK    4  A    between atoms: C_5  and  C_18
REMARK    5  A    between atoms: C_6  and  O_16
REMARK    6  A    between atoms: C_18  and  O_19
REMARK                            x       y       z     vdW  Elec       q    Type
REMARK                         _______ _______ _______ _____ _____    ______ ____
ROOT
ATOM      1  O   UNL     1      35.295 -23.548 -13.327  0.00  0.00    -0.327 OA
ATOM      2  C   UNL     1      37.374 -23.963 -15.279  0.00  0.00    +0.162 C 
ATOM      3  C   UNL     1      36.286 -22.899 -15.444  0.00  0.00    +0.158 C 
ATOM      4  C   UNL     1      37.569 -24.304 -13.798  0.00  0.00    +0.169 C 
ATOM      5  C   UNL     1      36.230 -24.612 -13.117  0.00  0.00    +0.176 C 
ATOM      6  C   UNL     1      35.007 -23.308 -14.706  0.00  0.00    +0.253 C 
ENDROOT
BRANCH   3   8
ATOM      7  O   UNL     1      37.407 -20.775 -17.077  0.00  0.00    -0.275 OA
ATOM      8  N   UNL     1      36.021 -22.631 -16.839  0.00  0.00    -0.299 N 
ATOM      9  C   UNL     1      36.608 -21.588 -17.535  0.00  0.00    +0.223 C 
ATOM     10  C   UNL     1      36.178 -21.551 -18.978  0.00  0.00    +0.095 C 
ATOM     11  H   UNL     1      35.393 -23.219 -17.317  0.00  0.00    +0.150 HD
ENDBRANCH   3   8
BRANCH   2  12
ATOM     12  O   UNL     1      38.603 -23.446 -15.795  0.00  0.00    -0.380 OA
ATOM     13  H   UNL     1      38.433 -22.991 -16.635  0.00  0.00    +0.211 HD
ENDBRANCH   2  12
BRANCH   4  14
ATOM     14  O   UNL     1      38.436 -25.432 -13.716  0.00  0.00    -0.379 OA
ATOM     15  H   UNL     1      39.322 -25.181 -14.022  0.00  0.00    +0.211 HD
ENDBRANCH   4  14
BRANCH   6  16
ATOM     16  O   UNL     1      34.411 -24.441 -15.332  0.00  0.00    -0.359 OA
ATOM     17  H   UNL     1      35.089 -24.933 -15.824  0.00  0.00    +0.213 HD
ENDBRANCH   6  16
BRANCH   5  18
ATOM     18  C   UNL     1      36.381 -24.782 -11.607  0.00  0.00    +0.169 C 
BRANCH  18  19
ATOM     19  O   UNL     1      37.667 -24.327 -11.230  0.00  0.00    -0.379 OA
ATOM     20  H   UNL     1      37.905 -24.709 -10.371  0.00  0.00    +0.211 HD
ENDBRANCH  18  19
ENDBRANCH   5  18
TORSDOF 6
ENDMDL
MODEL 8
REMARK VINA RESULT:      -6.2     12.944     14.953
REMARK  Name = 82313
REMARK  6 active torsions:
REMARK  status: ('A' for Active; 'I' for Inactive)
REMARK    1  A    between atoms: C_2  and  O_12
REMARK    2  A    between atoms: C_3  and  N_8
REMARK    3  A    between atoms: C_4  and  O_14
REMARK    4  A    between atoms: C_5  and  C_18
REMARK    5  A    between atoms: C_6  and  O_16
REMARK    6  A    between atoms: C_18  and  O_19
REMARK                            x       y       z     vdW  Elec       q    Type
REMARK                         _______ _______ _______ _____ _____    ______ ____
ROOT
ATOM      1  O   UNL     1      34.761 -15.289 -23.408  0.00  0.00    -0.327 OA
ATOM      2  C   UNL     1      33.112 -13.852 -25.284  0.00  0.00    +0.162 C 
ATOM      3  C   UNL     1      33.884 -13.156 -24.161  0.00  0.00    +0.158 C 
ATOM      4  C   UNL     1      33.771 -15.189 -25.638  0.00  0.00    +0.169 C 
ATOM      5  C   UNL     1      34.025 -16.034 -24.384  0.00  0.00    +0.176 C 
ATOM      6  C   UNL     1      34.093 -14.103 -22.974  0.00  0.00    +0.253 C 
ENDROOT
BRANCH   3   8
ATOM      7  O   UNL     1      34.756 -10.429 -24.641  0.00  0.00    -0.275 OA
ATOM      8  N   UNL     1      33.226 -11.938 -23.747  0.00  0.00    -0.299 N 
ATOM      9  C   UNL     1      33.723 -10.676 -24.026  0.00  0.00    +0.223 C 
ATOM     10  C   UNL     1      32.829  -9.583 -23.503  0.00  0.00    +0.095 C 
ATOM     11  H   UNL     1      32.383 -12.009 -23.243  0.00  0.00    +0.150 HD
ENDBRANCH   3   8
BRANCH   2  12
ATOM     12  O   UNL     1      33.130 -13.012 -26.441  0.00  0.00    -0.380 OA
ATOM     13  H   UNL     1      33.062 -13.560 -27.238  0.00  0.00    +0.211 HD
ENDBRANCH   2  12
BRANCH   4  14
ATOM     14  O   UNL     1      32.908 -15.883 -26.535  0.00  0.00    -0.379 OA
ATOM     15  H   UNL     1      33.364 -16.665 -26.883  0.00  0.00    +0.211 HD
ENDBRANCH   4  14
BRANCH   6  16
ATOM     16  O   UNL     1      32.847 -14.392 -22.343  0.00  0.00    -0.359 OA
ATOM     17  H   UNL     1      33.004 -14.653 -21.422  0.00  0.00    +0.213 HD
ENDBRANCH   6  16
BRANCH   5  18
ATOM     18  C   UNL     1      34.837 -17.289 -24.693  0.00  0.00    +0.169 C 
BRANCH  18  19
ATOM     19  O   UNL     1      34.058 -18.138 -25.516  0.00  0.00    -0.379 OA
ATOM     20  H   UNL     1      34.460 -18.192 -26.396  0.00  0.00    +0.211 HD
ENDBRANCH  18  19
ENDBRANCH   5  18
TORSDOF 6
ENDMDL
MODEL 9
REMARK VINA RESULT:      -6.2      1.950      2.525
REMARK  Name = 82313
REMARK  6 active torsions:
REMARK  status: ('A' for Active; 'I' for Inactive)
REMARK    1  A    between atoms: C_2  and  O_12
REMARK    2  A    between atoms: C_3  and  N_8
REMARK    3  A    between atoms: C_4  and  O_14
REMARK    4  A    between atoms: C_5  and  C_18
REMARK    5  A    between atoms: C_6  and  O_16
REMARK    6  A    between atoms: C_18  and  O_19
REMARK                            x       y       z     vdW  Elec       q    Type
REMARK                         _______ _______ _______ _____ _____    ______ ____
ROOT
ATOM      1  O   UNL     1      36.824 -24.334 -12.755  0.00  0.00    -0.327 OA
ATOM      2  C   UNL     1      35.021 -24.709 -14.972  0.00  0.00    +0.162 C 
ATOM      3  C   UNL     1      34.845 -23.589 -13.943  0.00  0.00    +0.158 C 
ATOM      4  C   UNL     1      36.485 -25.157 -15.029  0.00  0.00    +0.169 C 
ATOM      5  C   UNL     1      37.033 -25.450 -13.627  0.00  0.00    +0.176 C 
ATOM      6  C   UNL     1      35.447 -23.989 -12.592  0.00  0.00    +0.253 C 
ENDROOT
BRANCH   3   8
ATOM      7  O   UNL     1      32.531 -25.341 -14.029  0.00  0.00    -0.275 OA
ATOM      8  N   UNL     1      33.456 -23.216 -13.806  0.00  0.00    -0.299 N 
ATOM      9  C   UNL     1      32.416 -24.130 -13.861  0.00  0.00    +0.223 C 
ATOM     10  C   UNL     1      31.073 -23.479 -13.663  0.00  0.00    +0.095 C 
ATOM     11  H   UNL     1      33.238 -22.267 -13.666  0.00  0.00    +0.150 HD
ENDBRANCH   3   8
BRANCH   2  12
ATOM     12  O   UNL     1      34.643 -24.213 -16.258  0.00  0.00    -0.380 OA
ATOM     13  H   UNL     1      34.464 -24.959 -16.851  0.00  0.00    +0.211 HD
ENDBRANCH   2  12
BRANCH   4  14
ATOM     14  O   UNL     1      36.557 -26.325 -15.842  0.00  0.00    -0.379 OA
ATOM     15  H   UNL     1      37.161 -26.166 -16.584  0.00  0.00    +0.211 HD
ENDBRANCH   4  14
BRANCH   6  16
ATOM     16  O   UNL     1      34.696 -25.050 -12.007  0.00  0.00    -0.359 OA
ATOM     17  H   UNL     1      35.264 -25.831 -11.905  0.00  0.00    +0.213 HD
ENDBRANCH   6  16
BRANCH   5  18
ATOM     18  C   UNL     1      38.534 -25.728 -13.645  0.00  0.00    +0.169 C 
BRANCH  18  19
ATOM     19  O   UNL     1      38.765 -26.902 -14.401  0.00  0.00    -0.379 OA
ATOM     20  H   UNL     1      38.222 -27.625 -14.050  0.00  0.00    +0.211 HD
ENDBRANCH  18  19
ENDBRANCH   5  18
TORSDOF 6
ENDMDL
