MODEL 1
REMARK VINA RESULT:      -7.6      0.000      0.000
REMARK  Name = 3038
REMARK  4 active torsions:
REMARK  status: ('A' for Active; 'I' for Inactive)
REMARK    1  A    between atoms: C_3  and  S_9
REMARK    2  A    between atoms: C_4  and  S_15
REMARK    3  A    between atoms: S_9  and  N_12
REMARK    4  A    between atoms: S_15  and  N_18
REMARK                            x       y       z     vdW  Elec       q    Type
REMARK                         _______ _______ _______ _____ _____    ______ ____
ROOT
ATOM      1 CL   UNL     1      30.819 -23.900 -13.120  0.00  0.00    -0.080 Cl
ATOM      2 CL   UNL     1      34.000 -24.174 -13.362  0.00  0.00    -0.081 Cl
ATOM      3  C   UNL     1      30.894 -23.200 -15.740  0.00  0.00    +0.134 C 
ATOM      4  C   UNL     1      32.928 -23.067 -17.037  0.00  0.00    +0.124 C 
ATOM      5  C   UNL     1      31.542 -22.942 -16.948  0.00  0.00    +0.041 C 
ATOM      6  C   UNL     1      31.633 -23.582 -14.620  0.00  0.00    +0.087 C 
ATOM      7  C   UNL     1      33.667 -23.449 -15.917  0.00  0.00    +0.032 C 
ATOM      8  C   UNL     1      33.019 -23.706 -14.710  0.00  0.00    +0.071 C 
ENDROOT
BRANCH   3   9
ATOM      9  S   UNL     1      29.150 -23.023 -15.701  0.00  0.00    +0.058 S 
ATOM     10  O   UNL     1      28.572 -24.318 -15.378  0.00  0.00    -0.153 OA
ATOM     11  O   UNL     1      28.828 -21.859 -14.891  0.00  0.00    -0.153 OA
BRANCH   9  12
ATOM     12  N   UNL     1      28.829 -22.664 -17.338  0.00  0.00    -0.203 NA
ATOM     13  H   UNL     1      29.491 -21.961 -17.668  0.00  0.00    +0.144 HD
ATOM     14  H   UNL     1      27.879 -22.306 -17.429  0.00  0.00    +0.144 HD
ENDBRANCH   9  12
ENDBRANCH   3   9
BRANCH   4  15
ATOM     15  S   UNL     1      33.738 -22.747 -18.550  0.00  0.00    +0.057 S 
ATOM     16  O   UNL     1      33.837 -23.996 -19.292  0.00  0.00    -0.153 OA
ATOM     17  O   UNL     1      33.118 -21.584 -19.170  0.00  0.00    -0.153 OA
BRANCH  15  18
ATOM     18  N   UNL     1      35.295 -22.308 -17.999  0.00  0.00    -0.203 NA
ATOM     19  H   UNL     1      35.855 -21.980 -18.786  0.00  0.00    +0.144 HD
ATOM     20  H   UNL     1      35.747 -23.119 -17.576  0.00  0.00    +0.144 HD
ENDBRANCH  15  18
ENDBRANCH   4  15
TORSDOF 4
ENDMDL
MODEL 2
REMARK VINA RESULT:      -7.3      4.329      4.811
REMARK  Name = 3038
REMARK  4 active torsions:
REMARK  status: ('A' for Active; 'I' for Inactive)
REMARK    1  A    between atoms: C_3  and  S_9
REMARK    2  A    between atoms: C_4  and  S_15
REMARK    3  A    between atoms: S_9  and  N_12
REMARK    4  A    between atoms: S_15  and  N_18
REMARK                            x       y       z     vdW  Elec       q    Type
REMARK                         _______ _______ _______ _____ _____    ______ ____
ROOT
ATOM      1 CL   UNL     1      32.131 -22.967 -17.091  0.00  0.00    -0.080 Cl
ATOM      2 CL   UNL     1      35.305 -22.555 -17.203  0.00  0.00    -0.081 Cl
ATOM      3  C   UNL     1      32.559 -23.933 -14.593  0.00  0.00    +0.134 C 
ATOM      4  C   UNL     1      34.743 -24.096 -13.572  0.00  0.00    +0.124 C 
ATOM      5  C   UNL     1      33.362 -24.282 -13.507  0.00  0.00    +0.041 C 
ATOM      6  C   UNL     1      33.138 -23.398 -15.744  0.00  0.00    +0.087 C 
ATOM      7  C   UNL     1      35.321 -23.561 -14.722  0.00  0.00    +0.032 C 
ATOM      8  C   UNL     1      34.519 -23.212 -15.808  0.00  0.00    +0.071 C 
ENDROOT
BRANCH   3   9
ATOM      9  S   UNL     1      30.832 -24.195 -14.442  0.00  0.00    +0.058 S 
ATOM     10  O   UNL     1      30.176 -22.897 -14.453  0.00  0.00    -0.153 OA
ATOM     11  O   UNL     1      30.441 -25.216 -15.400  0.00  0.00    -0.153 OA
BRANCH   9  12
ATOM     12  N   UNL     1      30.745 -24.849 -12.868  0.00  0.00    -0.203 NA
ATOM     13  H   UNL     1      29.856 -24.589 -12.440  0.00  0.00    +0.144 HD
ATOM     14  H   UNL     1      31.513 -24.486 -12.306  0.00  0.00    +0.144 HD
ENDBRANCH   9  12
ENDBRANCH   3   9
BRANCH   4  15
ATOM     15  S   UNL     1      35.747 -24.531 -12.211  0.00  0.00    +0.057 S 
ATOM     16  O   UNL     1      36.746 -23.488 -12.025  0.00  0.00    -0.153 OA
ATOM     17  O   UNL     1      34.884 -24.913 -11.102  0.00  0.00    -0.153 OA
BRANCH  15  18
ATOM     18  N   UNL     1      36.518 -25.933 -12.811  0.00  0.00    -0.203 NA
ATOM     19  H   UNL     1      36.697 -25.823 -13.809  0.00  0.00    +0.144 HD
ATOM     20  H   UNL     1      35.917 -26.743 -12.661  0.00  0.00    +0.144 HD
ENDBRANCH  15  18
ENDBRANCH   4  15
TORSDOF 4
ENDMDL
MODEL 3
REMARK VINA RESULT:      -7.3      4.110      5.822
REMARK  Name = 3038
REMARK  4 active torsions:
REMARK  status: ('A' for Active; 'I' for Inactive)
REMARK    1  A    between atoms: C_3  and  S_9
REMARK    2  A    between atoms: C_4  and  S_15
REMARK    3  A    between atoms: S_9  and  N_12
REMARK    4  A    between atoms: S_15  and  N_18
REMARK                            x       y       z     vdW  Elec       q    Type
REMARK                         _______ _______ _______ _____ _____    ______ ____
ROOT
ATOM      1 CL   UNL     1      36.562 -23.145 -15.758  0.00  0.00    -0.080 Cl
ATOM      2 CL   UNL     1      34.253 -22.621 -17.914  0.00  0.00    -0.081 Cl
ATOM      3  C   UNL     1      34.567 -24.045 -14.155  0.00  0.00    +0.134 C 
ATOM      4  C   UNL     1      32.243 -24.108 -14.812  0.00  0.00    +0.124 C 
ATOM      5  C   UNL     1      33.236 -24.342 -13.862  0.00  0.00    +0.041 C 
ATOM      6  C   UNL     1      34.904 -23.513 -15.401  0.00  0.00    +0.087 C 
ATOM      7  C   UNL     1      32.579 -23.577 -16.057  0.00  0.00    +0.032 C 
ATOM      8  C   UNL     1      33.909 -23.279 -16.351  0.00  0.00    +0.071 C 
ENDROOT
BRANCH   3   9
ATOM      9  S   UNL     1      35.763 -24.363 -12.914  0.00  0.00    +0.058 S 
ATOM     10  O   UNL     1      36.603 -25.460 -13.367  0.00  0.00    -0.153 OA
ATOM     11  O   UNL     1      36.364 -23.098 -12.525  0.00  0.00    -0.153 OA
BRANCH   9  12
ATOM     12  N   UNL     1      34.764 -24.915 -11.644  0.00  0.00    -0.203 NA
ATOM     13  H   UNL     1      33.867 -25.218 -12.024  0.00  0.00    +0.144 HD
ATOM     14  H   UNL     1      34.614 -24.160 -10.977  0.00  0.00    +0.144 HD
ENDBRANCH   9  12
ENDBRANCH   3   9
BRANCH   4  15
ATOM     15  S   UNL     1      30.578 -24.483 -14.444  0.00  0.00    +0.057 S 
ATOM     16  O   UNL     1      29.759 -23.330 -14.792  0.00  0.00    -0.153 OA
ATOM     17  O   UNL     1      30.262 -25.790 -15.006  0.00  0.00    -0.153 OA
BRANCH  15  18
ATOM     18  N   UNL     1      30.643 -24.621 -12.742  0.00  0.00    -0.203 NA
ATOM     19  H   UNL     1      31.605 -24.795 -12.451  0.00  0.00    +0.144 HD
ATOM     20  H   UNL     1      30.051 -25.395 -12.440  0.00  0.00    +0.144 HD
ENDBRANCH  15  18
ENDBRANCH   4  15
TORSDOF 4
ENDMDL
MODEL 4
REMARK VINA RESULT:      -7.2      3.156      5.000
REMARK  Name = 3038
REMARK  4 active torsions:
REMARK  status: ('A' for Active; 'I' for Inactive)
REMARK    1  A    between atoms: C_3  and  S_9
REMARK    2  A    between atoms: C_4  and  S_15
REMARK    3  A    between atoms: S_9  and  N_12
REMARK    4  A    between atoms: S_15  and  N_18
REMARK                            x       y       z     vdW  Elec       q    Type
REMARK                         _______ _______ _______ _____ _____    ______ ____
ROOT
ATOM      1 CL   UNL     1      34.762 -24.287 -12.680  0.00  0.00    -0.080 Cl
ATOM      2 CL   UNL     1      31.813 -23.948 -13.882  0.00  0.00    -0.081 Cl
ATOM      3  C   UNL     1      35.620 -23.600 -15.161  0.00  0.00    +0.134 C 
ATOM      4  C   UNL     1      34.139 -23.087 -17.000  0.00  0.00    +0.124 C 
ATOM      5  C   UNL     1      35.431 -23.231 -16.493  0.00  0.00    +0.041 C 
ATOM      6  C   UNL     1      34.517 -23.826 -14.336  0.00  0.00    +0.087 C 
ATOM      7  C   UNL     1      33.037 -23.313 -16.176  0.00  0.00    +0.032 C 
ATOM      8  C   UNL     1      33.226 -23.683 -14.845  0.00  0.00    +0.071 C 
ENDROOT
BRANCH   3   9
ATOM      9  S   UNL     1      37.270 -23.762 -14.590  0.00  0.00    +0.058 S 
ATOM     10  O   UNL     1      37.459 -22.836 -13.485  0.00  0.00    -0.153 OA
ATOM     11  O   UNL     1      37.553 -25.177 -14.412  0.00  0.00    -0.153 OA
BRANCH   9  12
ATOM     12  N   UNL     1      38.134 -23.192 -15.948  0.00  0.00    -0.203 NA
ATOM     13  H   UNL     1      38.538 -22.280 -15.735  0.00  0.00    +0.144 HD
ATOM     14  H   UNL     1      37.501 -23.106 -16.742  0.00  0.00    +0.144 HD
ENDBRANCH   9  12
ENDBRANCH   3   9
BRANCH   4  15
ATOM     15  S   UNL     1      33.903 -22.623 -18.666  0.00  0.00    +0.057 S 
ATOM     16  O   UNL     1      33.924 -23.826 -19.486  0.00  0.00    -0.153 OA
ATOM     17  O   UNL     1      32.765 -21.717 -18.738  0.00  0.00    -0.153 OA
BRANCH  15  18
ATOM     18  N   UNL     1      35.331 -21.731 -18.961  0.00  0.00    -0.203 NA
ATOM     19  H   UNL     1      35.564 -21.179 -18.136  0.00  0.00    +0.144 HD
ATOM     20  H   UNL     1      35.185 -21.107 -19.755  0.00  0.00    +0.144 HD
ENDBRANCH  15  18
ENDBRANCH   4  15
TORSDOF 4
ENDMDL
MODEL 5
REMARK VINA RESULT:      -7.2      1.194      4.715
REMARK  Name = 3038
REMARK  4 active torsions:
REMARK  status: ('A' for Active; 'I' for Inactive)
REMARK    1  A    between atoms: C_3  and  S_9
REMARK    2  A    between atoms: C_4  and  S_15
REMARK    3  A    between atoms: S_9  and  N_12
REMARK    4  A    between atoms: S_15  and  N_18
REMARK                            x       y       z     vdW  Elec       q    Type
REMARK                         _______ _______ _______ _____ _____    ______ ____
ROOT
ATOM      1 CL   UNL     1      35.455 -23.722 -15.829  0.00  0.00    -0.080 Cl
ATOM      2 CL   UNL     1      33.821 -24.247 -13.124  0.00  0.00    -0.081 Cl
ATOM      3  C   UNL     1      33.044 -23.116 -16.915  0.00  0.00    +0.134 C 
ATOM      4  C   UNL     1      30.963 -23.182 -15.688  0.00  0.00    +0.124 C 
ATOM      5  C   UNL     1      31.659 -22.950 -16.874  0.00  0.00    +0.041 C 
ATOM      6  C   UNL     1      33.732 -23.516 -15.769  0.00  0.00    +0.087 C 
ATOM      7  C   UNL     1      31.651 -23.582 -14.543  0.00  0.00    +0.032 C 
ATOM      8  C   UNL     1      33.035 -23.748 -14.583  0.00  0.00    +0.071 C 
ENDROOT
BRANCH   3   9
ATOM      9  S   UNL     1      33.854 -22.807 -18.439  0.00  0.00    +0.058 S 
ATOM     10  O   UNL     1      35.093 -22.102 -18.157  0.00  0.00    -0.153 OA
ATOM     11  O   UNL     1      33.877 -24.045 -19.201  0.00  0.00    -0.153 OA
BRANCH   9  12
ATOM     12  N   UNL     1      32.753 -21.727 -19.171  0.00  0.00    -0.203 NA
ATOM     13  H   UNL     1      33.085 -21.485 -20.105  0.00  0.00    +0.144 HD
ATOM     14  H   UNL     1      32.680 -20.882 -18.606  0.00  0.00    +0.144 HD
ENDBRANCH   9  12
ENDBRANCH   3   9
BRANCH   4  15
ATOM     15  S   UNL     1      29.231 -22.971 -15.637  0.00  0.00    +0.057 S 
ATOM     16  O   UNL     1      28.622 -24.248 -15.291  0.00  0.00    -0.153 OA
ATOM     17  O   UNL     1      28.932 -21.788 -14.843  0.00  0.00    -0.153 OA
BRANCH  15  18
ATOM     18  N   UNL     1      28.896 -22.628 -17.278  0.00  0.00    -0.203 NA
ATOM     19  H   UNL     1      28.616 -23.485 -17.755  0.00  0.00    +0.144 HD
ATOM     20  H   UNL     1      29.732 -22.249 -17.724  0.00  0.00    +0.144 HD
ENDBRANCH  15  18
ENDBRANCH   4  15
TORSDOF 4
ENDMDL
MODEL 6
REMARK VINA RESULT:      -7.1      2.150      2.529
REMARK  Name = 3038
REMARK  4 active torsions:
REMARK  status: ('A' for Active; 'I' for Inactive)
REMARK    1  A    between atoms: C_3  and  S_9
REMARK    2  A    between atoms: C_4  and  S_15
REMARK    3  A    between atoms: S_9  and  N_12
REMARK    4  A    between atoms: S_15  and  N_18
REMARK                            x       y       z     vdW  Elec       q    Type
REMARK                         _______ _______ _______ _____ _____    ______ ____
ROOT
ATOM      1 CL   UNL     1      34.618 -24.054 -12.775  0.00  0.00    -0.080 Cl
ATOM      2 CL   UNL     1      37.143 -23.224 -14.562  0.00  0.00    -0.081 Cl
ATOM      3  C   UNL     1      33.163 -23.661 -15.031  0.00  0.00    +0.134 C 
ATOM      4  C   UNL     1      34.116 -22.967 -17.140  0.00  0.00    +0.124 C 
ATOM      5  C   UNL     1      33.006 -23.326 -16.376  0.00  0.00    +0.041 C 
ATOM      6  C   UNL     1      34.431 -23.636 -14.450  0.00  0.00    +0.087 C 
ATOM      7  C   UNL     1      35.383 -22.942 -16.559  0.00  0.00    +0.032 C 
ATOM      8  C   UNL     1      35.541 -23.277 -15.215  0.00  0.00    +0.071 C 
ENDROOT
BRANCH   3   9
ATOM      9  S   UNL     1      31.724 -24.101 -14.131  0.00  0.00    +0.058 S 
ATOM     10  O   UNL     1      31.755 -25.537 -13.904  0.00  0.00    -0.153 OA
ATOM     11  O   UNL     1      31.593 -23.189 -13.007  0.00  0.00    -0.153 OA
BRANCH   9  12
ATOM     12  N   UNL     1      30.510 -23.746 -15.278  0.00  0.00    -0.203 NA
ATOM     13  H   UNL     1      30.549 -24.427 -16.036  0.00  0.00    +0.144 HD
ATOM     14  H   UNL     1      30.660 -22.810 -15.653  0.00  0.00    +0.144 HD
ENDBRANCH   9  12
ENDBRANCH   3   9
BRANCH   4  15
ATOM     15  S   UNL     1      33.919 -22.550 -18.824  0.00  0.00    +0.057 S 
ATOM     16  O   UNL     1      33.948 -23.777 -19.608  0.00  0.00    -0.153 OA
ATOM     17  O   UNL     1      32.788 -21.640 -18.947  0.00  0.00    -0.153 OA
BRANCH  15  18
ATOM     18  N   UNL     1      35.358 -21.676 -19.114  0.00  0.00    -0.203 NA
ATOM     19  H   UNL     1      36.162 -22.246 -18.852  0.00  0.00    +0.144 HD
ATOM     20  H   UNL     1      35.354 -20.819 -18.559  0.00  0.00    +0.144 HD
ENDBRANCH  15  18
ENDBRANCH   4  15
TORSDOF 4
ENDMDL
MODEL 7
REMARK VINA RESULT:      -7.0      3.205      4.768
REMARK  Name = 3038
REMARK  4 active torsions:
REMARK  status: ('A' for Active; 'I' for Inactive)
REMARK    1  A    between atoms: C_3  and  S_9
REMARK    2  A    between atoms: C_4  and  S_15
REMARK    3  A    between atoms: S_9  and  N_12
REMARK    4  A    between atoms: S_15  and  N_18
REMARK                            x       y       z     vdW  Elec       q    Type
REMARK                         _______ _______ _______ _____ _____    ______ ____
ROOT
ATOM      1 CL   UNL     1      31.167 -22.801 -16.761  0.00  0.00    -0.080 Cl
ATOM      2 CL   UNL     1      31.363 -23.625 -13.673  0.00  0.00    -0.081 Cl
ATOM      3  C   UNL     1      33.848 -23.216 -16.821  0.00  0.00    +0.134 C 
ATOM      4  C   UNL     1      35.142 -23.915 -14.904  0.00  0.00    +0.124 C 
ATOM      5  C   UNL     1      35.074 -23.559 -16.251  0.00  0.00    +0.041 C 
ATOM      6  C   UNL     1      32.689 -23.230 -16.044  0.00  0.00    +0.087 C 
ATOM      7  C   UNL     1      33.984 -23.929 -14.127  0.00  0.00    +0.032 C 
ATOM      8  C   UNL     1      32.758 -23.587 -14.697  0.00  0.00    +0.071 C 
ENDROOT
BRANCH   3   9
ATOM      9  S   UNL     1      33.837 -22.778 -18.519  0.00  0.00    +0.058 S 
ATOM     10  O   UNL     1      33.758 -24.001 -19.301  0.00  0.00    -0.153 OA
ATOM     11  O   UNL     1      32.852 -21.725 -18.711  0.00  0.00    -0.153 OA
BRANCH   9  12
ATOM     12  N   UNL     1      35.399 -22.111 -18.685  0.00  0.00    -0.203 NA
ATOM     13  H   UNL     1      35.377 -21.123 -18.430  0.00  0.00    +0.144 HD
ATOM     14  H   UNL     1      35.708 -22.206 -19.652  0.00  0.00    +0.144 HD
ENDBRANCH   9  12
ENDBRANCH   3   9
BRANCH   4  15
ATOM     15  S   UNL     1      36.676 -24.346 -14.192  0.00  0.00    +0.057 S 
ATOM     16  O   UNL     1      37.522 -23.160 -14.168  0.00  0.00    -0.153 OA
ATOM     17  O   UNL     1      36.425 -25.080 -12.959  0.00  0.00    -0.153 OA
BRANCH  15  18
ATOM     18  N   UNL     1      37.284 -25.434 -15.361  0.00  0.00    -0.203 NA
ATOM     19  H   UNL     1      37.982 -26.041 -14.931  0.00  0.00    +0.144 HD
ATOM     20  H   UNL     1      37.714 -24.909 -16.123  0.00  0.00    +0.144 HD
ENDBRANCH  15  18
ENDBRANCH   4  15
TORSDOF 4
ENDMDL
MODEL 8
REMARK VINA RESULT:      -7.0      5.115      5.694
REMARK  Name = 3038
REMARK  4 active torsions:
REMARK  status: ('A' for Active; 'I' for Inactive)
REMARK    1  A    between atoms: C_3  and  S_9
REMARK    2  A    between atoms: C_4  and  S_15
REMARK    3  A    between atoms: S_9  and  N_12
REMARK    4  A    between atoms: S_15  and  N_18
REMARK                            x       y       z     vdW  Elec       q    Type
REMARK                         _______ _______ _______ _____ _____    ______ ____
ROOT
ATOM      1 CL   UNL     1      33.917 -22.942 -16.857  0.00  0.00    -0.080 Cl
ATOM      2 CL   UNL     1      37.084 -22.473 -16.770  0.00  0.00    -0.081 Cl
ATOM      3  C   UNL     1      34.184 -23.765 -14.286  0.00  0.00    +0.134 C 
ATOM      4  C   UNL     1      36.293 -23.830 -13.109  0.00  0.00    +0.124 C 
ATOM      5  C   UNL     1      34.914 -24.040 -13.129  0.00  0.00    +0.041 C 
ATOM      6  C   UNL     1      34.833 -23.280 -15.422  0.00  0.00    +0.087 C 
ATOM      7  C   UNL     1      36.942 -23.345 -14.244  0.00  0.00    +0.032 C 
ATOM      8  C   UNL     1      36.212 -23.070 -15.400  0.00  0.00    +0.071 C 
ENDROOT
BRANCH   3   9
ATOM      9  S   UNL     1      32.455 -24.053 -14.241  0.00  0.00    +0.058 S 
ATOM     10  O   UNL     1      31.870 -23.479 -15.442  0.00  0.00    -0.153 OA
ATOM     11  O   UNL     1      32.235 -25.455 -13.922  0.00  0.00    -0.153 OA
BRANCH   9  12
ATOM     12  N   UNL     1      32.009 -23.102 -12.895  0.00  0.00    -0.203 NA
ATOM     13  H   UNL     1      31.620 -22.216 -13.219  0.00  0.00    +0.144 HD
ATOM     14  H   UNL     1      32.829 -22.924 -12.318  0.00  0.00    +0.144 HD
ENDBRANCH   9  12
ENDBRANCH   3   9
BRANCH   4  15
ATOM     15  S   UNL     1      37.206 -24.172 -11.660  0.00  0.00    +0.057 S 
ATOM     16  O   UNL     1      36.325 -24.006 -10.512  0.00  0.00    -0.153 OA
ATOM     17  O   UNL     1      37.921 -25.427 -11.848  0.00  0.00    -0.153 OA
BRANCH  15  18
ATOM     18  N   UNL     1      38.336 -22.890 -11.678  0.00  0.00    -0.203 NA
ATOM     19  H   UNL     1      39.156 -23.167 -12.217  0.00  0.00    +0.144 HD
ATOM     20  H   UNL     1      38.617 -22.671 -10.721  0.00  0.00    +0.144 HD
ENDBRANCH  15  18
ENDBRANCH   4  15
TORSDOF 4
ENDMDL
MODEL 9
REMARK VINA RESULT:      -6.7      2.628      5.114
REMARK  Name = 3038
REMARK  4 active torsions:
REMARK  status: ('A' for Active; 'I' for Inactive)
REMARK    1  A    between atoms: C_3  and  S_9
REMARK    2  A    between atoms: C_4  and  S_15
REMARK    3  A    between atoms: S_9  and  N_12
REMARK    4  A    between atoms: S_15  and  N_18
REMARK                            x       y       z     vdW  Elec       q    Type
REMARK                         _______ _______ _______ _____ _____    ______ ____
ROOT
ATOM      1 CL   UNL     1      36.879 -22.287 -17.185  0.00  0.00    -0.080 Cl
ATOM      2 CL   UNL     1      36.709 -23.091 -14.089  0.00  0.00    -0.081 Cl
ATOM      3  C   UNL     1      34.229 -22.865 -17.260  0.00  0.00    +0.134 C 
ATOM      4  C   UNL     1      32.965 -23.623 -15.345  0.00  0.00    +0.124 C 
ATOM      5  C   UNL     1      33.022 -23.276 -16.695  0.00  0.00    +0.041 C 
ATOM      6  C   UNL     1      35.380 -22.800 -16.474  0.00  0.00    +0.087 C 
ATOM      7  C   UNL     1      34.115 -23.557 -14.560  0.00  0.00    +0.032 C 
ATOM      8  C   UNL     1      35.322 -23.146 -15.124  0.00  0.00    +0.071 C 
ENDROOT
BRANCH   3   9
ATOM      9  S   UNL     1      34.227 -22.445 -18.962  0.00  0.00    +0.058 S 
ATOM     10  O   UNL     1      35.269 -21.456 -19.185  0.00  0.00    -0.153 OA
ATOM     11  O   UNL     1      34.215 -23.677 -19.735  0.00  0.00    -0.153 OA
BRANCH   9  12
ATOM     12  N   UNL     1      32.703 -21.689 -19.102  0.00  0.00    -0.203 NA
ATOM     13  H   UNL     1      32.651 -20.906 -18.450  0.00  0.00    +0.144 HD
ATOM     14  H   UNL     1      31.969 -22.362 -18.886  0.00  0.00    +0.144 HD
ENDBRANCH   9  12
ENDBRANCH   3   9
BRANCH   4  15
ATOM     15  S   UNL     1      31.453 -24.135 -14.639  0.00  0.00    +0.057 S 
ATOM     16  O   UNL     1      30.976 -23.079 -13.756  0.00  0.00    -0.153 OA
ATOM     17  O   UNL     1      30.591 -24.635 -15.701  0.00  0.00    -0.153 OA
BRANCH  15  18
ATOM     18  N   UNL     1      31.970 -25.457 -13.687  0.00  0.00    -0.203 NA
ATOM     19  H   UNL     1      32.970 -25.375 -13.504  0.00  0.00    +0.144 HD
ATOM     20  H   UNL     1      31.786 -26.328 -14.185  0.00  0.00    +0.144 HD
ENDBRANCH  15  18
ENDBRANCH   4  15
TORSDOF 4
ENDMDL
