MODEL 1
REMARK VINA RESULT:      -9.5      0.000      0.000
REMARK  Name = 447832
REMARK  10 active torsions:
REMARK  status: ('A' for Active; 'I' for Inactive)
REMARK    1  A    between atoms: C_2  and  O_18
REMARK    2  A    between atoms: C_3  and  O_20
REMARK    3  A    between atoms: C_4  and  N_6
REMARK    4  A    between atoms: C_5  and  C_22
REMARK    5  A    between atoms: C_22  and  O_23
REMARK    6  A    between atoms: O_23  and  P_24
REMARK    7  A    between atoms: P_24  and  O_26
REMARK    8  A    between atoms: P_24  and  O_28
REMARK    9  A    between atoms: O_28  and  C_29
REMARK   10  A    between atoms: C_29  and  C_30
REMARK                            x       y       z     vdW  Elec       q    Type
REMARK                         _______ _______ _______ _____ _____    ______ ____
ROOT
ATOM      1  O   UNL     1      35.130 -17.272 -20.801  0.00  0.00    -0.333 OA
ATOM      2  C   UNL     1      35.408 -18.550 -22.814  0.00  0.00    +0.187 C 
ATOM      3  C   UNL     1      34.572 -17.312 -23.082  0.00  0.00    +0.171 C 
ATOM      4  C   UNL     1      35.479 -18.586 -21.286  0.00  0.00    +0.225 C 
ATOM      5  C   UNL     1      34.965 -16.402 -21.932  0.00  0.00    +0.176 C 
ENDROOT
BRANCH   4   6
ATOM      6  N   UNL     1      34.593 -19.581 -20.681  0.00  0.00    -0.247 N 
ATOM      7  N   UNL     1      32.713 -20.686 -20.205  0.00  0.00    -0.242 NA
ATOM      8  N   UNL     1      36.166 -20.838 -19.323  0.00  0.00    -0.228 NA
ATOM      9  N   UNL     1      35.054 -22.644 -18.116  0.00  0.00    -0.229 NA
ATOM     10  C   UNL     1      34.944 -20.571 -19.807  0.00  0.00    +0.152 C 
ATOM     11  C   UNL     1      33.242 -19.692 -20.888  0.00  0.00    +0.223 C 
ATOM     12  C   UNL     1      33.766 -21.244 -19.526  0.00  0.00    +0.140 C 
ATOM     13  C   UNL     1      33.850 -22.318 -18.644  0.00  0.00    +0.143 C 
ATOM     14  C   UNL     1      36.122 -21.895 -18.483  0.00  0.00    +0.253 C 
ATOM     15  N   UNL     1      32.705 -23.058 -18.303  0.00  0.00    -0.342 N 
ATOM     16  H   UNL     1      32.777 -23.816 -17.679  0.00  0.00    +0.144 HD
ATOM     17  H   UNL     1      31.832 -22.819 -18.689  0.00  0.00    +0.144 HD
ENDBRANCH   4   6
BRANCH   2  18
ATOM     18  O   UNL     1      36.726 -18.408 -23.342  0.00  0.00    -0.378 OA
ATOM     19  H   UNL     1      37.374 -18.641 -22.660  0.00  0.00    +0.211 HD
ENDBRANCH   2  18
BRANCH   3  20
ATOM     20  O   UNL     1      34.828 -16.723 -24.339  0.00  0.00    -0.379 OA
ATOM     21  H   UNL     1      35.775 -16.794 -24.543  0.00  0.00    +0.211 HD
ENDBRANCH   3  20
BRANCH   5  22
ATOM     22  C   UNL     1      33.925 -15.341 -21.619  0.00  0.00    +0.186 C 
BRANCH  22  23
ATOM     23  O   UNL     1      34.265 -14.154 -22.313  0.00  0.00    -0.271 OA
BRANCH  23  24
ATOM     24  P   UNL     1      33.248 -13.538 -23.412  0.00  0.00    +0.476 P 
ATOM     25  O   UNL     1      33.104 -14.355 -24.664  0.00  0.00    -0.227 OA
BRANCH  24  26
ATOM     26  O   UNL     1      31.865 -13.326 -22.599  0.00  0.00    -0.302 OA
ATOM     27  H   UNL     1      31.118 -13.606 -23.152  0.00  0.00    +0.222 HD
ENDBRANCH  24  26
BRANCH  24  28
ATOM     28  O   UNL     1      33.765 -12.022 -23.655  0.00  0.00    -0.273 OA
BRANCH  28  29
ATOM     29  C   UNL     1      33.912 -11.565 -24.988  0.00  0.00    +0.154 C 
BRANCH  29  30
ATOM     30  C   UNL     1      34.878 -10.389 -25.001  0.00  0.00    +0.033 C 
ATOM     31  C   UNL     1      35.695 -10.343 -26.279  0.00  0.00    +0.003 C 
ENDBRANCH  29  30
ENDBRANCH  28  29
ENDBRANCH  24  28
ENDBRANCH  23  24
ENDBRANCH  22  23
ENDBRANCH   5  22
TORSDOF 10
ENDMDL
MODEL 2
REMARK VINA RESULT:      -9.3      1.957      2.399
REMARK  Name = 447832
REMARK  10 active torsions:
REMARK  status: ('A' for Active; 'I' for Inactive)
REMARK    1  A    between atoms: C_2  and  O_18
REMARK    2  A    between atoms: C_3  and  O_20
REMARK    3  A    between atoms: C_4  and  N_6
REMARK    4  A    between atoms: C_5  and  C_22
REMARK    5  A    between atoms: C_22  and  O_23
REMARK    6  A    between atoms: O_23  and  P_24
REMARK    7  A    between atoms: P_24  and  O_26
REMARK    8  A    between atoms: P_24  and  O_28
REMARK    9  A    between atoms: O_28  and  C_29
REMARK   10  A    between atoms: C_29  and  C_30
REMARK                            x       y       z     vdW  Elec       q    Type
REMARK                         _______ _______ _______ _____ _____    ______ ____
ROOT
ATOM      1  O   UNL     1      35.491 -17.655 -20.662  0.00  0.00    -0.333 OA
ATOM      2  C   UNL     1      34.897 -18.466 -22.842  0.00  0.00    +0.187 C 
ATOM      3  C   UNL     1      34.299 -17.091 -22.606  0.00  0.00    +0.171 C 
ATOM      4  C   UNL     1      35.400 -18.860 -21.452  0.00  0.00    +0.225 C 
ATOM      5  C   UNL     1      35.192 -16.535 -21.510  0.00  0.00    +0.176 C 
ENDROOT
BRANCH   4   6
ATOM      6  N   UNL     1      34.539 -19.826 -20.768  0.00  0.00    -0.247 N 
ATOM      7  N   UNL     1      32.691 -20.946 -20.212  0.00  0.00    -0.242 NA
ATOM      8  N   UNL     1      36.138 -20.910 -19.295  0.00  0.00    -0.228 NA
ATOM      9  N   UNL     1      35.072 -22.638 -17.943  0.00  0.00    -0.229 NA
ATOM     10  C   UNL     1      34.913 -20.725 -19.809  0.00  0.00    +0.152 C 
ATOM     11  C   UNL     1      33.195 -19.999 -20.975  0.00  0.00    +0.223 C 
ATOM     12  C   UNL     1      33.754 -21.409 -19.479  0.00  0.00    +0.140 C 
ATOM     13  C   UNL     1      33.863 -22.399 -18.506  0.00  0.00    +0.143 C 
ATOM     14  C   UNL     1      36.118 -21.890 -18.366  0.00  0.00    +0.253 C 
ATOM     15  N   UNL     1      32.739 -23.144 -18.111  0.00  0.00    -0.342 N 
ATOM     16  H   UNL     1      32.828 -23.841 -17.422  0.00  0.00    +0.144 HD
ATOM     17  H   UNL     1      31.862 -22.967 -18.522  0.00  0.00    +0.144 HD
ENDBRANCH   4   6
BRANCH   2  18
ATOM     18  O   UNL     1      36.003 -18.400 -23.741  0.00  0.00    -0.378 OA
ATOM     19  H   UNL     1      36.426 -17.531 -23.669  0.00  0.00    +0.211 HD
ENDBRANCH   2  18
BRANCH   3  20
ATOM     20  O   UNL     1      34.297 -16.274 -23.757  0.00  0.00    -0.379 OA
ATOM     21  H   UNL     1      33.787 -15.467 -23.579  0.00  0.00    +0.211 HD
ENDBRANCH   3  20
BRANCH   5  22
ATOM     22  C   UNL     1      34.536 -15.434 -20.697  0.00  0.00    +0.186 C 
BRANCH  22  23
ATOM     23  O   UNL     1      34.193 -14.370 -21.568  0.00  0.00    -0.271 OA
BRANCH  23  24
ATOM     24  P   UNL     1      32.638 -14.067 -21.904  0.00  0.00    +0.476 P 
ATOM     25  O   UNL     1      32.338 -13.869 -23.362  0.00  0.00    -0.227 OA
BRANCH  24  26
ATOM     26  O   UNL     1      31.837 -15.299 -21.226  0.00  0.00    -0.302 OA
ATOM     27  H   UNL     1      31.317 -14.971 -20.475  0.00  0.00    +0.222 HD
ENDBRANCH  24  26
BRANCH  24  28
ATOM     28  O   UNL     1      32.245 -12.810 -20.961  0.00  0.00    -0.273 OA
BRANCH  28  29
ATOM     29  C   UNL     1      31.597 -11.699 -21.553  0.00  0.00    +0.154 C 
BRANCH  29  30
ATOM     30  C   UNL     1      30.846 -10.934 -20.474  0.00  0.00    +0.033 C 
ATOM     31  C   UNL     1      31.531 -11.044 -19.124  0.00  0.00    +0.003 C 
ENDBRANCH  29  30
ENDBRANCH  28  29
ENDBRANCH  24  28
ENDBRANCH  23  24
ENDBRANCH  22  23
ENDBRANCH   5  22
TORSDOF 10
ENDMDL
MODEL 3
REMARK VINA RESULT:      -8.7      4.367      8.737
REMARK  Name = 447832
REMARK  10 active torsions:
REMARK  status: ('A' for Active; 'I' for Inactive)
REMARK    1  A    between atoms: C_2  and  O_18
REMARK    2  A    between atoms: C_3  and  O_20
REMARK    3  A    between atoms: C_4  and  N_6
REMARK    4  A    between atoms: C_5  and  C_22
REMARK    5  A    between atoms: C_22  and  O_23
REMARK    6  A    between atoms: O_23  and  P_24
REMARK    7  A    between atoms: P_24  and  O_26
REMARK    8  A    between atoms: P_24  and  O_28
REMARK    9  A    between atoms: O_28  and  C_29
REMARK   10  A    between atoms: C_29  and  C_30
REMARK                            x       y       z     vdW  Elec       q    Type
REMARK                         _______ _______ _______ _____ _____    ______ ____
ROOT
ATOM      1  O   UNL     1      33.794 -18.827 -22.206  0.00  0.00    -0.333 OA
ATOM      2  C   UNL     1      35.924 -17.795 -21.810  0.00  0.00    +0.187 C 
ATOM      3  C   UNL     1      35.632 -18.835 -20.744  0.00  0.00    +0.171 C 
ATOM      4  C   UNL     1      34.581 -17.662 -22.531  0.00  0.00    +0.225 C 
ATOM      5  C   UNL     1      34.607 -19.722 -21.431  0.00  0.00    +0.176 C 
ENDROOT
BRANCH   4   6
ATOM      6  N   UNL     1      33.838 -16.455 -22.168  0.00  0.00    -0.247 N 
ATOM      7  N   UNL     1      32.694 -15.007 -20.913  0.00  0.00    -0.242 NA
ATOM      8  N   UNL     1      33.858 -15.248 -24.277  0.00  0.00    -0.228 NA
ATOM      9  N   UNL     1      32.687 -13.116 -24.092  0.00  0.00    -0.229 NA
ATOM     10  C   UNL     1      33.538 -15.399 -22.983  0.00  0.00    +0.152 C 
ATOM     11  C   UNL     1      33.308 -16.171 -20.936  0.00  0.00    +0.223 C 
ATOM     12  C   UNL     1      32.830 -14.513 -22.187  0.00  0.00    +0.140 C 
ATOM     13  C   UNL     1      32.398 -13.334 -22.786  0.00  0.00    +0.143 C 
ATOM     14  C   UNL     1      33.388 -14.072 -24.746  0.00  0.00    +0.253 C 
ATOM     15  N   UNL     1      31.675 -12.378 -22.053  0.00  0.00    -0.342 N 
ATOM     16  H   UNL     1      31.376 -11.547 -22.488  0.00  0.00    +0.144 HD
ATOM     17  H   UNL     1      31.468 -12.540 -21.104  0.00  0.00    +0.144 HD
ENDBRANCH   4   6
BRANCH   2  18
ATOM     18  O   UNL     1      36.908 -18.262 -22.732  0.00  0.00    -0.378 OA
ATOM     19  H   UNL     1      37.563 -18.798 -22.259  0.00  0.00    +0.211 HD
ENDBRANCH   2  18
BRANCH   3  20
ATOM     20  O   UNL     1      36.774 -19.559 -20.337  0.00  0.00    -0.379 OA
ATOM     21  H   UNL     1      37.283 -19.028 -19.703  0.00  0.00    +0.211 HD
ENDBRANCH   3  20
BRANCH   5  22
ATOM     22  C   UNL     1      33.737 -20.501 -20.462  0.00  0.00    +0.186 C 
BRANCH  22  23
ATOM     23  O   UNL     1      34.576 -21.273 -19.620  0.00  0.00    -0.271 OA
BRANCH  23  24
ATOM     24  P   UNL     1      33.957 -22.500 -18.764  0.00  0.00    +0.476 P 
ATOM     25  O   UNL     1      32.541 -22.298 -18.308  0.00  0.00    -0.227 OA
BRANCH  24  26
ATOM     26  O   UNL     1      34.166 -23.794 -19.715  0.00  0.00    -0.302 OA
ATOM     27  H   UNL     1      33.402 -23.887 -20.306  0.00  0.00    +0.222 HD
ENDBRANCH  24  26
BRANCH  24  28
ATOM     28  O   UNL     1      35.019 -22.751 -17.567  0.00  0.00    -0.273 OA
BRANCH  28  29
ATOM     29  C   UNL     1      36.232 -22.018 -17.577  0.00  0.00    +0.154 C 
BRANCH  29  30
ATOM     30  C   UNL     1      37.017 -22.350 -16.317  0.00  0.00    +0.033 C 
ATOM     31  C   UNL     1      36.160 -23.070 -15.291  0.00  0.00    +0.003 C 
ENDBRANCH  29  30
ENDBRANCH  28  29
ENDBRANCH  24  28
ENDBRANCH  23  24
ENDBRANCH  22  23
ENDBRANCH   5  22
TORSDOF 10
ENDMDL
MODEL 4
REMARK VINA RESULT:      -8.7      5.175      9.396
REMARK  Name = 447832
REMARK  10 active torsions:
REMARK  status: ('A' for Active; 'I' for Inactive)
REMARK    1  A    between atoms: C_2  and  O_18
REMARK    2  A    between atoms: C_3  and  O_20
REMARK    3  A    between atoms: C_4  and  N_6
REMARK    4  A    between atoms: C_5  and  C_22
REMARK    5  A    between atoms: C_22  and  O_23
REMARK    6  A    between atoms: O_23  and  P_24
REMARK    7  A    between atoms: P_24  and  O_26
REMARK    8  A    between atoms: P_24  and  O_28
REMARK    9  A    between atoms: O_28  and  C_29
REMARK   10  A    between atoms: C_29  and  C_30
REMARK                            x       y       z     vdW  Elec       q    Type
REMARK                         _______ _______ _______ _____ _____    ______ ____
ROOT
ATOM      1  O   UNL     1      33.240 -13.871 -23.412  0.00  0.00    -0.333 OA
ATOM      2  C   UNL     1      33.200 -13.882 -25.812  0.00  0.00    +0.187 C 
ATOM      3  C   UNL     1      34.188 -14.911 -25.293  0.00  0.00    +0.171 C 
ATOM      4  C   UNL     1      32.856 -13.079 -24.556  0.00  0.00    +0.225 C 
ATOM      5  C   UNL     1      33.688 -15.153 -23.879  0.00  0.00    +0.176 C 
ENDROOT
BRANCH   4   6
ATOM      6  N   UNL     1      33.518 -11.776 -24.492  0.00  0.00    -0.247 N 
ATOM      7  N   UNL     1      34.957 -10.141 -24.979  0.00  0.00    -0.242 NA
ATOM      8  N   UNL     1      32.240 -10.692 -22.734  0.00  0.00    -0.228 NA
ATOM      9  N   UNL     1      33.052  -8.431 -22.308  0.00  0.00    -0.229 NA
ATOM     10  C   UNL     1      33.209 -10.737 -23.660  0.00  0.00    +0.152 C 
ATOM     11  C   UNL     1      34.576 -11.368 -25.264  0.00  0.00    +0.223 C 
ATOM     12  C   UNL     1      34.111  -9.734 -23.978  0.00  0.00    +0.140 C 
ATOM     13  C   UNL     1      34.009  -8.545 -23.261  0.00  0.00    +0.143 C 
ATOM     14  C   UNL     1      32.240  -9.496 -22.107  0.00  0.00    +0.253 C 
ATOM     15  N   UNL     1      34.882  -7.475 -23.519  0.00  0.00    -0.342 N 
ATOM     16  H   UNL     1      34.800  -6.639 -23.006  0.00  0.00    +0.144 HD
ATOM     17  H   UNL     1      35.575  -7.561 -24.212  0.00  0.00    +0.144 HD
ENDBRANCH   4   6
BRANCH   2  18
ATOM     18  O   UNL     1      32.018 -14.506 -26.310  0.00  0.00    -0.378 OA
ATOM     19  H   UNL     1      31.286 -13.870 -26.294  0.00  0.00    +0.211 HD
ENDBRANCH   2  18
BRANCH   3  20
ATOM     20  O   UNL     1      34.218 -16.097 -26.058  0.00  0.00    -0.379 OA
ATOM     21  H   UNL     1      35.129 -16.430 -26.101  0.00  0.00    +0.211 HD
ENDBRANCH   3  20
BRANCH   5  22
ATOM     22  C   UNL     1      34.754 -15.698 -22.947  0.00  0.00    +0.186 C 
BRANCH  22  23
ATOM     23  O   UNL     1      34.371 -16.997 -22.529  0.00  0.00    -0.271 OA
BRANCH  23  24
ATOM     24  P   UNL     1      35.049 -18.300 -23.209  0.00  0.00    +0.476 P 
ATOM     25  O   UNL     1      34.854 -18.409 -24.694  0.00  0.00    -0.227 OA
BRANCH  24  26
ATOM     26  O   UNL     1      36.600 -18.226 -22.750  0.00  0.00    -0.302 OA
ATOM     27  H   UNL     1      36.764 -18.884 -22.056  0.00  0.00    +0.222 HD
ENDBRANCH  24  26
BRANCH  24  28
ATOM     28  O   UNL     1      34.477 -19.558 -22.362  0.00  0.00    -0.273 OA
BRANCH  28  29
ATOM     29  C   UNL     1      34.321 -19.412 -20.961  0.00  0.00    +0.154 C 
BRANCH  29  30
ATOM     30  C   UNL     1      33.056 -20.138 -20.530  0.00  0.00    +0.033 C 
ATOM     31  C   UNL     1      33.355 -21.263 -19.555  0.00  0.00    +0.003 C 
ENDBRANCH  29  30
ENDBRANCH  28  29
ENDBRANCH  24  28
ENDBRANCH  23  24
ENDBRANCH  22  23
ENDBRANCH   5  22
TORSDOF 10
ENDMDL
MODEL 5
REMARK VINA RESULT:      -8.6      4.447      8.881
REMARK  Name = 447832
REMARK  10 active torsions:
REMARK  status: ('A' for Active; 'I' for Inactive)
REMARK    1  A    between atoms: C_2  and  O_18
REMARK    2  A    between atoms: C_3  and  O_20
REMARK    3  A    between atoms: C_4  and  N_6
REMARK    4  A    between atoms: C_5  and  C_22
REMARK    5  A    between atoms: C_22  and  O_23
REMARK    6  A    between atoms: O_23  and  P_24
REMARK    7  A    between atoms: P_24  and  O_26
REMARK    8  A    between atoms: P_24  and  O_28
REMARK    9  A    between atoms: O_28  and  C_29
REMARK   10  A    between atoms: C_29  and  C_30
REMARK                            x       y       z     vdW  Elec       q    Type
REMARK                         _______ _______ _______ _____ _____    ______ ____
ROOT
ATOM      1  O   UNL     1      33.779 -18.913 -22.199  0.00  0.00    -0.333 OA
ATOM      2  C   UNL     1      35.914 -17.918 -21.735  0.00  0.00    +0.187 C 
ATOM      3  C   UNL     1      35.573 -18.957 -20.684  0.00  0.00    +0.171 C 
ATOM      4  C   UNL     1      34.595 -17.759 -22.495  0.00  0.00    +0.225 C 
ATOM      5  C   UNL     1      34.554 -19.824 -21.405  0.00  0.00    +0.176 C 
ENDROOT
BRANCH   4   6
ATOM      6  N   UNL     1      33.861 -16.541 -22.149  0.00  0.00    -0.247 N 
ATOM      7  N   UNL     1      32.743 -15.060 -20.910  0.00  0.00    -0.242 NA
ATOM      8  N   UNL     1      33.847 -15.387 -24.287  0.00  0.00    -0.228 NA
ATOM      9  N   UNL     1      32.685 -13.247 -24.134  0.00  0.00    -0.229 NA
ATOM     10  C   UNL     1      33.550 -15.505 -22.984  0.00  0.00    +0.152 C 
ATOM     11  C   UNL     1      33.355 -16.225 -20.915  0.00  0.00    +0.223 C 
ATOM     12  C   UNL     1      32.858 -14.598 -22.197  0.00  0.00    +0.140 C 
ATOM     13  C   UNL     1      32.419 -13.432 -22.818  0.00  0.00    +0.143 C 
ATOM     14  C   UNL     1      33.372 -14.221 -24.776  0.00  0.00    +0.253 C 
ATOM     15  N   UNL     1      31.712 -12.456 -22.095  0.00  0.00    -0.342 N 
ATOM     16  H   UNL     1      31.406 -11.636 -22.545  0.00  0.00    +0.144 HD
ATOM     17  H   UNL     1      31.521 -12.594 -21.140  0.00  0.00    +0.144 HD
ENDBRANCH   4   6
BRANCH   2  18
ATOM     18  O   UNL     1      36.917 -18.397 -22.629  0.00  0.00    -0.378 OA
ATOM     19  H   UNL     1      37.269 -19.237 -22.298  0.00  0.00    +0.211 HD
ENDBRANCH   2  18
BRANCH   3  20
ATOM     20  O   UNL     1      36.690 -19.701 -20.246  0.00  0.00    -0.379 OA
ATOM     21  H   UNL     1      36.413 -20.609 -20.042  0.00  0.00    +0.211 HD
ENDBRANCH   3  20
BRANCH   5  22
ATOM     22  C   UNL     1      33.643 -20.593 -20.466  0.00  0.00    +0.186 C 
BRANCH  22  23
ATOM     23  O   UNL     1      34.431 -21.167 -19.438  0.00  0.00    -0.271 OA
BRANCH  23  24
ATOM     24  P   UNL     1      34.047 -22.621 -18.837  0.00  0.00    +0.476 P 
ATOM     25  O   UNL     1      34.137 -23.751 -19.821  0.00  0.00    -0.227 OA
BRANCH  24  26
ATOM     26  O   UNL     1      35.014 -22.787 -17.550  0.00  0.00    -0.302 OA
ATOM     27  H   UNL     1      34.514 -22.589 -16.742  0.00  0.00    +0.222 HD
ENDBRANCH  24  26
BRANCH  24  28
ATOM     28  O   UNL     1      32.583 -22.423 -18.172  0.00  0.00    -0.273 OA
BRANCH  28  29
ATOM     29  C   UNL     1      32.287 -23.119 -16.974  0.00  0.00    +0.154 C 
BRANCH  29  30
ATOM     30  C   UNL     1      30.877 -22.759 -16.532  0.00  0.00    +0.033 C 
ATOM     31  C   UNL     1      30.679 -22.979 -15.043  0.00  0.00    +0.003 C 
ENDBRANCH  29  30
ENDBRANCH  28  29
ENDBRANCH  24  28
ENDBRANCH  23  24
ENDBRANCH  22  23
ENDBRANCH   5  22
TORSDOF 10
ENDMDL
MODEL 6
REMARK VINA RESULT:      -8.6      5.211      9.294
REMARK  Name = 447832
REMARK  10 active torsions:
REMARK  status: ('A' for Active; 'I' for Inactive)
REMARK    1  A    between atoms: C_2  and  O_18
REMARK    2  A    between atoms: C_3  and  O_20
REMARK    3  A    between atoms: C_4  and  N_6
REMARK    4  A    between atoms: C_5  and  C_22
REMARK    5  A    between atoms: C_22  and  O_23
REMARK    6  A    between atoms: O_23  and  P_24
REMARK    7  A    between atoms: P_24  and  O_26
REMARK    8  A    between atoms: P_24  and  O_28
REMARK    9  A    between atoms: O_28  and  C_29
REMARK   10  A    between atoms: C_29  and  C_30
REMARK                            x       y       z     vdW  Elec       q    Type
REMARK                         _______ _______ _______ _____ _____    ______ ____
ROOT
ATOM      1  O   UNL     1      31.992 -14.178 -21.683  0.00  0.00    -0.333 OA
ATOM      2  C   UNL     1      33.322 -13.184 -23.417  0.00  0.00    +0.187 C 
ATOM      3  C   UNL     1      34.153 -14.160 -22.604  0.00  0.00    +0.171 C 
ATOM      4  C   UNL     1      32.045 -13.052 -22.585  0.00  0.00    +0.225 C 
ATOM      5  C   UNL     1      33.090 -15.052 -21.987  0.00  0.00    +0.176 C 
ENDROOT
BRANCH   4   6
ATOM      6  N   UNL     1      31.969 -11.808 -21.818  0.00  0.00    -0.247 N 
ATOM      7  N   UNL     1      31.651 -10.445 -20.080  0.00  0.00    -0.242 NA
ATOM      8  N   UNL     1      32.585 -10.181 -23.513  0.00  0.00    -0.228 NA
ATOM      9  N   UNL     1      32.580  -7.913 -22.612  0.00  0.00    -0.229 NA
ATOM     10  C   UNL     1      32.220 -10.545 -22.275  0.00  0.00    +0.152 C 
ATOM     11  C   UNL     1      31.631 -11.694 -20.494  0.00  0.00    +0.223 C 
ATOM     12  C   UNL     1      32.018  -9.716 -21.183  0.00  0.00    +0.140 C 
ATOM     13  C   UNL     1      32.211  -8.352 -21.384  0.00  0.00    +0.143 C 
ATOM     14  C   UNL     1      32.741  -8.841 -23.585  0.00  0.00    +0.253 C 
ATOM     15  N   UNL     1      32.030  -7.438 -20.332  0.00  0.00    -0.342 N 
ATOM     16  H   UNL     1      32.170  -6.476 -20.486  0.00  0.00    +0.144 HD
ATOM     17  H   UNL     1      31.763  -7.760 -19.441  0.00  0.00    +0.144 HD
ENDBRANCH   4   6
BRANCH   2  18
ATOM     18  O   UNL     1      32.996 -13.724 -24.696  0.00  0.00    -0.378 OA
ATOM     19  H   UNL     1      32.064 -13.992 -24.705  0.00  0.00    +0.211 HD
ENDBRANCH   2  18
BRANCH   3  20
ATOM     20  O   UNL     1      35.078 -14.892 -23.379  0.00  0.00    -0.379 OA
ATOM     21  H   UNL     1      35.219 -14.439 -24.226  0.00  0.00    +0.211 HD
ENDBRANCH   3  20
BRANCH   5  22
ATOM     22  C   UNL     1      33.551 -15.758 -20.725  0.00  0.00    +0.186 C 
BRANCH  22  23
ATOM     23  O   UNL     1      34.836 -16.309 -20.957  0.00  0.00    -0.271 OA
BRANCH  23  24
ATOM     24  P   UNL     1      34.980 -17.823 -21.514  0.00  0.00    +0.476 P 
ATOM     25  O   UNL     1      35.308 -17.926 -22.975  0.00  0.00    -0.227 OA
BRANCH  24  26
ATOM     26  O   UNL     1      36.081 -18.501 -20.540  0.00  0.00    -0.302 OA
ATOM     27  H   UNL     1      35.630 -19.012 -19.849  0.00  0.00    +0.222 HD
ENDBRANCH  24  26
BRANCH  24  28
ATOM     28  O   UNL     1      33.604 -18.560 -21.080  0.00  0.00    -0.273 OA
BRANCH  28  29
ATOM     29  C   UNL     1      33.513 -19.965 -21.237  0.00  0.00    +0.154 C 
BRANCH  29  30
ATOM     30  C   UNL     1      32.982 -20.570 -19.946  0.00  0.00    +0.033 C 
ATOM     31  C   UNL     1      33.899 -21.655 -19.411  0.00  0.00    +0.003 C 
ENDBRANCH  29  30
ENDBRANCH  28  29
ENDBRANCH  24  28
ENDBRANCH  23  24
ENDBRANCH  22  23
ENDBRANCH   5  22
TORSDOF 10
ENDMDL
MODEL 7
REMARK VINA RESULT:      -8.6      5.351      8.759
REMARK  Name = 447832
REMARK  10 active torsions:
REMARK  status: ('A' for Active; 'I' for Inactive)
REMARK    1  A    between atoms: C_2  and  O_18
REMARK    2  A    between atoms: C_3  and  O_20
REMARK    3  A    between atoms: C_4  and  N_6
REMARK    4  A    between atoms: C_5  and  C_22
REMARK    5  A    between atoms: C_22  and  O_23
REMARK    6  A    between atoms: O_23  and  P_24
REMARK    7  A    between atoms: P_24  and  O_26
REMARK    8  A    between atoms: P_24  and  O_28
REMARK    9  A    between atoms: O_28  and  C_29
REMARK   10  A    between atoms: C_29  and  C_30
REMARK                            x       y       z     vdW  Elec       q    Type
REMARK                         _______ _______ _______ _____ _____    ______ ____
ROOT
ATOM      1  O   UNL     1      31.954 -14.244 -21.762  0.00  0.00    -0.333 OA
ATOM      2  C   UNL     1      33.445 -13.134 -23.280  0.00  0.00    +0.187 C 
ATOM      3  C   UNL     1      34.184 -14.203 -22.497  0.00  0.00    +0.171 C 
ATOM      4  C   UNL     1      32.104 -13.042 -22.548  0.00  0.00    +0.225 C 
ATOM      5  C   UNL     1      33.055 -15.118 -22.055  0.00  0.00    +0.176 C 
ENDROOT
BRANCH   4   6
ATOM      6  N   UNL     1      31.990 -11.873 -21.676  0.00  0.00    -0.247 N 
ATOM      7  N   UNL     1      31.597 -10.671 -19.837  0.00  0.00    -0.242 NA
ATOM      8  N   UNL     1      32.651 -10.097 -23.197  0.00  0.00    -0.228 NA
ATOM      9  N   UNL     1      32.593  -7.919 -22.098  0.00  0.00    -0.229 NA
ATOM     10  C   UNL     1      32.246 -10.572 -22.010  0.00  0.00    +0.152 C 
ATOM     11  C   UNL     1      31.604 -11.879 -20.361  0.00  0.00    +0.223 C 
ATOM     12  C   UNL     1      31.997  -9.845 -20.857  0.00  0.00    +0.140 C 
ATOM     13  C   UNL     1      32.185  -8.468 -20.929  0.00  0.00    +0.143 C 
ATOM     14  C   UNL     1      32.798  -8.756 -23.144  0.00  0.00    +0.253 C 
ATOM     15  N   UNL     1      31.957  -7.652 -19.807  0.00  0.00    -0.342 N 
ATOM     16  H   UNL     1      32.094  -6.679 -19.870  0.00  0.00    +0.144 HD
ATOM     17  H   UNL     1      31.661  -8.054 -18.959  0.00  0.00    +0.144 HD
ENDBRANCH   4   6
BRANCH   2  18
ATOM     18  O   UNL     1      33.217 -13.546 -24.627  0.00  0.00    -0.378 OA
ATOM     19  H   UNL     1      33.406 -14.493 -24.711  0.00  0.00    +0.211 HD
ENDBRANCH   2  18
BRANCH   3  20
ATOM     20  O   UNL     1      35.156 -14.887 -23.258  0.00  0.00    -0.379 OA
ATOM     21  H   UNL     1      35.915 -14.301 -23.413  0.00  0.00    +0.211 HD
ENDBRANCH   3  20
BRANCH   5  22
ATOM     22  C   UNL     1      33.394 -15.949 -20.831  0.00  0.00    +0.186 C 
BRANCH  22  23
ATOM     23  O   UNL     1      34.732 -16.399 -20.945  0.00  0.00    -0.271 OA
BRANCH  23  24
ATOM     24  P   UNL     1      35.039 -17.939 -21.337  0.00  0.00    +0.476 P 
ATOM     25  O   UNL     1      36.169 -18.569 -20.574  0.00  0.00    -0.227 OA
BRANCH  24  26
ATOM     26  O   UNL     1      33.617 -18.689 -21.149  0.00  0.00    -0.302 OA
ATOM     27  H   UNL     1      33.027 -18.133 -20.615  0.00  0.00    +0.222 HD
ENDBRANCH  24  26
BRANCH  24  28
ATOM     28  O   UNL     1      35.237 -17.929 -22.945  0.00  0.00    -0.273 OA
BRANCH  28  29
ATOM     29  C   UNL     1      34.989 -19.125 -23.663  0.00  0.00    +0.154 C 
BRANCH  29  30
ATOM     30  C   UNL     1      34.258 -18.783 -24.952  0.00  0.00    +0.033 C 
ATOM     31  C   UNL     1      34.441 -17.325 -25.335  0.00  0.00    +0.003 C 
ENDBRANCH  29  30
ENDBRANCH  28  29
ENDBRANCH  24  28
ENDBRANCH  23  24
ENDBRANCH  22  23
ENDBRANCH   5  22
TORSDOF 10
ENDMDL
MODEL 8
REMARK VINA RESULT:      -8.5      4.839      9.051
REMARK  Name = 447832
REMARK  10 active torsions:
REMARK  status: ('A' for Active; 'I' for Inactive)
REMARK    1  A    between atoms: C_2  and  O_18
REMARK    2  A    between atoms: C_3  and  O_20
REMARK    3  A    between atoms: C_4  and  N_6
REMARK    4  A    between atoms: C_5  and  C_22
REMARK    5  A    between atoms: C_22  and  O_23
REMARK    6  A    between atoms: O_23  and  P_24
REMARK    7  A    between atoms: P_24  and  O_26
REMARK    8  A    between atoms: P_24  and  O_28
REMARK    9  A    between atoms: O_28  and  C_29
REMARK   10  A    between atoms: C_29  and  C_30
REMARK                            x       y       z     vdW  Elec       q    Type
REMARK                         _______ _______ _______ _____ _____    ______ ____
ROOT
ATOM      1  O   UNL     1      32.358 -14.608 -22.142  0.00  0.00    -0.333 OA
ATOM      2  C   UNL     1      33.634 -14.037 -24.094  0.00  0.00    +0.187 C 
ATOM      3  C   UNL     1      34.497 -14.788 -23.097  0.00  0.00    +0.171 C 
ATOM      4  C   UNL     1      32.374 -13.724 -23.284  0.00  0.00    +0.225 C 
ATOM      5  C   UNL     1      33.461 -15.520 -22.261  0.00  0.00    +0.176 C 
ENDROOT
BRANCH   4   6
ATOM      6  N   UNL     1      32.299 -12.336 -22.828  0.00  0.00    -0.247 N 
ATOM      7  N   UNL     1      31.640 -10.561 -21.648  0.00  0.00    -0.242 NA
ATOM      8  N   UNL     1      33.940 -11.283 -24.278  0.00  0.00    -0.228 NA
ATOM      9  N   UNL     1      34.124  -8.893 -23.823  0.00  0.00    -0.229 NA
ATOM     10  C   UNL     1      33.020 -11.276 -23.302  0.00  0.00    +0.152 C 
ATOM     11  C   UNL     1      31.484 -11.854 -21.836  0.00  0.00    +0.223 C 
ATOM     12  C   UNL     1      32.597 -10.186 -22.557  0.00  0.00    +0.140 C 
ATOM     13  C   UNL     1      33.186  -8.959 -22.847  0.00  0.00    +0.143 C 
ATOM     14  C   UNL     1      34.438 -10.042 -24.467  0.00  0.00    +0.253 C 
ATOM     15  N   UNL     1      32.819  -7.801 -22.140  0.00  0.00    -0.342 N 
ATOM     16  H   UNL     1      33.243  -6.939 -22.354  0.00  0.00    +0.144 HD
ATOM     17  H   UNL     1      32.137  -7.853 -21.432  0.00  0.00    +0.144 HD
ENDBRANCH   4   6
BRANCH   2  18
ATOM     18  O   UNL     1      33.287 -14.865 -25.203  0.00  0.00    -0.378 OA
ATOM     19  H   UNL     1      32.602 -15.496 -24.932  0.00  0.00    +0.211 HD
ENDBRANCH   2  18
BRANCH   3  20
ATOM     20  O   UNL     1      35.414 -15.674 -23.702  0.00  0.00    -0.379 OA
ATOM     21  H   UNL     1      34.937 -16.441 -24.055  0.00  0.00    +0.211 HD
ENDBRANCH   3  20
BRANCH   5  22
ATOM     22  C   UNL     1      33.961 -15.906 -20.881  0.00  0.00    +0.186 C 
BRANCH  22  23
ATOM     23  O   UNL     1      35.154 -16.656 -21.024  0.00  0.00    -0.271 OA
BRANCH  23  24
ATOM     24  P   UNL     1      35.082 -18.229 -21.403  0.00  0.00    +0.476 P 
ATOM     25  O   UNL     1      35.199 -18.528 -22.870  0.00  0.00    -0.227 OA
BRANCH  24  26
ATOM     26  O   UNL     1      36.238 -18.909 -20.496  0.00  0.00    -0.302 OA
ATOM     27  H   UNL     1      36.431 -19.799 -20.832  0.00  0.00    +0.222 HD
ENDBRANCH  24  26
BRANCH  24  28
ATOM     28  O   UNL     1      33.716 -18.762 -20.714  0.00  0.00    -0.273 OA
BRANCH  28  29
ATOM     29  C   UNL     1      33.237 -20.046 -21.072  0.00  0.00    +0.154 C 
BRANCH  29  30
ATOM     30  C   UNL     1      33.066 -20.877 -19.810  0.00  0.00    +0.033 C 
ATOM     31  C   UNL     1      34.333 -21.635 -19.457  0.00  0.00    +0.003 C 
ENDBRANCH  29  30
ENDBRANCH  28  29
ENDBRANCH  24  28
ENDBRANCH  23  24
ENDBRANCH  22  23
ENDBRANCH   5  22
TORSDOF 10
ENDMDL
MODEL 9
REMARK VINA RESULT:      -8.5      4.787      8.909
REMARK  Name = 447832
REMARK  10 active torsions:
REMARK  status: ('A' for Active; 'I' for Inactive)
REMARK    1  A    between atoms: C_2  and  O_18
REMARK    2  A    between atoms: C_3  and  O_20
REMARK    3  A    between atoms: C_4  and  N_6
REMARK    4  A    between atoms: C_5  and  C_22
REMARK    5  A    between atoms: C_22  and  O_23
REMARK    6  A    between atoms: O_23  and  P_24
REMARK    7  A    between atoms: P_24  and  O_26
REMARK    8  A    between atoms: P_24  and  O_28
REMARK    9  A    between atoms: O_28  and  C_29
REMARK   10  A    between atoms: C_29  and  C_30
REMARK                            x       y       z     vdW  Elec       q    Type
REMARK                         _______ _______ _______ _____ _____    ______ ____
ROOT
ATOM      1  O   UNL     1      32.796 -14.746 -22.471  0.00  0.00    -0.333 OA
ATOM      2  C   UNL     1      33.867 -14.723 -24.619  0.00  0.00    +0.187 C 
ATOM      3  C   UNL     1      34.748 -15.411 -23.594  0.00  0.00    +0.171 C 
ATOM      4  C   UNL     1      32.775 -14.087 -23.756  0.00  0.00    +0.225 C 
ATOM      5  C   UNL     1      33.745 -15.822 -22.530  0.00  0.00    +0.176 C 
ENDROOT
BRANCH   4   6
ATOM      6  N   UNL     1      32.941 -12.645 -23.567  0.00  0.00    -0.247 N 
ATOM      7  N   UNL     1      33.688 -10.569 -23.903  0.00  0.00    -0.242 NA
ATOM      8  N   UNL     1      31.458 -12.252 -21.684  0.00  0.00    -0.228 NA
ATOM      9  N   UNL     1      31.447  -9.899 -21.038  0.00  0.00    -0.229 NA
ATOM     10  C   UNL     1      32.331 -11.865 -22.626  0.00  0.00    +0.152 C 
ATOM     11  C   UNL     1      33.746 -11.820 -24.309  0.00  0.00    +0.223 C 
ATOM     12  C   UNL     1      32.806 -10.583 -22.852  0.00  0.00    +0.140 C 
ATOM     13  C   UNL     1      32.332  -9.579 -22.013  0.00  0.00    +0.143 C 
ATOM     14  C   UNL     1      31.071 -11.196 -20.936  0.00  0.00    +0.253 C 
ATOM     15  N   UNL     1      32.758  -8.249 -22.172  0.00  0.00    -0.342 N 
ATOM     16  H   UNL     1      32.416  -7.547 -21.572  0.00  0.00    +0.144 HD
ATOM     17  H   UNL     1      33.401  -8.020 -22.881  0.00  0.00    +0.144 HD
ENDBRANCH   4   6
BRANCH   2  18
ATOM     18  O   UNL     1      33.272 -15.668 -25.507  0.00  0.00    -0.378 OA
ATOM     19  H   UNL     1      33.928 -15.950 -26.164  0.00  0.00    +0.211 HD
ENDBRANCH   2  18
BRANCH   3  20
ATOM     20  O   UNL     1      35.456 -16.517 -24.113  0.00  0.00    -0.379 OA
ATOM     21  H   UNL     1      36.310 -16.597 -23.658  0.00  0.00    +0.211 HD
ENDBRANCH   3  20
BRANCH   5  22
ATOM     22  C   UNL     1      34.368 -16.034 -21.162  0.00  0.00    +0.186 C 
BRANCH  22  23
ATOM     23  O   UNL     1      35.297 -17.101 -21.247  0.00  0.00    -0.271 OA
BRANCH  23  24
ATOM     24  P   UNL     1      34.773 -18.633 -21.260  0.00  0.00    +0.476 P 
ATOM     25  O   UNL     1      33.330 -18.807 -20.882  0.00  0.00    -0.227 OA
BRANCH  24  26
ATOM     26  O   UNL     1      35.135 -19.164 -22.746  0.00  0.00    -0.302 OA
ATOM     27  H   UNL     1      35.408 -18.415 -23.299  0.00  0.00    +0.222 HD
ENDBRANCH  24  26
BRANCH  24  28
ATOM     28  O   UNL     1      35.817 -19.438 -20.319  0.00  0.00    -0.273 OA
BRANCH  28  29
ATOM     29  C   UNL     1      35.906 -20.845 -20.460  0.00  0.00    +0.154 C 
BRANCH  29  30
ATOM     30  C   UNL     1      35.566 -21.495 -19.127  0.00  0.00    +0.033 C 
ATOM     31  C   UNL     1      34.222 -22.200 -19.169  0.00  0.00    +0.003 C 
ENDBRANCH  29  30
ENDBRANCH  28  29
ENDBRANCH  24  28
ENDBRANCH  23  24
ENDBRANCH  22  23
ENDBRANCH   5  22
TORSDOF 10
ENDMDL
