MODEL 1
REMARK VINA RESULT:      -5.0      0.000      0.000
REMARK  Name = 57449
REMARK  8 active torsions:
REMARK  status: ('A' for Active; 'I' for Inactive)
REMARK    1  A    between atoms: CA_1  and  N_2
REMARK    2  A    between atoms: CA_1  and  C_7
REMARK    3  A    between atoms: CA_1  and  CB_10
REMARK    4  A    between atoms: C_7  and  O_8
REMARK    5  A    between atoms: CB_10  and  CG_11
REMARK    6  A    between atoms: CG_11  and  CD_12
REMARK    7  A    between atoms: CD_12  and  CE_13
REMARK    8  A    between atoms: CE_13  and  NZ_14
REMARK                            x       y       z     vdW  Elec       q    Type
REMARK                         _______ _______ _______ _____ _____    ______ ____
ROOT
ATOM      1  CA  LYS A   1      36.499 -23.268 -11.898  0.00  0.00    +0.036 C 
ENDROOT
BRANCH   1   2
ATOM      2  N   LYS A   1      35.821 -23.268 -13.195  0.00  0.00    +0.389 N 
ATOM      3  H1  LYS A   1      35.932 -22.355 -13.637  0.00  0.00    -0.088 HD
ATOM      4  H2  LYS A   1      34.829 -23.462 -13.060  0.00  0.00    -0.088 HD
ATOM      5  H3  LYS A   1      36.229 -23.987 -13.793  0.00  0.00    -0.088 HD
ENDBRANCH   1   2
BRANCH   1   7
ATOM      6  OXT LYS A   1      35.954 -24.310  -9.790  0.00  0.00    -0.253 OA
ATOM      7  C   LYS A   1      35.772 -24.247 -11.000  0.00  0.00    +0.293 C 
BRANCH   7   8
ATOM      8  O   LYS A   1      34.908 -25.064 -11.654  0.00  0.00    -0.482 OA
ATOM      9  H   LYS A   1      34.021 -25.141 -11.358  0.00  0.00    +0.295 HD
ENDBRANCH   7   8
ENDBRANCH   1   7
BRANCH   1  10
ATOM     10  CB  LYS A   1      37.992 -23.586 -12.046  0.00  0.00    -0.011 C 
BRANCH  10  11
ATOM     11  CG  LYS A   1      38.312 -25.066 -12.299  0.00  0.00    -0.004 C 
BRANCH  11  12
ATOM     12  CD  LYS A   1      38.796 -25.353 -13.723  0.00  0.00    -0.024 C 
BRANCH  12  13
ATOM     13  CE  LYS A   1      37.814 -26.260 -14.464  0.00  0.00    -0.086 C 
BRANCH  13  14
ATOM     14  NZ  LYS A   1      36.801 -26.767 -13.546  0.00  0.00    +0.380 N 
ATOM     15  HZ1 LYS A   1      36.961 -26.381 -12.615  0.00  0.00    -0.089 HD
ATOM     16  HZ2 LYS A   1      36.857 -27.785 -13.506  0.00  0.00    -0.089 HD
ATOM     17  HZ3 LYS A   1      35.876 -26.491 -13.874  0.00  0.00    -0.089 HD
ENDBRANCH  13  14
ENDBRANCH  12  13
ENDBRANCH  11  12
ENDBRANCH  10  11
ENDBRANCH   1  10
TORSDOF 8
ENDMDL
MODEL 2
REMARK VINA RESULT:      -4.9      3.359      4.546
REMARK  Name = 57449
REMARK  8 active torsions:
REMARK  status: ('A' for Active; 'I' for Inactive)
REMARK    1  A    between atoms: CA_1  and  N_2
REMARK    2  A    between atoms: CA_1  and  C_7
REMARK    3  A    between atoms: CA_1  and  CB_10
REMARK    4  A    between atoms: C_7  and  O_8
REMARK    5  A    between atoms: CB_10  and  CG_11
REMARK    6  A    between atoms: CG_11  and  CD_12
REMARK    7  A    between atoms: CD_12  and  CE_13
REMARK    8  A    between atoms: CE_13  and  NZ_14
REMARK                            x       y       z     vdW  Elec       q    Type
REMARK                         _______ _______ _______ _____ _____    ______ ____
ROOT
ATOM      1  CA  LYS A   1      38.739 -25.579 -14.513  0.00  0.00    +0.036 C 
ENDROOT
BRANCH   1   2
ATOM      2  N   LYS A   1      37.913 -24.751 -15.393  0.00  0.00    +0.389 N 
ATOM      3  H1  LYS A   1      38.254 -24.830 -16.352  0.00  0.00    -0.088 HD
ATOM      4  H2  LYS A   1      37.967 -23.778 -15.093  0.00  0.00    -0.088 HD
ATOM      5  H3  LYS A   1      36.945 -25.067 -15.349  0.00  0.00    -0.088 HD
ENDBRANCH   1   2
BRANCH   1   7
ATOM      6  OXT LYS A   1      40.971 -24.694 -14.271  0.00  0.00    -0.253 OA
ATOM      7  C   LYS A   1      40.185 -25.377 -14.916  0.00  0.00    +0.293 C 
BRANCH   7   8
ATOM      8  O   LYS A   1      40.534 -26.004 -16.067  0.00  0.00    -0.482 OA
ATOM      9  H   LYS A   1      40.981 -25.530 -16.742  0.00  0.00    +0.295 HD
ENDBRANCH   7   8
ENDBRANCH   1   7
BRANCH   1  10
ATOM     10  CB  LYS A   1      38.478 -25.260 -13.036  0.00  0.00    -0.011 C 
BRANCH  10  11
ATOM     11  CG  LYS A   1      37.202 -25.887 -12.459  0.00  0.00    -0.004 C 
BRANCH  11  12
ATOM     12  CD  LYS A   1      36.256 -24.869 -11.816  0.00  0.00    -0.024 C 
BRANCH  12  13
ATOM     13  CE  LYS A   1      36.456 -23.477 -12.417  0.00  0.00    -0.086 C 
BRANCH  13  14
ATOM     14  NZ  LYS A   1      35.441 -23.212 -13.429  0.00  0.00    +0.380 N 
ATOM     15  HZ1 LYS A   1      35.894 -22.927 -14.299  0.00  0.00    -0.089 HD
ATOM     16  HZ2 LYS A   1      34.825 -22.466 -13.106  0.00  0.00    -0.089 HD
ATOM     17  HZ3 LYS A   1      34.894 -24.057 -13.592  0.00  0.00    -0.089 HD
ENDBRANCH  13  14
ENDBRANCH  12  13
ENDBRANCH  11  12
ENDBRANCH  10  11
ENDBRANCH   1  10
TORSDOF 8
ENDMDL
MODEL 3
REMARK VINA RESULT:      -4.8      7.667      8.649
REMARK  Name = 57449
REMARK  8 active torsions:
REMARK  status: ('A' for Active; 'I' for Inactive)
REMARK    1  A    between atoms: CA_1  and  N_2
REMARK    2  A    between atoms: CA_1  and  C_7
REMARK    3  A    between atoms: CA_1  and  CB_10
REMARK    4  A    between atoms: C_7  and  O_8
REMARK    5  A    between atoms: CB_10  and  CG_11
REMARK    6  A    between atoms: CG_11  and  CD_12
REMARK    7  A    between atoms: CD_12  and  CE_13
REMARK    8  A    between atoms: CE_13  and  NZ_14
REMARK                            x       y       z     vdW  Elec       q    Type
REMARK                         _______ _______ _______ _____ _____    ______ ____
ROOT
ATOM      1  CA  LYS A   1      29.036 -22.860 -16.049  0.00  0.00    +0.036 C 
ENDROOT
BRANCH   1   2
ATOM      2  N   LYS A   1      30.301 -22.731 -16.775  0.00  0.00    +0.389 N 
ATOM      3  H1  LYS A   1      30.288 -23.344 -17.590  0.00  0.00    -0.088 HD
ATOM      4  H2  LYS A   1      31.072 -22.996 -16.162  0.00  0.00    -0.088 HD
ATOM      5  H3  LYS A   1      30.423 -21.765 -17.077  0.00  0.00    -0.088 HD
ENDBRANCH   1   2
BRANCH   1   7
ATOM      6  OXT LYS A   1      27.543 -23.713 -17.744  0.00  0.00    -0.253 OA
ATOM      7  C   LYS A   1      27.914 -22.764 -17.063  0.00  0.00    +0.293 C 
BRANCH   7   8
ATOM      8  O   LYS A   1      27.363 -21.529 -17.166  0.00  0.00    -0.482 OA
ATOM      9  H   LYS A   1      27.902 -20.767 -17.078  0.00  0.00    +0.295 HD
ENDBRANCH   7   8
ENDBRANCH   1   7
BRANCH   1  10
ATOM     10  CB  LYS A   1      28.991 -24.154 -15.226  0.00  0.00    -0.011 C 
BRANCH  10  11
ATOM     11  CG  LYS A   1      30.296 -24.960 -15.224  0.00  0.00    -0.004 C 
BRANCH  11  12
ATOM     12  CD  LYS A   1      30.981 -25.013 -13.857  0.00  0.00    -0.024 C 
BRANCH  12  13
ATOM     13  CE  LYS A   1      32.334 -24.301 -13.891  0.00  0.00    -0.086 C 
BRANCH  13  14
ATOM     14  NZ  LYS A   1      32.155 -22.866 -13.702  0.00  0.00    +0.380 N 
ATOM     15  HZ1 LYS A   1      31.640 -22.698 -12.837  0.00  0.00    -0.089 HD
ATOM     16  HZ2 LYS A   1      31.630 -22.482 -14.488  0.00  0.00    -0.089 HD
ATOM     17  HZ3 LYS A   1      33.067 -22.414 -13.649  0.00  0.00    -0.089 HD
ENDBRANCH  13  14
ENDBRANCH  12  13
ENDBRANCH  11  12
ENDBRANCH  10  11
ENDBRANCH   1  10
TORSDOF 8
ENDMDL
MODEL 4
REMARK VINA RESULT:      -4.8      8.877      9.667
REMARK  Name = 57449
REMARK  8 active torsions:
REMARK  status: ('A' for Active; 'I' for Inactive)
REMARK    1  A    between atoms: CA_1  and  N_2
REMARK    2  A    between atoms: CA_1  and  C_7
REMARK    3  A    between atoms: CA_1  and  CB_10
REMARK    4  A    between atoms: C_7  and  O_8
REMARK    5  A    between atoms: CB_10  and  CG_11
REMARK    6  A    between atoms: CG_11  and  CD_12
REMARK    7  A    between atoms: CD_12  and  CE_13
REMARK    8  A    between atoms: CE_13  and  NZ_14
REMARK                            x       y       z     vdW  Elec       q    Type
REMARK                         _______ _______ _______ _____ _____    ______ ____
ROOT
ATOM      1  CA  LYS A   1      28.097 -22.432 -16.786  0.00  0.00    +0.036 C 
ENDROOT
BRANCH   1   2
ATOM      2  N   LYS A   1      27.969 -23.825 -17.218  0.00  0.00    +0.389 N 
ATOM      3  H1  LYS A   1      27.029 -24.161 -17.006  0.00  0.00    -0.088 HD
ATOM      4  H2  LYS A   1      28.654 -24.398 -16.725  0.00  0.00    -0.088 HD
ATOM      5  H3  LYS A   1      28.133 -23.886 -18.222  0.00  0.00    -0.088 HD
ENDBRANCH   1   2
BRANCH   1   7
ATOM      6  OXT LYS A   1      25.830 -22.111 -16.020  0.00  0.00    -0.253 OA
ATOM      7  C   LYS A   1      26.714 -21.814 -16.815  0.00  0.00    +0.293 C 
BRANCH   7   8
ATOM      8  O   LYS A   1      26.530 -20.911 -17.811  0.00  0.00    -0.482 OA
ATOM      9  H   LYS A   1      25.999 -21.133 -18.552  0.00  0.00    +0.295 HD
ENDBRANCH   7   8
ENDBRANCH   1   7
BRANCH   1  10
ATOM     10  CB  LYS A   1      28.769 -22.331 -15.412  0.00  0.00    -0.011 C 
BRANCH  10  11
ATOM     11  CG  LYS A   1      30.221 -22.826 -15.368  0.00  0.00    -0.004 C 
BRANCH  11  12
ATOM     12  CD  LYS A   1      30.527 -23.722 -14.166  0.00  0.00    -0.024 C 
BRANCH  12  13
ATOM     13  CE  LYS A   1      30.395 -25.200 -14.535  0.00  0.00    -0.086 C 
BRANCH  13  14
ATOM     14  NZ  LYS A   1      29.016 -25.643 -14.365  0.00  0.00    +0.380 N 
ATOM     15  HZ1 LYS A   1      28.493 -24.937 -13.844  0.00  0.00    -0.089 HD
ATOM     16  HZ2 LYS A   1      29.002 -26.523 -13.850  0.00  0.00    -0.089 HD
ATOM     17  HZ3 LYS A   1      28.586 -25.777 -15.280  0.00  0.00    -0.089 HD
ENDBRANCH  13  14
ENDBRANCH  12  13
ENDBRANCH  11  12
ENDBRANCH  10  11
ENDBRANCH   1  10
TORSDOF 8
ENDMDL
MODEL 5
REMARK VINA RESULT:      -4.7      2.291      4.028
REMARK  Name = 57449
REMARK  8 active torsions:
REMARK  status: ('A' for Active; 'I' for Inactive)
REMARK    1  A    between atoms: CA_1  and  N_2
REMARK    2  A    between atoms: CA_1  and  C_7
REMARK    3  A    between atoms: CA_1  and  CB_10
REMARK    4  A    between atoms: C_7  and  O_8
REMARK    5  A    between atoms: CB_10  and  CG_11
REMARK    6  A    between atoms: CG_11  and  CD_12
REMARK    7  A    between atoms: CD_12  and  CE_13
REMARK    8  A    between atoms: CE_13  and  NZ_14
REMARK                            x       y       z     vdW  Elec       q    Type
REMARK                         _______ _______ _______ _____ _____    ______ ____
ROOT
ATOM      1  CA  LYS A   1      37.781 -26.310 -14.233  0.00  0.00    +0.036 C 
ENDROOT
BRANCH   1   2
ATOM      2  N   LYS A   1      37.110 -26.891 -13.069  0.00  0.00    +0.389 N 
ATOM      3  H1  LYS A   1      37.165 -26.240 -12.285  0.00  0.00    -0.088 HD
ATOM      4  H2  LYS A   1      37.566 -27.767 -12.816  0.00  0.00    -0.088 HD
ATOM      5  H3  LYS A   1      36.132 -27.071 -13.294  0.00  0.00    -0.088 HD
ENDBRANCH   1   2
BRANCH   1   7
ATOM      6  OXT LYS A   1      35.949 -25.311 -15.446  0.00  0.00    -0.253 OA
ATOM      7  C   LYS A   1      36.763 -26.221 -15.352  0.00  0.00    +0.293 C 
BRANCH   7   8
ATOM      8  O   LYS A   1      36.818 -27.249 -16.236  0.00  0.00    -0.482 OA
ATOM      9  H   LYS A   1      36.287 -28.010 -16.103  0.00  0.00    +0.295 HD
ENDBRANCH   7   8
ENDBRANCH   1   7
BRANCH   1  10
ATOM     10  CB  LYS A   1      38.418 -24.957 -13.894  0.00  0.00    -0.011 C 
BRANCH  10  11
ATOM     11  CG  LYS A   1      38.242 -24.510 -12.437  0.00  0.00    -0.004 C 
BRANCH  11  12
ATOM     12  CD  LYS A   1      37.397 -23.243 -12.283  0.00  0.00    -0.024 C 
BRANCH  12  13
ATOM     13  CE  LYS A   1      35.938 -23.588 -11.984  0.00  0.00    -0.086 C 
BRANCH  13  14
ATOM     14  NZ  LYS A   1      35.132 -23.469 -13.193  0.00  0.00    +0.380 N 
ATOM     15  HZ1 LYS A   1      35.329 -22.577 -13.647  0.00  0.00    -0.089 HD
ATOM     16  HZ2 LYS A   1      34.143 -23.513 -12.947  0.00  0.00    -0.089 HD
ATOM     17  HZ3 LYS A   1      35.358 -24.233 -13.829  0.00  0.00    -0.089 HD
ENDBRANCH  13  14
ENDBRANCH  12  13
ENDBRANCH  11  12
ENDBRANCH  10  11
ENDBRANCH   1  10
TORSDOF 8
ENDMDL
MODEL 6
REMARK VINA RESULT:      -4.7     10.998     11.589
REMARK  Name = 57449
REMARK  8 active torsions:
REMARK  status: ('A' for Active; 'I' for Inactive)
REMARK    1  A    between atoms: CA_1  and  N_2
REMARK    2  A    between atoms: CA_1  and  C_7
REMARK    3  A    between atoms: CA_1  and  CB_10
REMARK    4  A    between atoms: C_7  and  O_8
REMARK    5  A    between atoms: CB_10  and  CG_11
REMARK    6  A    between atoms: CG_11  and  CD_12
REMARK    7  A    between atoms: CD_12  and  CE_13
REMARK    8  A    between atoms: CE_13  and  NZ_14
REMARK                            x       y       z     vdW  Elec       q    Type
REMARK                         _______ _______ _______ _____ _____    ______ ____
ROOT
ATOM      1  CA  LYS A   1      34.517 -17.683 -21.893  0.00  0.00    +0.036 C 
ENDROOT
BRANCH   1   2
ATOM      2  N   LYS A   1      35.278 -17.309 -20.700  0.00  0.00    +0.389 N 
ATOM      3  H1  LYS A   1      36.011 -18.000 -20.535  0.00  0.00    -0.088 HD
ATOM      4  H2  LYS A   1      34.654 -17.277 -19.894  0.00  0.00    -0.088 HD
ATOM      5  H3  LYS A   1      35.700 -16.391 -20.839  0.00  0.00    -0.088 HD
ENDBRANCH   1   2
BRANCH   1   7
ATOM      6  OXT LYS A   1      35.327 -15.823 -23.201  0.00  0.00    -0.253 OA
ATOM      7  C   LYS A   1      35.188 -17.035 -23.087  0.00  0.00    +0.293 C 
BRANCH   7   8
ATOM      8  O   LYS A   1      35.609 -17.913 -24.032  0.00  0.00    -0.482 OA
ATOM      9  H   LYS A   1      35.012 -18.546 -24.382  0.00  0.00    +0.295 HD
ENDBRANCH   7   8
ENDBRANCH   1   7
BRANCH   1  10
ATOM     10  CB  LYS A   1      34.397 -19.206 -22.027  0.00  0.00    -0.011 C 
BRANCH  10  11
ATOM     11  CG  LYS A   1      34.606 -19.984 -20.722  0.00  0.00    -0.004 C 
BRANCH  11  12
ATOM     12  CD  LYS A   1      33.323 -20.609 -20.168  0.00  0.00    -0.024 C 
BRANCH  12  13
ATOM     13  CE  LYS A   1      33.620 -21.922 -19.443  0.00  0.00    -0.086 C 
BRANCH  13  14
ATOM     14  NZ  LYS A   1      32.568 -22.216 -18.476  0.00  0.00    +0.380 N 
ATOM     15  HZ1 LYS A   1      31.694 -21.789 -18.785  0.00  0.00    -0.089 HD
ATOM     16  HZ2 LYS A   1      32.828 -21.836 -17.566  0.00  0.00    -0.089 HD
ATOM     17  HZ3 LYS A   1      32.447 -23.225 -18.402  0.00  0.00    -0.089 HD
ENDBRANCH  13  14
ENDBRANCH  12  13
ENDBRANCH  11  12
ENDBRANCH  10  11
ENDBRANCH   1  10
TORSDOF 8
ENDMDL
MODEL 7
REMARK VINA RESULT:      -4.6      7.337      8.119
REMARK  Name = 57449
REMARK  8 active torsions:
REMARK  status: ('A' for Active; 'I' for Inactive)
REMARK    1  A    between atoms: CA_1  and  N_2
REMARK    2  A    between atoms: CA_1  and  C_7
REMARK    3  A    between atoms: CA_1  and  CB_10
REMARK    4  A    between atoms: C_7  and  O_8
REMARK    5  A    between atoms: CB_10  and  CG_11
REMARK    6  A    between atoms: CG_11  and  CD_12
REMARK    7  A    between atoms: CD_12  and  CE_13
REMARK    8  A    between atoms: CE_13  and  NZ_14
REMARK                            x       y       z     vdW  Elec       q    Type
REMARK                         _______ _______ _______ _____ _____    ______ ____
ROOT
ATOM      1  CA  LYS A   1      29.440 -23.948 -16.222  0.00  0.00    +0.036 C 
ENDROOT
BRANCH   1   2
ATOM      2  N   LYS A   1      28.868 -24.646 -15.070  0.00  0.00    +0.389 N 
ATOM      3  H1  LYS A   1      28.352 -25.466 -15.392  0.00  0.00    -0.088 HD
ATOM      4  H2  LYS A   1      28.235 -24.020 -14.572  0.00  0.00    -0.088 HD
ATOM      5  H3  LYS A   1      29.617 -24.941 -14.444  0.00  0.00    -0.088 HD
ENDBRANCH   1   2
BRANCH   1   7
ATOM      6  OXT LYS A   1      27.508 -23.931 -17.670  0.00  0.00    -0.253 OA
ATOM      7  C   LYS A   1      28.298 -23.299 -16.978  0.00  0.00    +0.293 C 
BRANCH   7   8
ATOM      8  O   LYS A   1      28.235 -21.951 -16.839  0.00  0.00    -0.482 OA
ATOM      9  H   LYS A   1      28.721 -21.527 -16.158  0.00  0.00    +0.295 HD
ENDBRANCH   7   8
ENDBRANCH   1   7
BRANCH   1  10
ATOM     10  CB  LYS A   1      30.519 -22.946 -15.791  0.00  0.00    -0.011 C 
BRANCH  10  11
ATOM     11  CG  LYS A   1      31.930 -23.263 -16.303  0.00  0.00    -0.004 C 
BRANCH  11  12
ATOM     12  CD  LYS A   1      32.971 -23.394 -15.189  0.00  0.00    -0.024 C 
BRANCH  12  13
ATOM     13  CE  LYS A   1      32.312 -23.783 -13.865  0.00  0.00    -0.086 C 
BRANCH  13  14
ATOM     14  NZ  LYS A   1      32.336 -25.231 -13.695  0.00  0.00    +0.380 N 
ATOM     15  HZ1 LYS A   1      31.470 -25.535 -13.246  0.00  0.00    -0.089 HD
ATOM     16  HZ2 LYS A   1      33.130 -25.492 -13.111  0.00  0.00    -0.089 HD
ATOM     17  HZ3 LYS A   1      32.422 -25.680 -14.606  0.00  0.00    -0.089 HD
ENDBRANCH  13  14
ENDBRANCH  12  13
ENDBRANCH  11  12
ENDBRANCH  10  11
ENDBRANCH   1  10
TORSDOF 8
ENDMDL
MODEL 8
REMARK VINA RESULT:      -4.6     14.020     14.878
REMARK  Name = 57449
REMARK  8 active torsions:
REMARK  status: ('A' for Active; 'I' for Inactive)
REMARK    1  A    between atoms: CA_1  and  N_2
REMARK    2  A    between atoms: CA_1  and  C_7
REMARK    3  A    between atoms: CA_1  and  CB_10
REMARK    4  A    between atoms: C_7  and  O_8
REMARK    5  A    between atoms: CB_10  and  CG_11
REMARK    6  A    between atoms: CG_11  and  CD_12
REMARK    7  A    between atoms: CD_12  and  CE_13
REMARK    8  A    between atoms: CE_13  and  NZ_14
REMARK                            x       y       z     vdW  Elec       q    Type
REMARK                         _______ _______ _______ _____ _____    ______ ____
ROOT
ATOM      1  CA  LYS A   1      33.579 -15.355 -24.338  0.00  0.00    +0.036 C 
ENDROOT
BRANCH   1   2
ATOM      2  N   LYS A   1      33.221 -14.594 -25.537  0.00  0.00    +0.389 N 
ATOM      3  H1  LYS A   1      33.837 -13.786 -25.623  0.00  0.00    -0.088 HD
ATOM      4  H2  LYS A   1      32.254 -14.278 -25.462  0.00  0.00    -0.088 HD
ATOM      5  H3  LYS A   1      33.321 -15.189 -26.359  0.00  0.00    -0.088 HD
ENDBRANCH   1   2
BRANCH   1   7
ATOM      6  OXT LYS A   1      34.850 -16.847 -25.747  0.00  0.00    -0.253 OA
ATOM      7  C   LYS A   1      34.762 -16.234 -24.690  0.00  0.00    +0.293 C 
BRANCH   7   8
ATOM      8  O   LYS A   1      35.713 -16.299 -23.724  0.00  0.00    -0.482 OA
ATOM      9  H   LYS A   1      36.145 -15.517 -23.440  0.00  0.00    +0.295 HD
ENDBRANCH   7   8
ENDBRANCH   1   7
BRANCH   1  10
ATOM     10  CB  LYS A   1      33.855 -14.427 -23.148  0.00  0.00    -0.011 C 
BRANCH  10  11
ATOM     11  CG  LYS A   1      32.764 -14.425 -22.069  0.00  0.00    -0.004 C 
BRANCH  11  12
ATOM     12  CD  LYS A   1      33.022 -15.420 -20.935  0.00  0.00    -0.024 C 
BRANCH  12  13
ATOM     13  CE  LYS A   1      34.506 -15.465 -20.570  0.00  0.00    -0.086 C 
BRANCH  13  14
ATOM     14  NZ  LYS A   1      35.025 -16.819 -20.728  0.00  0.00    +0.380 N 
ATOM     15  HZ1 LYS A   1      34.257 -17.454 -20.952  0.00  0.00    -0.089 HD
ATOM     16  HZ2 LYS A   1      35.467 -17.116 -19.858  0.00  0.00    -0.089 HD
ATOM     17  HZ3 LYS A   1      35.711 -16.835 -21.482  0.00  0.00    -0.089 HD
ENDBRANCH  13  14
ENDBRANCH  12  13
ENDBRANCH  11  12
ENDBRANCH  10  11
ENDBRANCH   1  10
TORSDOF 8
ENDMDL
MODEL 9
REMARK VINA RESULT:      -4.6     12.281     12.983
REMARK  Name = 57449
REMARK  8 active torsions:
REMARK  status: ('A' for Active; 'I' for Inactive)
REMARK    1  A    between atoms: CA_1  and  N_2
REMARK    2  A    between atoms: CA_1  and  C_7
REMARK    3  A    between atoms: CA_1  and  CB_10
REMARK    4  A    between atoms: C_7  and  O_8
REMARK    5  A    between atoms: CB_10  and  CG_11
REMARK    6  A    between atoms: CG_11  and  CD_12
REMARK    7  A    between atoms: CD_12  and  CE_13
REMARK    8  A    between atoms: CE_13  and  NZ_14
REMARK                            x       y       z     vdW  Elec       q    Type
REMARK                         _______ _______ _______ _____ _____    ______ ____
ROOT
ATOM      1  CA  LYS A   1      34.607 -17.652 -23.605  0.00  0.00    +0.036 C 
ENDROOT
BRANCH   1   2
ATOM      2  N   LYS A   1      35.704 -16.708 -23.385  0.00  0.00    +0.389 N 
ATOM      3  H1  LYS A   1      36.556 -17.224 -23.162  0.00  0.00    -0.088 HD
ATOM      4  H2  LYS A   1      35.469 -16.088 -22.610  0.00  0.00    -0.088 HD
ATOM      5  H3  LYS A   1      35.852 -16.156 -24.229  0.00  0.00    -0.088 HD
ENDBRANCH   1   2
BRANCH   1   7
ATOM      6  OXT LYS A   1      33.652 -18.565 -25.626  0.00  0.00    -0.253 OA
ATOM      7  C   LYS A   1      34.328 -17.692 -25.094  0.00  0.00    +0.293 C 
BRANCH   7   8
ATOM      8  O   LYS A   1      34.907 -16.685 -25.795  0.00  0.00    -0.482 OA
ATOM      9  H   LYS A   1      34.896 -15.811 -25.454  0.00  0.00    +0.295 HD
ENDBRANCH   7   8
ENDBRANCH   1   7
BRANCH   1  10
ATOM     10  CB  LYS A   1      34.928 -19.032 -23.018  0.00  0.00    -0.011 C 
BRANCH  10  11
ATOM     11  CG  LYS A   1      35.449 -19.011 -21.575  0.00  0.00    -0.004 C 
BRANCH  11  12
ATOM     12  CD  LYS A   1      34.795 -20.060 -20.672  0.00  0.00    -0.024 C 
BRANCH  12  13
ATOM     13  CE  LYS A   1      33.271 -19.942 -20.707  0.00  0.00    -0.086 C 
BRANCH  13  14
ATOM     14  NZ  LYS A   1      32.675 -20.778 -19.672  0.00  0.00    +0.380 N 
ATOM     15  HZ1 LYS A   1      33.064 -21.720 -19.730  0.00  0.00    -0.089 HD
ATOM     16  HZ2 LYS A   1      31.665 -20.819 -19.808  0.00  0.00    -0.089 HD
ATOM     17  HZ3 LYS A   1      32.879 -20.382 -18.755  0.00  0.00    -0.089 HD
ENDBRANCH  13  14
ENDBRANCH  12  13
ENDBRANCH  11  12
ENDBRANCH  10  11
ENDBRANCH   1  10
TORSDOF 8
ENDMDL
