MODEL 1
REMARK VINA RESULT:      -5.9      0.000      0.000
REMARK  Name = 449101
REMARK  4 active torsions:
REMARK  status: ('A' for Active; 'I' for Inactive)
REMARK    1  A    between atoms: C_3  and  O_8
REMARK    2  A    between atoms: C_4  and  C_12
REMARK    3  A    between atoms: C_5  and  O_10
REMARK    4  A    between atoms: C_12  and  O_13
REMARK                            x       y       z     vdW  Elec       q    Type
REMARK                         _______ _______ _______ _____ _____    ______ ____
ROOT
ATOM      1  O   UNL     1      38.628 -23.833 -13.002  0.00  0.00    -0.283 OA
ATOM      2  N   UNL     1      38.205 -23.394 -11.674  0.00  0.00    -0.187 NA
ATOM      3  C   UNL     1      36.971 -25.578 -13.056  0.00  0.00    +0.170 C 
ATOM      4  C   UNL     1      38.472 -25.254 -13.067  0.00  0.00    +0.195 C 
ATOM      5  C   UNL     1      36.291 -24.902 -11.857  0.00  0.00    +0.158 C 
ATOM      6  C   UNL     1      36.745 -23.448 -11.712  0.00  0.00    +0.128 C 
ATOM      7  H   UNL     1      38.525 -22.443 -11.492  0.00  0.00    +0.155 HD
ENDROOT
BRANCH   3   8
ATOM      8  O   UNL     1      36.797 -26.989 -12.978  0.00  0.00    -0.379 OA
ATOM      9  H   UNL     1      36.178 -27.200 -12.263  0.00  0.00    +0.211 HD
ENDBRANCH   3   8
BRANCH   5  10
ATOM     10  O   UNL     1      34.878 -24.911 -12.034  0.00  0.00    -0.380 OA
ATOM     11  H   UNL     1      34.476 -24.231 -11.469  0.00  0.00    +0.211 HD
ENDBRANCH   5  10
BRANCH   4  12
ATOM     12  C   UNL     1      39.147 -25.742 -14.344  0.00  0.00    +0.171 C 
BRANCH  12  13
ATOM     13  O   UNL     1      38.144 -26.057 -15.293  0.00  0.00    -0.379 OA
ATOM     14  H   UNL     1      38.348 -26.910 -15.709  0.00  0.00    +0.211 HD
ENDBRANCH  12  13
ENDBRANCH   4  12
TORSDOF 4
ENDMDL
MODEL 2
REMARK VINA RESULT:      -5.8      1.593      2.502
REMARK  Name = 449101
REMARK  4 active torsions:
REMARK  status: ('A' for Active; 'I' for Inactive)
REMARK    1  A    between atoms: C_3  and  O_8
REMARK    2  A    between atoms: C_4  and  C_12
REMARK    3  A    between atoms: C_5  and  O_10
REMARK    4  A    between atoms: C_12  and  O_13
REMARK                            x       y       z     vdW  Elec       q    Type
REMARK                         _______ _______ _______ _____ _____    ______ ____
ROOT
ATOM      1  O   UNL     1      36.700 -26.040 -12.141  0.00  0.00    -0.283 OA
ATOM      2  N   UNL     1      35.714 -25.196 -11.470  0.00  0.00    -0.187 NA
ATOM      3  C   UNL     1      37.719 -24.149 -13.227  0.00  0.00    +0.170 C 
ATOM      4  C   UNL     1      36.966 -25.472 -13.427  0.00  0.00    +0.195 C 
ATOM      5  C   UNL     1      36.949 -23.241 -12.260  0.00  0.00    +0.158 C 
ATOM      6  C   UNL     1      36.466 -24.020 -11.035  0.00  0.00    +0.128 C 
ATOM      7  H   UNL     1      35.311 -25.681 -10.669  0.00  0.00    +0.155 HD
ENDROOT
BRANCH   3   8
ATOM      8  O   UNL     1      37.868 -23.501 -14.486  0.00  0.00    -0.379 OA
ATOM      9  H   UNL     1      38.190 -22.597 -14.348  0.00  0.00    +0.211 HD
ENDBRANCH   3   8
BRANCH   5  10
ATOM     10  O   UNL     1      37.794 -22.186 -11.810  0.00  0.00    -0.380 OA
ATOM     11  H   UNL     1      37.447 -21.824 -10.979  0.00  0.00    +0.211 HD
ENDBRANCH   5  10
BRANCH   4  12
ATOM     12  C   UNL     1      37.788 -26.478 -14.224  0.00  0.00    +0.171 C 
BRANCH  12  13
ATOM     13  O   UNL     1      37.526 -26.286 -15.602  0.00  0.00    -0.379 OA
ATOM     14  H   UNL     1      36.840 -25.608 -15.708  0.00  0.00    +0.211 HD
ENDBRANCH  12  13
ENDBRANCH   4  12
TORSDOF 4
ENDMDL
MODEL 3
REMARK VINA RESULT:      -5.7      1.510      1.982
REMARK  Name = 449101
REMARK  4 active torsions:
REMARK  status: ('A' for Active; 'I' for Inactive)
REMARK    1  A    between atoms: C_3  and  O_8
REMARK    2  A    between atoms: C_4  and  C_12
REMARK    3  A    between atoms: C_5  and  O_10
REMARK    4  A    between atoms: C_12  and  O_13
REMARK                            x       y       z     vdW  Elec       q    Type
REMARK                         _______ _______ _______ _____ _____    ______ ____
ROOT
ATOM      1  O   UNL     1      39.025 -24.611 -12.935  0.00  0.00    -0.283 OA
ATOM      2  N   UNL     1      38.118 -25.193 -11.948  0.00  0.00    -0.187 NA
ATOM      3  C   UNL     1      37.738 -25.484 -14.772  0.00  0.00    +0.170 C 
ATOM      4  C   UNL     1      39.094 -25.502 -14.052  0.00  0.00    +0.195 C 
ATOM      5  C   UNL     1      36.605 -25.771 -13.777  0.00  0.00    +0.158 C 
ATOM      6  C   UNL     1      36.781 -24.963 -12.491  0.00  0.00    +0.128 C 
ATOM      7  H   UNL     1      38.225 -24.731 -11.046  0.00  0.00    +0.155 HD
ENDROOT
BRANCH   3   8
ATOM      8  O   UNL     1      37.741 -26.468 -15.800  0.00  0.00    -0.379 OA
ATOM      9  H   UNL     1      37.745 -27.353 -15.402  0.00  0.00    +0.211 HD
ENDBRANCH   3   8
BRANCH   5  10
ATOM     10  O   UNL     1      35.352 -25.418 -14.357  0.00  0.00    -0.380 OA
ATOM     11  H   UNL     1      34.723 -26.147 -14.238  0.00  0.00    +0.211 HD
ENDBRANCH   5  10
BRANCH   4  12
ATOM     12  C   UNL     1      40.224 -25.031 -14.960  0.00  0.00    +0.171 C 
BRANCH  12  13
ATOM     13  O   UNL     1      40.449 -26.018 -15.949  0.00  0.00    -0.379 OA
ATOM     14  H   UNL     1      39.681 -26.065 -16.541  0.00  0.00    +0.211 HD
ENDBRANCH  12  13
ENDBRANCH   4  12
TORSDOF 4
ENDMDL
MODEL 4
REMARK VINA RESULT:      -5.5      2.418      3.206
REMARK  Name = 449101
REMARK  4 active torsions:
REMARK  status: ('A' for Active; 'I' for Inactive)
REMARK    1  A    between atoms: C_3  and  O_8
REMARK    2  A    between atoms: C_4  and  C_12
REMARK    3  A    between atoms: C_5  and  O_10
REMARK    4  A    between atoms: C_12  and  O_13
REMARK                            x       y       z     vdW  Elec       q    Type
REMARK                         _______ _______ _______ _____ _____    ______ ____
ROOT
ATOM      1  O   UNL     1      38.490 -26.936 -14.976  0.00  0.00    -0.283 OA
ATOM      2  N   UNL     1      37.328 -26.907 -15.860  0.00  0.00    -0.187 NA
ATOM      3  C   UNL     1      37.774 -24.953 -13.814  0.00  0.00    +0.170 C 
ATOM      4  C   UNL     1      38.863 -25.584 -14.693  0.00  0.00    +0.195 C 
ATOM      5  C   UNL     1      36.397 -25.126 -14.470  0.00  0.00    +0.158 C 
ATOM      6  C   UNL     1      36.208 -26.552 -14.991  0.00  0.00    +0.128 C 
ATOM      7  H   UNL     1      37.177 -27.822 -16.285  0.00  0.00    +0.155 HD
ENDROOT
BRANCH   3   8
ATOM      8  O   UNL     1      38.056 -23.569 -13.639  0.00  0.00    -0.379 OA
ATOM      9  H   UNL     1      37.225 -23.071 -13.598  0.00  0.00    +0.211 HD
ENDBRANCH   3   8
BRANCH   5  10
ATOM     10  O   UNL     1      35.371 -24.861 -13.518  0.00  0.00    -0.380 OA
ATOM     11  H   UNL     1      34.839 -24.106 -13.817  0.00  0.00    +0.211 HD
ENDBRANCH   5  10
BRANCH   4  12
ATOM     12  C   UNL     1      40.215 -25.607 -13.989  0.00  0.00    +0.171 C 
BRANCH  12  13
ATOM     13  O   UNL     1      41.002 -26.639 -14.556  0.00  0.00    -0.379 OA
ATOM     14  H   UNL     1      41.716 -26.248 -15.084  0.00  0.00    +0.211 HD
ENDBRANCH  12  13
ENDBRANCH   4  12
TORSDOF 4
ENDMDL
MODEL 5
REMARK VINA RESULT:      -5.4      1.886      4.051
REMARK  Name = 449101
REMARK  4 active torsions:
REMARK  status: ('A' for Active; 'I' for Inactive)
REMARK    1  A    between atoms: C_3  and  O_8
REMARK    2  A    between atoms: C_4  and  C_12
REMARK    3  A    between atoms: C_5  and  O_10
REMARK    4  A    between atoms: C_12  and  O_13
REMARK                            x       y       z     vdW  Elec       q    Type
REMARK                         _______ _______ _______ _____ _____    ______ ____
ROOT
ATOM      1  O   UNL     1      36.240 -25.824 -12.859  0.00  0.00    -0.283 OA
ATOM      2  N   UNL     1      37.135 -26.876 -13.335  0.00  0.00    -0.187 NA
ATOM      3  C   UNL     1      38.046 -24.245 -12.665  0.00  0.00    +0.170 C 
ATOM      4  C   UNL     1      36.959 -25.027 -11.913  0.00  0.00    +0.195 C 
ATOM      5  C   UNL     1      38.907 -25.202 -13.500  0.00  0.00    +0.158 C 
ATOM      6  C   UNL     1      38.039 -26.202 -14.265  0.00  0.00    +0.128 C 
ATOM      7  H   UNL     1      36.608 -27.607 -13.812  0.00  0.00    +0.155 HD
ENDROOT
BRANCH   3   8
ATOM      8  O   UNL     1      38.862 -23.555 -11.724  0.00  0.00    -0.379 OA
ATOM      9  H   UNL     1      38.402 -23.506 -10.871  0.00  0.00    +0.211 HD
ENDBRANCH   3   8
BRANCH   5  10
ATOM     10  O   UNL     1      39.674 -24.463 -14.446  0.00  0.00    -0.380 OA
ATOM     11  H   UNL     1      40.619 -24.598 -14.275  0.00  0.00    +0.211 HD
ENDBRANCH   5  10
BRANCH   4  12
ATOM     12  C   UNL     1      35.964 -24.097 -11.229  0.00  0.00    +0.171 C 
BRANCH  12  13
ATOM     13  O   UNL     1      36.338 -23.956  -9.871  0.00  0.00    -0.379 OA
ATOM     14  H   UNL     1      35.545 -23.979  -9.312  0.00  0.00    +0.211 HD
ENDBRANCH  12  13
ENDBRANCH   4  12
TORSDOF 4
ENDMDL
MODEL 6
REMARK VINA RESULT:      -5.3      1.720      3.451
REMARK  Name = 449101
REMARK  4 active torsions:
REMARK  status: ('A' for Active; 'I' for Inactive)
REMARK    1  A    between atoms: C_3  and  O_8
REMARK    2  A    between atoms: C_4  and  C_12
REMARK    3  A    between atoms: C_5  and  O_10
REMARK    4  A    between atoms: C_12  and  O_13
REMARK                            x       y       z     vdW  Elec       q    Type
REMARK                         _______ _______ _______ _____ _____    ______ ____
ROOT
ATOM      1  O   UNL     1      37.776 -23.181 -13.880  0.00  0.00    -0.283 OA
ATOM      2  N   UNL     1      37.994 -23.496 -15.290  0.00  0.00    -0.187 NA
ATOM      3  C   UNL     1      37.654 -25.510 -13.281  0.00  0.00    +0.170 C 
ATOM      4  C   UNL     1      36.900 -24.173 -13.336  0.00  0.00    +0.195 C 
ATOM      5  C   UNL     1      38.243 -25.844 -14.659  0.00  0.00    +0.158 C 
ATOM      6  C   UNL     1      38.925 -24.623 -15.280  0.00  0.00    +0.128 C 
ATOM      7  H   UNL     1      38.401 -22.699 -15.778  0.00  0.00    +0.155 HD
ENDROOT
BRANCH   3   8
ATOM      8  O   UNL     1      36.757 -26.537 -12.875  0.00  0.00    -0.379 OA
ATOM      9  H   UNL     1      35.971 -26.139 -12.470  0.00  0.00    +0.211 HD
ENDBRANCH   3   8
BRANCH   5  10
ATOM     10  O   UNL     1      39.213 -26.879 -14.532  0.00  0.00    -0.380 OA
ATOM     11  H   UNL     1      38.931 -27.653 -15.045  0.00  0.00    +0.211 HD
ENDBRANCH   5  10
BRANCH   4  12
ATOM     12  C   UNL     1      36.468 -23.709 -11.950  0.00  0.00    +0.171 C 
BRANCH  12  13
ATOM     13  O   UNL     1      37.307 -24.322 -10.988  0.00  0.00    -0.379 OA
ATOM     14  H   UNL     1      36.773 -24.606 -10.228  0.00  0.00    +0.211 HD
ENDBRANCH  12  13
ENDBRANCH   4  12
TORSDOF 4
ENDMDL
MODEL 7
REMARK VINA RESULT:      -5.3      2.395      2.851
REMARK  Name = 449101
REMARK  4 active torsions:
REMARK  status: ('A' for Active; 'I' for Inactive)
REMARK    1  A    between atoms: C_3  and  O_8
REMARK    2  A    between atoms: C_4  and  C_12
REMARK    3  A    between atoms: C_5  and  O_10
REMARK    4  A    between atoms: C_12  and  O_13
REMARK                            x       y       z     vdW  Elec       q    Type
REMARK                         _______ _______ _______ _____ _____    ______ ____
ROOT
ATOM      1  O   UNL     1      38.235 -23.646 -14.580  0.00  0.00    -0.283 OA
ATOM      2  N   UNL     1      39.176 -24.731 -14.311  0.00  0.00    -0.187 NA
ATOM      3  C   UNL     1      36.345 -25.009 -13.973  0.00  0.00    +0.170 C 
ATOM      4  C   UNL     1      37.033 -24.223 -15.099  0.00  0.00    +0.195 C 
ATOM      5  C   UNL     1      37.329 -26.005 -13.345  0.00  0.00    +0.158 C 
ATOM      6  C   UNL     1      38.686 -25.352 -13.082  0.00  0.00    +0.128 C 
ATOM      7  H   UNL     1      40.118 -24.365 -14.178  0.00  0.00    +0.155 HD
ENDROOT
BRANCH   3   8
ATOM      8  O   UNL     1      35.223 -25.705 -14.505  0.00  0.00    -0.379 OA
ATOM      9  H   UNL     1      34.471 -25.098 -14.579  0.00  0.00    +0.211 HD
ENDBRANCH   3   8
BRANCH   5  10
ATOM     10  O   UNL     1      36.813 -26.475 -12.102  0.00  0.00    -0.380 OA
ATOM     11  H   UNL     1      37.458 -26.303 -11.398  0.00  0.00    +0.211 HD
ENDBRANCH   5  10
BRANCH   4  12
ATOM     12  C   UNL     1      36.154 -23.091 -15.618  0.00  0.00    +0.171 C 
BRANCH  12  13
ATOM     13  O   UNL     1      35.172 -23.639 -16.478  0.00  0.00    -0.379 OA
ATOM     14  H   UNL     1      35.504 -23.638 -17.390  0.00  0.00    +0.211 HD
ENDBRANCH  12  13
ENDBRANCH   4  12
TORSDOF 4
ENDMDL
MODEL 8
REMARK VINA RESULT:      -5.3     15.092     15.538
REMARK  Name = 449101
REMARK  4 active torsions:
REMARK  status: ('A' for Active; 'I' for Inactive)
REMARK    1  A    between atoms: C_3  and  O_8
REMARK    2  A    between atoms: C_4  and  C_12
REMARK    3  A    between atoms: C_5  and  O_10
REMARK    4  A    between atoms: C_12  and  O_13
REMARK                            x       y       z     vdW  Elec       q    Type
REMARK                         _______ _______ _______ _____ _____    ______ ____
ROOT
ATOM      1  O   UNL     1      33.550 -16.585 -26.003  0.00  0.00    -0.283 OA
ATOM      2  N   UNL     1      33.513 -15.280 -26.658  0.00  0.00    -0.187 NA
ATOM      3  C   UNL     1      34.001 -15.597 -23.854  0.00  0.00    +0.170 C 
ATOM      4  C   UNL     1      34.526 -16.526 -24.958  0.00  0.00    +0.195 C 
ATOM      5  C   UNL     1      33.600 -14.240 -24.449  0.00  0.00    +0.158 C 
ATOM      6  C   UNL     1      32.784 -14.418 -25.730  0.00  0.00    +0.128 C 
ATOM      7  H   UNL     1      33.025 -15.340 -27.551  0.00  0.00    +0.155 HD
ENDROOT
BRANCH   3   8
ATOM      8  O   UNL     1      35.017 -15.415 -22.873  0.00  0.00    -0.379 OA
ATOM      9  H   UNL     1      34.969 -16.132 -22.221  0.00  0.00    +0.211 HD
ENDBRANCH   3   8
BRANCH   5  10
ATOM     10  O   UNL     1      32.806 -13.517 -23.512  0.00  0.00    -0.380 OA
ATOM     11  H   UNL     1      32.993 -13.836 -22.615  0.00  0.00    +0.211 HD
ENDBRANCH   5  10
BRANCH   4  12
ATOM     12  C   UNL     1      34.752 -17.944 -24.446  0.00  0.00    +0.171 C 
BRANCH  12  13
ATOM     13  O   UNL     1      35.904 -17.949 -23.623  0.00  0.00    -0.379 OA
ATOM     14  H   UNL     1      36.450 -18.723 -23.836  0.00  0.00    +0.211 HD
ENDBRANCH  12  13
ENDBRANCH   4  12
TORSDOF 4
ENDMDL
MODEL 9
REMARK VINA RESULT:      -5.2      1.978      3.508
REMARK  Name = 449101
REMARK  4 active torsions:
REMARK  status: ('A' for Active; 'I' for Inactive)
REMARK    1  A    between atoms: C_3  and  O_8
REMARK    2  A    between atoms: C_4  and  C_12
REMARK    3  A    between atoms: C_5  and  O_10
REMARK    4  A    between atoms: C_12  and  O_13
REMARK                            x       y       z     vdW  Elec       q    Type
REMARK                         _______ _______ _______ _____ _____    ______ ____
ROOT
ATOM      1  O   UNL     1      35.854 -23.878 -13.717  0.00  0.00    -0.283 OA
ATOM      2  N   UNL     1      35.203 -24.994 -14.398  0.00  0.00    -0.187 NA
ATOM      3  C   UNL     1      37.626 -25.287 -12.899  0.00  0.00    +0.170 C 
ATOM      4  C   UNL     1      36.449 -24.379 -12.515  0.00  0.00    +0.195 C 
ATOM      5  C   UNL     1      37.167 -26.359 -13.896  0.00  0.00    +0.158 C 
ATOM      6  C   UNL     1      36.298 -25.752 -14.999  0.00  0.00    +0.128 C 
ATOM      7  H   UNL     1      34.565 -24.654 -15.116  0.00  0.00    +0.155 HD
ENDROOT
BRANCH   3   8
ATOM      8  O   UNL     1      38.141 -25.906 -11.725  0.00  0.00    -0.379 OA
ATOM      9  H   UNL     1      38.465 -26.794 -11.942  0.00  0.00    +0.211 HD
ENDBRANCH   3   8
BRANCH   5  10
ATOM     10  O   UNL     1      38.300 -26.969 -14.507  0.00  0.00    -0.380 OA
ATOM     11  H   UNL     1      38.033 -27.804 -14.925  0.00  0.00    +0.211 HD
ENDBRANCH   5  10
BRANCH   4  12
ATOM     12  C   UNL     1      36.902 -23.186 -11.682  0.00  0.00    +0.171 C 
BRANCH  12  13
ATOM     13  O   UNL     1      38.317 -23.137 -11.696  0.00  0.00    -0.379 OA
ATOM     14  H   UNL     1      38.666 -23.676 -10.969  0.00  0.00    +0.211 HD
ENDBRANCH  12  13
ENDBRANCH   4  12
TORSDOF 4
ENDMDL
