MODEL 1
REMARK VINA RESULT:      -9.4      0.000      0.000
REMARK  Name = 54677946
REMARK  4 active torsions:
REMARK  status: ('A' for Active; 'I' for Inactive)
REMARK    1  A    between atoms: C_5  and  C_16
REMARK    2  A    between atoms: C_7  and  O_25
REMARK    3  A    between atoms: N_15  and  C_17
REMARK    4  A    between atoms: N_15  and  C_23
REMARK                            x       y       z     vdW  Elec       q    Type
REMARK                         _______ _______ _______ _____ _____    ______ ____
ROOT
ATOM      1 CL   UNL     1      34.927  -8.509 -24.719  0.00  0.00    -0.082 Cl
ATOM      2  O   UNL     1      31.779 -13.845 -22.200  0.00  0.00    -0.267 OA
ATOM      3  N   UNL     1      31.624 -11.544 -21.970  0.00  0.00    -0.293 N 
ATOM      4  C   UNL     1      32.104 -10.249 -22.334  0.00  0.00    +0.066 A 
ATOM      5  C   UNL     1      33.307 -12.579 -23.469  0.00  0.00    +0.143 A 
ATOM      6  C   UNL     1      33.167 -10.143 -23.248  0.00  0.00    +0.060 A 
ATOM      7  C   UNL     1      33.767 -11.362 -23.814  0.00  0.00    +0.145 A 
ATOM      8  C   UNL     1      32.174 -12.714 -22.493  0.00  0.00    +0.268 A 
ATOM      9  C   UNL     1      31.541  -9.073 -21.802  0.00  0.00    +0.017 C 
ATOM     10  C   UNL     1      33.638  -8.865 -23.604  0.00  0.00    +0.062 C 
ATOM     11  C   UNL     1      30.520 -11.646 -21.018  0.00  0.00    +0.134 C 
ATOM     12  C   UNL     1      32.020  -7.816 -22.166  0.00  0.00    +0.002 C 
ATOM     13  C   UNL     1      33.069  -7.711 -23.068  0.00  0.00    +0.012 C 
ENDROOT
BRANCH   5  16
ATOM     14  O   UNL     1      33.801 -13.929 -25.283  0.00  0.00    -0.269 OA
ATOM     15  N   UNL     1      34.453 -14.730 -23.166  0.00  0.00    -0.255 N 
ATOM     16  C   UNL     1      33.874 -13.809 -24.059  0.00  0.00    +0.260 C 
BRANCH  15  17
ATOM     17  C   UNL     1      34.436 -16.145 -23.495  0.00  0.00    +0.054 C 
ATOM     18  C   UNL     1      34.214 -16.553 -24.810  0.00  0.00    +0.015 C 
ATOM     19  C   UNL     1      34.642 -17.095 -22.495  0.00  0.00    +0.015 C 
ATOM     20  C   UNL     1      34.196 -17.912 -25.126  0.00  0.00    +0.001 C 
ATOM     21  C   UNL     1      34.626 -18.454 -22.811  0.00  0.00    +0.001 C 
ATOM     22  C   UNL     1      34.403 -18.862 -24.126  0.00  0.00    +0.000 C 
ENDBRANCH  15  17
BRANCH  15  23
ATOM     23  C   UNL     1      35.075 -14.291 -21.906  0.00  0.00    +0.099 C 
ATOM     24  C   UNL     1      34.416 -14.941 -20.706  0.00  0.00    +0.024 C 
ENDBRANCH  15  23
ENDBRANCH   5  16
BRANCH   7  25
ATOM     25  O   UNL     1      34.830 -11.198 -24.677  0.00  0.00    -0.505 OA
ATOM     26  H   UNL     1      35.164 -10.340 -24.851  0.00  0.00    +0.292 HD
ENDBRANCH   7  25
TORSDOF 4
ENDMDL
MODEL 2
REMARK VINA RESULT:      -9.3      2.453      7.275
REMARK  Name = 54677946
REMARK  4 active torsions:
REMARK  status: ('A' for Active; 'I' for Inactive)
REMARK    1  A    between atoms: C_5  and  C_16
REMARK    2  A    between atoms: C_7  and  O_25
REMARK    3  A    between atoms: N_15  and  C_17
REMARK    4  A    between atoms: N_15  and  C_23
REMARK                            x       y       z     vdW  Elec       q    Type
REMARK                         _______ _______ _______ _____ _____    ______ ____
ROOT
ATOM      1 CL   UNL     1      34.938 -16.284 -21.053  0.00  0.00    -0.082 Cl
ATOM      2  O   UNL     1      32.724 -12.170 -25.838  0.00  0.00    -0.267 OA
ATOM      3  N   UNL     1      33.396 -14.385 -25.710  0.00  0.00    -0.293 N 
ATOM      4  C   UNL     1      33.880 -15.466 -24.912  0.00  0.00    +0.066 A 
ATOM      5  C   UNL     1      33.400 -12.919 -23.710  0.00  0.00    +0.143 A 
ATOM      6  C   UNL     1      34.115 -15.256 -23.543  0.00  0.00    +0.060 A 
ATOM      7  C   UNL     1      33.860 -13.932 -22.952  0.00  0.00    +0.145 A 
ATOM      8  C   UNL     1      33.144 -13.121 -25.175  0.00  0.00    +0.268 A 
ATOM      9  C   UNL     1      34.129 -16.738 -25.461  0.00  0.00    +0.017 C 
ATOM     10  C   UNL     1      34.593 -16.324 -22.759  0.00  0.00    +0.062 C 
ATOM     11  C   UNL     1      33.156 -14.611 -27.134  0.00  0.00    +0.134 C 
ATOM     12  C   UNL     1      34.602 -17.785 -24.670  0.00  0.00    +0.002 C 
ATOM     13  C   UNL     1      34.834 -17.577 -23.318  0.00  0.00    +0.012 C 
ENDROOT
BRANCH   5  16
ATOM     14  O   UNL     1      32.254 -11.556 -22.231  0.00  0.00    -0.269 OA
ATOM     15  N   UNL     1      33.824 -10.501 -23.634  0.00  0.00    -0.255 N 
ATOM     16  C   UNL     1      33.103 -11.596 -23.123  0.00  0.00    +0.260 C 
BRANCH  15  17
ATOM     17  C   UNL     1      33.211  -9.184 -23.634  0.00  0.00    +0.054 C 
ATOM     18  C   UNL     1      31.856  -9.045 -23.935  0.00  0.00    +0.015 C 
ATOM     19  C   UNL     1      33.977  -8.059 -23.331  0.00  0.00    +0.015 C 
ATOM     20  C   UNL     1      31.267  -7.781 -23.935  0.00  0.00    +0.001 C 
ATOM     21  C   UNL     1      33.388  -6.794 -23.331  0.00  0.00    +0.001 C 
ATOM     22  C   UNL     1      32.033  -6.655 -23.633  0.00  0.00    +0.000 C 
ENDBRANCH  15  17
BRANCH  15  23
ATOM     23  C   UNL     1      35.186 -10.661 -24.171  0.00  0.00    +0.099 C 
ATOM     24  C   UNL     1      35.274 -10.196 -25.610  0.00  0.00    +0.024 C 
ENDBRANCH  15  23
ENDBRANCH   5  16
BRANCH   7  25
ATOM     25  O   UNL     1      34.143 -13.775 -21.612  0.00  0.00    -0.505 OA
ATOM     26  H   UNL     1      34.991 -14.000 -21.283  0.00  0.00    +0.292 HD
ENDBRANCH   7  25
TORSDOF 4
ENDMDL
MODEL 3
REMARK VINA RESULT:      -9.1      4.918      7.335
REMARK  Name = 54677946
REMARK  4 active torsions:
REMARK  status: ('A' for Active; 'I' for Inactive)
REMARK    1  A    between atoms: C_5  and  C_16
REMARK    2  A    between atoms: C_7  and  O_25
REMARK    3  A    between atoms: N_15  and  C_17
REMARK    4  A    between atoms: N_15  and  C_23
REMARK                            x       y       z     vdW  Elec       q    Type
REMARK                         _______ _______ _______ _____ _____    ______ ____
ROOT
ATOM      1 CL   UNL     1      33.572  -5.170 -27.517  0.00  0.00    -0.082 Cl
ATOM      2  O   UNL     1      30.328  -5.554 -21.681  0.00  0.00    -0.267 OA
ATOM      3  N   UNL     1      30.948  -3.869 -23.147  0.00  0.00    -0.293 N 
ATOM      4  C   UNL     1      31.589  -3.491 -24.366  0.00  0.00    +0.066 A 
ATOM      5  C   UNL     1      31.503  -6.243 -23.602  0.00  0.00    +0.143 A 
ATOM      6  C   UNL     1      32.171  -4.483 -25.172  0.00  0.00    +0.060 A 
ATOM      7  C   UNL     1      32.113  -5.893 -24.750  0.00  0.00    +0.145 A 
ATOM      8  C   UNL     1      30.877  -5.197 -22.726  0.00  0.00    +0.268 A 
ATOM      9  C   UNL     1      31.653  -2.148 -24.783  0.00  0.00    +0.017 C 
ATOM     10  C   UNL     1      32.803  -4.107 -26.372  0.00  0.00    +0.062 C 
ATOM     11  C   UNL     1      30.346  -2.830 -22.313  0.00  0.00    +0.134 C 
ATOM     12  C   UNL     1      32.282  -1.792 -25.975  0.00  0.00    +0.002 C 
ATOM     13  C   UNL     1      32.858  -2.773 -26.771  0.00  0.00    +0.012 C 
ENDROOT
BRANCH   5  16
ATOM     14  O   UNL     1      30.464  -8.311 -23.644  0.00  0.00    -0.269 OA
ATOM     15  N   UNL     1      32.397  -8.129 -22.310  0.00  0.00    -0.255 N 
ATOM     16  C   UNL     1      31.404  -7.657 -23.187  0.00  0.00    +0.260 C 
BRANCH  15  17
ATOM     17  C   UNL     1      32.071  -9.193 -21.375  0.00  0.00    +0.054 C 
ATOM     18  C   UNL     1      31.974  -8.918 -20.011  0.00  0.00    +0.015 C 
ATOM     19  C   UNL     1      31.853 -10.489 -21.841  0.00  0.00    +0.015 C 
ATOM     20  C   UNL     1      31.662  -9.939 -19.113  0.00  0.00    +0.001 C 
ATOM     21  C   UNL     1      31.540 -11.511 -20.944  0.00  0.00    +0.001 C 
ATOM     22  C   UNL     1      31.444 -11.235 -19.580  0.00  0.00    +0.000 C 
ENDBRANCH  15  17
BRANCH  15  23
ATOM     23  C   UNL     1      33.758  -7.570 -22.317  0.00  0.00    +0.099 C 
ATOM     24  C   UNL     1      34.615  -8.209 -23.391  0.00  0.00    +0.024 C 
ENDBRANCH  15  23
ENDBRANCH   5  16
BRANCH   7  25
ATOM     25  O   UNL     1      32.733  -6.819 -25.563  0.00  0.00    -0.505 OA
ATOM     26  H   UNL     1      32.868  -7.694 -25.258  0.00  0.00    +0.292 HD
ENDBRANCH   7  25
TORSDOF 4
ENDMDL
MODEL 4
REMARK VINA RESULT:      -8.6      3.212      7.970
REMARK  Name = 54677946
REMARK  4 active torsions:
REMARK  status: ('A' for Active; 'I' for Inactive)
REMARK    1  A    between atoms: C_5  and  C_16
REMARK    2  A    between atoms: C_7  and  O_25
REMARK    3  A    between atoms: N_15  and  C_17
REMARK    4  A    between atoms: N_15  and  C_23
REMARK                            x       y       z     vdW  Elec       q    Type
REMARK                         _______ _______ _______ _____ _____    ______ ____
ROOT
ATOM      1 CL   UNL     1      31.244 -11.488 -19.005  0.00  0.00    -0.082 Cl
ATOM      2  O   UNL     1      32.959  -9.829 -25.253  0.00  0.00    -0.267 OA
ATOM      3  N   UNL     1      33.128 -11.713 -23.912  0.00  0.00    -0.293 N 
ATOM      4  C   UNL     1      32.882 -12.334 -22.650  0.00  0.00    +0.066 A 
ATOM      5  C   UNL     1      32.091  -9.622 -23.074  0.00  0.00    +0.143 A 
ATOM      6  C   UNL     1      32.254 -11.596 -21.633  0.00  0.00    +0.060 A 
ATOM      7  C   UNL     1      31.859 -10.200 -21.881  0.00  0.00    +0.145 A 
ATOM      8  C   UNL     1      32.762 -10.392 -24.174  0.00  0.00    +0.268 A 
ATOM      9  C   UNL     1      33.254 -13.668 -22.397  0.00  0.00    +0.017 C 
ATOM     10  C   UNL     1      32.014 -12.212 -20.389  0.00  0.00    +0.062 C 
ATOM     11  C   UNL     1      33.784 -12.486 -24.965  0.00  0.00    +0.134 C 
ATOM     12  C   UNL     1      33.008 -14.263 -21.160  0.00  0.00    +0.002 C 
ATOM     13  C   UNL     1      32.388 -13.534 -20.155  0.00  0.00    +0.012 C 
ENDROOT
BRANCH   5  16
ATOM     14  O   UNL     1      30.461  -8.043 -23.532  0.00  0.00    -0.269 OA
ATOM     15  N   UNL     1      32.675  -7.255 -23.370  0.00  0.00    -0.255 N 
ATOM     16  C   UNL     1      31.665  -8.234 -23.349  0.00  0.00    +0.260 C 
BRANCH  15  17
ATOM     17  C   UNL     1      32.514  -6.086 -24.217  0.00  0.00    +0.054 C 
ATOM     18  C   UNL     1      31.704  -5.029 -23.801  0.00  0.00    +0.015 C 
ATOM     19  C   UNL     1      33.170  -6.019 -25.446  0.00  0.00    +0.015 C 
ATOM     20  C   UNL     1      31.548  -3.907 -24.615  0.00  0.00    +0.001 C 
ATOM     21  C   UNL     1      33.015  -4.896 -26.260  0.00  0.00    +0.001 C 
ATOM     22  C   UNL     1      32.204  -3.840 -25.844  0.00  0.00    +0.000 C 
ENDBRANCH  15  17
BRANCH  15  23
ATOM     23  C   UNL     1      33.893  -7.390 -22.554  0.00  0.00    +0.099 C 
ATOM     24  C   UNL     1      35.119  -7.607 -23.418  0.00  0.00    +0.024 C 
ENDBRANCH  15  23
ENDBRANCH   5  16
BRANCH   7  25
ATOM     25  O   UNL     1      31.280  -9.515 -20.834  0.00  0.00    -0.505 OA
ATOM     26  H   UNL     1      31.606  -9.626 -19.963  0.00  0.00    +0.292 HD
ENDBRANCH   7  25
TORSDOF 4
ENDMDL
MODEL 5
REMARK VINA RESULT:      -8.6      2.755      7.308
REMARK  Name = 54677946
REMARK  4 active torsions:
REMARK  status: ('A' for Active; 'I' for Inactive)
REMARK    1  A    between atoms: C_5  and  C_16
REMARK    2  A    between atoms: C_7  and  O_25
REMARK    3  A    between atoms: N_15  and  C_17
REMARK    4  A    between atoms: N_15  and  C_23
REMARK                            x       y       z     vdW  Elec       q    Type
REMARK                         _______ _______ _______ _____ _____    ______ ____
ROOT
ATOM      1 CL   UNL     1      33.546 -13.462 -24.933  0.00  0.00    -0.082 Cl
ATOM      2  O   UNL     1      31.161  -9.094 -20.466  0.00  0.00    -0.267 OA
ATOM      3  N   UNL     1      31.758 -11.334 -20.467  0.00  0.00    -0.293 N 
ATOM      4  C   UNL     1      32.256 -12.461 -21.190  0.00  0.00    +0.066 A 
ATOM      5  C   UNL     1      31.943  -9.949 -22.516  0.00  0.00    +0.143 A 
ATOM      6  C   UNL     1      32.583 -12.314 -22.548  0.00  0.00    +0.060 A 
ATOM      7  C   UNL     1      32.409 -11.008 -23.205  0.00  0.00    +0.145 A 
ATOM      8  C   UNL     1      31.586 -10.085 -21.065  0.00  0.00    +0.268 A 
ATOM      9  C   UNL     1      32.427 -13.716 -20.577  0.00  0.00    +0.017 C 
ATOM     10  C   UNL     1      33.072 -13.427 -23.258  0.00  0.00    +0.062 C 
ATOM     11  C   UNL     1      31.418 -11.494 -19.055  0.00  0.00    +0.134 C 
ATOM     12  C   UNL     1      32.914 -14.808 -21.295  0.00  0.00    +0.002 C 
ATOM     13  C   UNL     1      33.237 -14.663 -22.637  0.00  0.00    +0.012 C 
ENDROOT
BRANCH   5  16
ATOM     14  O   UNL     1      30.729  -8.381 -23.709  0.00  0.00    -0.269 OA
ATOM     15  N   UNL     1      32.904  -7.755 -23.057  0.00  0.00    -0.255 N 
ATOM     16  C   UNL     1      31.801  -8.623 -23.152  0.00  0.00    +0.260 C 
BRANCH  15  17
ATOM     17  C   UNL     1      33.137  -6.785 -24.113  0.00  0.00    +0.054 C 
ATOM     18  C   UNL     1      32.191  -5.793 -24.371  0.00  0.00    +0.015 C 
ATOM     19  C   UNL     1      34.308  -6.844 -24.868  0.00  0.00    +0.015 C 
ATOM     20  C   UNL     1      32.415  -4.862 -25.386  0.00  0.00    +0.001 C 
ATOM     21  C   UNL     1      34.533  -5.913 -25.882  0.00  0.00    +0.001 C 
ATOM     22  C   UNL     1      33.586  -4.922 -26.141  0.00  0.00    +0.000 C 
ENDBRANCH  15  17
BRANCH  15  23
ATOM     23  C   UNL     1      33.827  -7.808 -21.911  0.00  0.00    +0.099 C 
ATOM     24  C   UNL     1      33.328  -6.962 -20.757  0.00  0.00    +0.024 C 
ENDBRANCH  15  23
ENDBRANCH   5  16
BRANCH   7  25
ATOM     25  O   UNL     1      32.713 -10.933 -24.548  0.00  0.00    -0.505 OA
ATOM     26  H   UNL     1      32.136 -10.484 -25.134  0.00  0.00    +0.292 HD
ENDBRANCH   7  25
TORSDOF 4
ENDMDL
MODEL 6
REMARK VINA RESULT:      -8.5      2.725      7.840
REMARK  Name = 54677946
REMARK  4 active torsions:
REMARK  status: ('A' for Active; 'I' for Inactive)
REMARK    1  A    between atoms: C_5  and  C_16
REMARK    2  A    between atoms: C_7  and  O_25
REMARK    3  A    between atoms: N_15  and  C_17
REMARK    4  A    between atoms: N_15  and  C_23
REMARK                            x       y       z     vdW  Elec       q    Type
REMARK                         _______ _______ _______ _____ _____    ______ ____
ROOT
ATOM      1 CL   UNL     1      32.255 -14.080 -20.097  0.00  0.00    -0.082 Cl
ATOM      2  O   UNL     1      33.064  -9.833 -25.199  0.00  0.00    -0.267 OA
ATOM      3  N   UNL     1      33.656 -12.025 -24.732  0.00  0.00    -0.293 N 
ATOM      4  C   UNL     1      33.636 -13.123 -23.819  0.00  0.00    +0.066 A 
ATOM      5  C   UNL     1      32.394 -10.654 -23.096  0.00  0.00    +0.143 A 
ATOM      6  C   UNL     1      33.005 -12.969 -22.574  0.00  0.00    +0.060 A 
ATOM      7  C   UNL     1      32.374 -11.683 -22.229  0.00  0.00    +0.145 A 
ATOM      8  C   UNL     1      33.065 -10.797 -24.431  0.00  0.00    +0.268 A 
ATOM      9  C   UNL     1      34.234 -14.358 -24.134  0.00  0.00    +0.017 C 
ATOM     10  C   UNL     1      32.988 -14.053 -21.676  0.00  0.00    +0.062 C 
ATOM     11  C   UNL     1      34.317 -12.192 -26.025  0.00  0.00    +0.134 C 
ATOM     12  C   UNL     1      34.208 -15.422 -23.233  0.00  0.00    +0.002 C 
ATOM     13  C   UNL     1      33.584 -15.269 -22.003  0.00  0.00    +0.012 C 
ENDROOT
BRANCH   5  16
ATOM     14  O   UNL     1      30.517  -9.404 -22.572  0.00  0.00    -0.269 OA
ATOM     15  N   UNL     1      32.553  -8.230 -22.735  0.00  0.00    -0.255 N 
ATOM     16  C   UNL     1      31.732  -9.371 -22.779  0.00  0.00    +0.260 C 
BRANCH  15  17
ATOM     17  C   UNL     1      31.989  -6.936 -23.077  0.00  0.00    +0.054 C 
ATOM     18  C   UNL     1      31.748  -5.994 -22.078  0.00  0.00    +0.015 C 
ATOM     19  C   UNL     1      31.689  -6.635 -24.405  0.00  0.00    +0.015 C 
ATOM     20  C   UNL     1      31.205  -4.751 -22.405  0.00  0.00    +0.001 C 
ATOM     21  C   UNL     1      31.147  -5.392 -24.734  0.00  0.00    +0.001 C 
ATOM     22  C   UNL     1      30.905  -4.450 -23.734  0.00  0.00    +0.000 C 
ENDBRANCH  15  17
BRANCH  15  23
ATOM     23  C   UNL     1      33.972  -8.318 -22.352  0.00  0.00    +0.099 C 
ATOM     24  C   UNL     1      34.856  -7.561 -23.321  0.00  0.00    +0.024 C 
ENDBRANCH  15  23
ENDBRANCH   5  16
BRANCH   7  25
ATOM     25  O   UNL     1      31.801 -11.579 -20.979  0.00  0.00    -0.505 OA
ATOM     26  H   UNL     1      31.657 -12.349 -20.465  0.00  0.00    +0.292 HD
ENDBRANCH   7  25
TORSDOF 4
ENDMDL
MODEL 7
REMARK VINA RESULT:      -8.3      3.132      8.117
REMARK  Name = 54677946
REMARK  4 active torsions:
REMARK  status: ('A' for Active; 'I' for Inactive)
REMARK    1  A    between atoms: C_5  and  C_16
REMARK    2  A    between atoms: C_7  and  O_25
REMARK    3  A    between atoms: N_15  and  C_17
REMARK    4  A    between atoms: N_15  and  C_23
REMARK                            x       y       z     vdW  Elec       q    Type
REMARK                         _______ _______ _______ _____ _____    ______ ____
ROOT
ATOM      1 CL   UNL     1      33.689 -12.769 -24.851  0.00  0.00    -0.082 Cl
ATOM      2  O   UNL     1      31.893  -7.831 -20.714  0.00  0.00    -0.267 OA
ATOM      3  N   UNL     1      31.892 -10.149 -20.658  0.00  0.00    -0.293 N 
ATOM      4  C   UNL     1      32.182 -11.382 -21.318  0.00  0.00    +0.066 A 
ATOM      5  C   UNL     1      32.712  -8.906 -22.642  0.00  0.00    +0.143 A 
ATOM      6  C   UNL     1      32.724 -11.356 -22.613  0.00  0.00    +0.060 A 
ATOM      7  C   UNL     1      32.985 -10.065 -23.271  0.00  0.00    +0.145 A 
ATOM      8  C   UNL     1      32.131  -8.912 -21.258  0.00  0.00    +0.268 A 
ATOM      9  C   UNL     1      31.939 -12.625 -20.703  0.00  0.00    +0.017 C 
ATOM     10  C   UNL     1      33.009 -12.574 -23.260  0.00  0.00    +0.062 C 
ATOM     11  C   UNL     1      31.326 -10.183 -19.311  0.00  0.00    +0.134 C 
ATOM     12  C   UNL     1      32.227 -13.822 -21.358  0.00  0.00    +0.002 C 
ATOM     13  C   UNL     1      32.762 -13.796 -22.638  0.00  0.00    +0.012 C 
ENDROOT
BRANCH   5  16
ATOM     14  O   UNL     1      34.147  -7.161 -23.144  0.00  0.00    -0.269 OA
ATOM     15  N   UNL     1      31.950  -6.990 -23.974  0.00  0.00    -0.255 N 
ATOM     16  C   UNL     1      33.004  -7.603 -23.274  0.00  0.00    +0.260 C 
BRANCH  15  17
ATOM     17  C   UNL     1      31.899  -5.540 -24.055  0.00  0.00    +0.054 C 
ATOM     18  C   UNL     1      32.298  -4.891 -25.223  0.00  0.00    +0.015 C 
ATOM     19  C   UNL     1      31.450  -4.797 -22.963  0.00  0.00    +0.015 C 
ATOM     20  C   UNL     1      32.250  -3.499 -25.300  0.00  0.00    +0.001 C 
ATOM     21  C   UNL     1      31.401  -3.405 -23.040  0.00  0.00    +0.001 C 
ATOM     22  C   UNL     1      31.801  -2.756 -24.208  0.00  0.00    +0.000 C 
ENDBRANCH  15  17
BRANCH  15  23
ATOM     23  C   UNL     1      30.896  -7.784 -24.627  0.00  0.00    +0.099 C 
ATOM     24  C   UNL     1      29.773  -8.114 -23.665  0.00  0.00    +0.024 C 
ENDBRANCH  15  23
ENDBRANCH   5  16
BRANCH   7  25
ATOM     25  O   UNL     1      33.483 -10.102 -24.556  0.00  0.00    -0.505 OA
ATOM     26  H   UNL     1      33.347 -10.860 -25.089  0.00  0.00    +0.292 HD
ENDBRANCH   7  25
TORSDOF 4
ENDMDL
MODEL 8
REMARK VINA RESULT:      -8.3      9.704     13.395
REMARK  Name = 54677946
REMARK  4 active torsions:
REMARK  status: ('A' for Active; 'I' for Inactive)
REMARK    1  A    between atoms: C_5  and  C_16
REMARK    2  A    between atoms: C_7  and  O_25
REMARK    3  A    between atoms: N_15  and  C_17
REMARK    4  A    between atoms: N_15  and  C_23
REMARK                            x       y       z     vdW  Elec       q    Type
REMARK                         _______ _______ _______ _____ _____    ______ ____
ROOT
ATOM      1 CL   UNL     1      39.478 -24.616 -14.458  0.00  0.00    -0.082 Cl
ATOM      2  O   UNL     1      33.384 -22.470 -16.188  0.00  0.00    -0.267 OA
ATOM      3  N   UNL     1      34.307 -23.644 -14.415  0.00  0.00    -0.293 N 
ATOM      4  C   UNL     1      35.466 -24.212 -13.803  0.00  0.00    +0.066 A 
ATOM      5  C   UNL     1      35.704 -22.856 -16.307  0.00  0.00    +0.143 A 
ATOM      6  C   UNL     1      36.709 -24.095 -14.447  0.00  0.00    +0.060 A 
ATOM      7  C   UNL     1      36.800 -23.392 -15.738  0.00  0.00    +0.145 A 
ATOM      8  C   UNL     1      34.366 -22.972 -15.636  0.00  0.00    +0.268 A 
ATOM      9  C   UNL     1      35.397 -24.886 -12.569  0.00  0.00    +0.017 C 
ATOM     10  C   UNL     1      37.850 -24.656 -13.841  0.00  0.00    +0.062 C 
ATOM     11  C   UNL     1      33.017 -23.772 -13.740  0.00  0.00    +0.134 C 
ATOM     12  C   UNL     1      36.536 -25.436 -11.983  0.00  0.00    +0.002 C 
ATOM     13  C   UNL     1      37.764 -25.320 -12.620  0.00  0.00    +0.012 C 
ENDROOT
BRANCH   5  16
ATOM     14  O   UNL     1      36.717 -21.316 -17.707  0.00  0.00    -0.269 OA
ATOM     15  N   UNL     1      34.798 -22.397 -18.542  0.00  0.00    -0.255 N 
ATOM     16  C   UNL     1      35.787 -22.115 -17.583  0.00  0.00    +0.260 C 
BRANCH  15  17
ATOM     17  C   UNL     1      34.395 -21.356 -19.473  0.00  0.00    +0.054 C 
ATOM     18  C   UNL     1      35.347 -20.736 -20.282  0.00  0.00    +0.015 C 
ATOM     19  C   UNL     1      33.055 -20.978 -19.559  0.00  0.00    +0.015 C 
ATOM     20  C   UNL     1      34.961 -19.737 -21.175  0.00  0.00    +0.001 C 
ATOM     21  C   UNL     1      32.668 -19.979 -20.453  0.00  0.00    +0.001 C 
ATOM     22  C   UNL     1      33.621 -19.358 -21.260  0.00  0.00    +0.000 C 
ENDBRANCH  15  17
BRANCH  15  23
ATOM     23  C   UNL     1      34.161 -23.721 -18.624  0.00  0.00    +0.099 C 
ATOM     24  C   UNL     1      34.139 -24.239 -20.048  0.00  0.00    +0.024 C 
ENDBRANCH  15  23
ENDBRANCH   5  16
BRANCH   7  25
ATOM     25  O   UNL     1      38.039 -23.340 -16.340  0.00  0.00    -0.505 OA
ATOM     26  H   UNL     1      38.104 -23.264 -17.272  0.00  0.00    +0.292 HD
ENDBRANCH   7  25
TORSDOF 4
ENDMDL
MODEL 9
REMARK VINA RESULT:      -8.1      3.620      5.873
REMARK  Name = 54677946
REMARK  4 active torsions:
REMARK  status: ('A' for Active; 'I' for Inactive)
REMARK    1  A    between atoms: C_5  and  C_16
REMARK    2  A    between atoms: C_7  and  O_25
REMARK    3  A    between atoms: N_15  and  C_17
REMARK    4  A    between atoms: N_15  and  C_23
REMARK                            x       y       z     vdW  Elec       q    Type
REMARK                         _______ _______ _______ _____ _____    ______ ____
ROOT
ATOM      1 CL   UNL     1      32.337 -14.480 -19.910  0.00  0.00    -0.082 Cl
ATOM      2  O   UNL     1      34.924 -18.171 -24.852  0.00  0.00    -0.267 OA
ATOM      3  N   UNL     1      34.300 -15.957 -24.562  0.00  0.00    -0.293 N 
ATOM      4  C   UNL     1      33.765 -14.945 -23.709  0.00  0.00    +0.066 A 
ATOM      5  C   UNL     1      34.053 -17.616 -22.736  0.00  0.00    +0.143 A 
ATOM      6  C   UNL     1      33.385 -15.282 -22.399  0.00  0.00    +0.060 A 
ATOM      7  C   UNL     1      33.544 -16.668 -21.927  0.00  0.00    +0.145 A 
ATOM      8  C   UNL     1      34.463 -17.277 -24.139  0.00  0.00    +0.268 A 
ATOM      9  C   UNL     1      33.607 -13.616 -24.145  0.00  0.00    +0.017 C 
ATOM     10  C   UNL     1      32.857 -14.282 -21.560  0.00  0.00    +0.062 C 
ATOM     11  C   UNL     1      34.692 -15.599 -25.924  0.00  0.00    +0.134 C 
ATOM     12  C   UNL     1      33.082 -12.637 -23.301  0.00  0.00    +0.002 C 
ATOM     13  C   UNL     1      32.707 -12.971 -22.007  0.00  0.00    +0.012 C 
ENDROOT
BRANCH   5  16
ATOM     14  O   UNL     1      33.565 -19.878 -22.788  0.00  0.00    -0.269 OA
ATOM     15  N   UNL     1      35.218 -19.192 -21.256  0.00  0.00    -0.255 N 
ATOM     16  C   UNL     1      34.253 -19.001 -22.262  0.00  0.00    +0.260 C 
BRANCH  15  17
ATOM     17  C   UNL     1      35.051 -20.282 -20.311  0.00  0.00    +0.054 C 
ATOM     18  C   UNL     1      33.778 -20.779 -20.035  0.00  0.00    +0.015 C 
ATOM     19  C   UNL     1      36.166 -20.833 -19.679  0.00  0.00    +0.015 C 
ATOM     20  C   UNL     1      33.618 -21.826 -19.127  0.00  0.00    +0.001 C 
ATOM     21  C   UNL     1      36.007 -21.880 -18.771  0.00  0.00    +0.001 C 
ATOM     22  C   UNL     1      34.733 -22.376 -18.495  0.00  0.00    +0.000 C 
ENDBRANCH  15  17
BRANCH  15  23
ATOM     23  C   UNL     1      36.391 -18.311 -21.140  0.00  0.00    +0.099 C 
ATOM     24  C   UNL     1      37.459 -18.673 -22.151  0.00  0.00    +0.024 C 
ENDBRANCH  15  23
ENDBRANCH   5  16
BRANCH   7  25
ATOM     25  O   UNL     1      33.120 -16.948 -20.644  0.00  0.00    -0.505 OA
ATOM     26  H   UNL     1      33.734 -17.247 -20.003  0.00  0.00    +0.292 HD
ENDBRANCH   7  25
TORSDOF 4
ENDMDL
