MODEL 1
REMARK VINA RESULT:     -10.4      0.000      0.000
REMARK  Name = 3537
REMARK  3 active torsions:
REMARK  status: ('A' for Active; 'I' for Inactive)
REMARK    1  A    between atoms: C_5  and  S_17
REMARK    2  A    between atoms: S_17  and  C_21
REMARK    3  A    between atoms: C_18  and  C_24
REMARK                            x       y       z     vdW  Elec       q    Type
REMARK                         _______ _______ _______ _____ _____    ______ ____
ROOT
ATOM      1  N   UNL     1      34.877 -17.071 -20.589  0.00  0.00    -0.332 NA
ATOM      2  N   UNL     1      35.697 -17.492 -22.815  0.00  0.00    -0.313 NA
ATOM      3  N   UNL     1      35.076 -16.206 -24.619  0.00  0.00    -0.332 N 
ATOM      4  N   UNL     1      36.364 -18.835 -21.016  0.00  0.00    -0.283 N 
ATOM      5  C   UNL     1      33.408 -14.579 -22.862  0.00  0.00    +0.035 C 
ATOM      6  C   UNL     1      34.166 -15.669 -22.399  0.00  0.00    +0.077 C 
ATOM      7  C   UNL     1      34.156 -16.031 -21.043  0.00  0.00    +0.131 C 
ATOM      8  C   UNL     1      32.632 -13.843 -21.973  0.00  0.00    +0.003 C 
ATOM      9  C   UNL     1      34.962 -16.445 -23.236  0.00  0.00    +0.193 C 
ATOM     10  C   UNL     1      33.370 -15.277 -20.174  0.00  0.00    +0.086 C 
ATOM     11  C   UNL     1      32.613 -14.193 -20.627  0.00  0.00    -0.018 C 
ATOM     12  C   UNL     1      35.609 -17.745 -21.499  0.00  0.00    +0.197 C 
ATOM     13  H   UNL     1      35.652 -16.781 -25.173  0.00  0.00    +0.145 HD
ATOM     14  H   UNL     1      34.580 -15.463 -25.032  0.00  0.00    +0.145 HD
ATOM     15  H   UNL     1      36.337 -19.067 -20.059  0.00  0.00    +0.156 HD
ATOM     16  H   UNL     1      36.917 -19.364 -21.635  0.00  0.00    +0.156 HD
ENDROOT
BRANCH   5  17
ATOM     17  S   UNL     1      33.279 -13.949 -24.547  0.00  0.00    -0.087 S 
BRANCH  17  21
ATOM     18  C   UNL     1      33.461  -9.504 -23.493  0.00  0.00    -0.023 C 
ATOM     19  C   UNL     1      34.434 -10.065 -24.321  0.00  0.00    -0.004 C 
ATOM     20  C   UNL     1      32.433 -10.299 -22.987  0.00  0.00    -0.004 C 
ATOM     21  C   UNL     1      33.350 -12.216 -24.136  0.00  0.00    +0.029 C 
ATOM     22  C   UNL     1      34.379 -11.421 -24.643  0.00  0.00    +0.006 C 
ATOM     23  C   UNL     1      32.377 -11.656 -23.309  0.00  0.00    +0.006 C 
BRANCH  18  24
ATOM     24  C   UNL     1      33.521  -8.054 -23.149  0.00  0.00    +0.019 C 
ATOM     25  C   UNL     1      34.933  -7.459 -23.446  0.00  0.00    +0.004 C 
ATOM     26  C   UNL     1      33.221  -7.819 -21.637  0.00  0.00    +0.004 C 
ATOM     27  C   UNL     1      32.513  -7.140 -23.921  0.00  0.00    +0.004 C 
ENDBRANCH  18  24
ENDBRANCH  17  21
ENDBRANCH   5  17
TORSDOF 3
ENDMDL
MODEL 2
REMARK VINA RESULT:     -10.2      4.170      8.941
REMARK  Name = 3537
REMARK  3 active torsions:
REMARK  status: ('A' for Active; 'I' for Inactive)
REMARK    1  A    between atoms: C_5  and  S_17
REMARK    2  A    between atoms: S_17  and  C_21
REMARK    3  A    between atoms: C_18  and  C_24
REMARK                            x       y       z     vdW  Elec       q    Type
REMARK                         _______ _______ _______ _____ _____    ______ ____
ROOT
ATOM      1  N   UNL     1      32.774 -14.343 -23.537  0.00  0.00    -0.332 NA
ATOM      2  N   UNL     1      33.759 -15.533 -25.387  0.00  0.00    -0.313 NA
ATOM      3  N   UNL     1      35.300 -17.216 -25.088  0.00  0.00    -0.332 N 
ATOM      4  N   UNL     1      32.195 -13.828 -25.752  0.00  0.00    -0.283 N 
ATOM      5  C   UNL     1      35.113 -16.849 -22.200  0.00  0.00    +0.035 C 
ATOM      6  C   UNL     1      34.371 -16.081 -23.114  0.00  0.00    +0.077 C 
ATOM      7  C   UNL     1      33.488 -15.083 -22.672  0.00  0.00    +0.131 C 
ATOM      8  C   UNL     1      34.978 -16.625 -20.833  0.00  0.00    +0.003 C 
ATOM      9  C   UNL     1      34.459 -16.255 -24.492  0.00  0.00    +0.193 C 
ATOM     10  C   UNL     1      33.374 -14.880 -21.298  0.00  0.00    +0.086 C 
ATOM     11  C   UNL     1      34.108 -15.638 -20.382  0.00  0.00    -0.018 C 
ATOM     12  C   UNL     1      32.948 -14.608 -24.848  0.00  0.00    +0.197 C 
ATOM     13  H   UNL     1      35.329 -17.304 -26.069  0.00  0.00    +0.145 HD
ATOM     14  H   UNL     1      35.856 -17.799 -24.524  0.00  0.00    +0.145 HD
ATOM     15  H   UNL     1      31.584 -13.134 -25.413  0.00  0.00    +0.156 HD
ATOM     16  H   UNL     1      32.281 -13.976 -26.721  0.00  0.00    +0.156 HD
ENDROOT
BRANCH   5  17
ATOM     17  S   UNL     1      36.291 -18.168 -22.551  0.00  0.00    -0.087 S 
BRANCH  17  21
ATOM     18  C   UNL     1      34.533 -21.263 -19.682  0.00  0.00    -0.023 C 
ATOM     19  C   UNL     1      33.693 -20.552 -20.541  0.00  0.00    -0.004 C 
ATOM     20  C   UNL     1      35.908 -21.030 -19.699  0.00  0.00    -0.004 C 
ATOM     21  C   UNL     1      35.605 -19.375 -21.432  0.00  0.00    +0.029 C 
ATOM     22  C   UNL     1      34.230 -19.608 -21.416  0.00  0.00    +0.006 C 
ATOM     23  C   UNL     1      36.444 -20.085 -20.575  0.00  0.00    +0.006 C 
BRANCH  18  24
ATOM     24  C   UNL     1      33.959 -22.273 -18.746  0.00  0.00    +0.019 C 
ATOM     25  C   UNL     1      34.812 -22.386 -17.444  0.00  0.00    +0.004 C 
ATOM     26  C   UNL     1      33.911 -23.687 -19.401  0.00  0.00    +0.004 C 
ATOM     27  C   UNL     1      32.499 -21.987 -18.264  0.00  0.00    +0.004 C 
ENDBRANCH  18  24
ENDBRANCH  17  21
ENDBRANCH   5  17
TORSDOF 3
ENDMDL
MODEL 3
REMARK VINA RESULT:     -10.1      7.452     10.601
REMARK  Name = 3537
REMARK  3 active torsions:
REMARK  status: ('A' for Active; 'I' for Inactive)
REMARK    1  A    between atoms: C_5  and  S_17
REMARK    2  A    between atoms: S_17  and  C_21
REMARK    3  A    between atoms: C_18  and  C_24
REMARK                            x       y       z     vdW  Elec       q    Type
REMARK                         _______ _______ _______ _____ _____    ______ ____
ROOT
ATOM      1  N   UNL     1      36.296 -23.299 -13.596  0.00  0.00    -0.332 NA
ATOM      2  N   UNL     1      34.024 -24.102 -13.591  0.00  0.00    -0.313 NA
ATOM      3  N   UNL     1      32.682 -24.009 -15.457  0.00  0.00    -0.332 N 
ATOM      4  N   UNL     1      35.345 -24.224 -11.660  0.00  0.00    -0.283 N 
ATOM      5  C   UNL     1      34.870 -22.784 -16.948  0.00  0.00    +0.035 C 
ATOM      6  C   UNL     1      34.983 -23.154 -15.597  0.00  0.00    +0.077 C 
ATOM      7  C   UNL     1      36.178 -22.949 -14.888  0.00  0.00    +0.131 C 
ATOM      8  C   UNL     1      35.952 -22.203 -17.602  0.00  0.00    +0.003 C 
ATOM      9  C   UNL     1      33.940 -23.739 -14.884  0.00  0.00    +0.193 C 
ATOM     10  C   UNL     1      37.244 -22.365 -15.568  0.00  0.00    +0.086 C 
ATOM     11  C   UNL     1      37.140 -21.993 -16.911  0.00  0.00    -0.018 C 
ATOM     12  C   UNL     1      35.214 -23.858 -13.017  0.00  0.00    +0.197 C 
ATOM     13  H   UNL     1      31.973 -24.425 -14.915  0.00  0.00    +0.145 HD
ATOM     14  H   UNL     1      32.512 -23.783 -16.400  0.00  0.00    +0.145 HD
ATOM     15  H   UNL     1      36.195 -24.067 -11.188  0.00  0.00    +0.156 HD
ATOM     16  H   UNL     1      34.588 -24.635 -11.185  0.00  0.00    +0.156 HD
ENDROOT
BRANCH   5  17
ATOM     17  S   UNL     1      33.442 -22.957 -18.034  0.00  0.00    -0.087 S 
BRANCH  17  21
ATOM     18  C   UNL     1      34.653 -19.751 -21.061  0.00  0.00    -0.023 C 
ATOM     19  C   UNL     1      35.593 -20.684 -20.618  0.00  0.00    -0.004 C 
ATOM     20  C   UNL     1      33.345 -19.798 -20.580  0.00  0.00    -0.004 C 
ATOM     21  C   UNL     1      33.914 -21.707 -19.214  0.00  0.00    +0.029 C 
ATOM     22  C   UNL     1      35.223 -21.661 -19.695  0.00  0.00    +0.006 C 
ATOM     23  C   UNL     1      32.975 -20.776 -19.656  0.00  0.00    +0.006 C 
BRANCH  18  24
ATOM     24  C   UNL     1      35.048 -18.706 -22.048  0.00  0.00    +0.019 C 
ATOM     25  C   UNL     1      36.591 -18.467 -22.033  0.00  0.00    +0.004 C 
ATOM     26  C   UNL     1      34.359 -17.342 -21.733  0.00  0.00    +0.004 C 
ATOM     27  C   UNL     1      34.690 -19.020 -23.538  0.00  0.00    +0.004 C 
ENDBRANCH  18  24
ENDBRANCH  17  21
ENDBRANCH   5  17
TORSDOF 3
ENDMDL
MODEL 4
REMARK VINA RESULT:      -9.9      1.188      1.889
REMARK  Name = 3537
REMARK  3 active torsions:
REMARK  status: ('A' for Active; 'I' for Inactive)
REMARK    1  A    between atoms: C_5  and  S_17
REMARK    2  A    between atoms: S_17  and  C_21
REMARK    3  A    between atoms: C_18  and  C_24
REMARK                            x       y       z     vdW  Elec       q    Type
REMARK                         _______ _______ _______ _____ _____    ______ ____
ROOT
ATOM      1  N   UNL     1      35.168 -18.177 -20.866  0.00  0.00    -0.332 NA
ATOM      2  N   UNL     1      34.891 -18.880 -23.154  0.00  0.00    -0.313 NA
ATOM      3  N   UNL     1      34.287 -17.420 -24.826  0.00  0.00    -0.332 N 
ATOM      4  N   UNL     1      35.509 -20.412 -21.493  0.00  0.00    -0.283 N 
ATOM      5  C   UNL     1      34.203 -15.251 -22.877  0.00  0.00    +0.035 C 
ATOM      6  C   UNL     1      34.535 -16.572 -22.532  0.00  0.00    +0.077 C 
ATOM      7  C   UNL     1      34.849 -16.916 -21.208  0.00  0.00    +0.131 C 
ATOM      8  C   UNL     1      34.181 -14.261 -21.899  0.00  0.00    +0.003 C 
ATOM      9  C   UNL     1      34.576 -17.608 -23.461  0.00  0.00    +0.193 C 
ATOM     10  C   UNL     1      34.819 -15.906 -20.249  0.00  0.00    +0.086 C 
ATOM     11  C   UNL     1      34.489 -14.590 -20.584  0.00  0.00    -0.018 C 
ATOM     12  C   UNL     1      35.173 -19.091 -21.858  0.00  0.00    +0.197 C 
ATOM     13  H   UNL     1      34.329 -18.183 -25.448  0.00  0.00    +0.145 HD
ATOM     14  H   UNL     1      34.044 -16.526 -25.159  0.00  0.00    +0.145 HD
ATOM     15  H   UNL     1      35.725 -20.625 -20.556  0.00  0.00    +0.156 HD
ATOM     16  H   UNL     1      35.528 -21.122 -22.175  0.00  0.00    +0.156 HD
ENDROOT
BRANCH   5  17
ATOM     17  S   UNL     1      33.771 -14.600 -24.502  0.00  0.00    -0.087 S 
BRANCH  17  21
ATOM     18  C   UNL     1      32.786 -10.344 -23.151  0.00  0.00    -0.023 C 
ATOM     19  C   UNL     1      32.075 -11.425 -22.627  0.00  0.00    -0.004 C 
ATOM     20  C   UNL     1      33.798 -10.563 -24.086  0.00  0.00    -0.004 C 
ATOM     21  C   UNL     1      33.387 -12.940 -23.975  0.00  0.00    +0.029 C 
ATOM     22  C   UNL     1      32.375 -12.723 -23.040  0.00  0.00    +0.006 C 
ATOM     23  C   UNL     1      34.098 -11.862 -24.499  0.00  0.00    +0.006 C 
BRANCH  18  24
ATOM     24  C   UNL     1      32.465  -8.956 -22.711  0.00  0.00    +0.019 C 
ATOM     25  C   UNL     1      32.082  -8.917 -21.198  0.00  0.00    +0.004 C 
ATOM     26  C   UNL     1      31.263  -8.372 -23.515  0.00  0.00    +0.004 C 
ATOM     27  C   UNL     1      33.621  -7.915 -22.875  0.00  0.00    +0.004 C 
ENDBRANCH  18  24
ENDBRANCH  17  21
ENDBRANCH   5  17
TORSDOF 3
ENDMDL
MODEL 5
REMARK VINA RESULT:      -9.8      3.787      7.485
REMARK  Name = 3537
REMARK  3 active torsions:
REMARK  status: ('A' for Active; 'I' for Inactive)
REMARK    1  A    between atoms: C_5  and  S_17
REMARK    2  A    between atoms: S_17  and  C_21
REMARK    3  A    between atoms: C_18  and  C_24
REMARK                            x       y       z     vdW  Elec       q    Type
REMARK                         _______ _______ _______ _____ _____    ______ ____
ROOT
ATOM      1  N   UNL     1      31.744  -9.245 -20.905  0.00  0.00    -0.332 NA
ATOM      2  N   UNL     1      32.949  -8.418 -22.821  0.00  0.00    -0.313 NA
ATOM      3  N   UNL     1      33.822  -9.819 -24.424  0.00  0.00    -0.332 N 
ATOM      4  N   UNL     1      32.081  -6.944 -21.221  0.00  0.00    -0.283 N 
ATOM      5  C   UNL     1      32.790 -12.117 -22.953  0.00  0.00    +0.035 C 
ATOM      6  C   UNL     1      32.614 -10.792 -22.517  0.00  0.00    +0.077 C 
ATOM      7  C   UNL     1      31.919 -10.508 -21.331  0.00  0.00    +0.131 C 
ATOM      8  C   UNL     1      32.273 -13.170 -22.204  0.00  0.00    +0.003 C 
ATOM      9  C   UNL     1      33.105  -9.695 -23.219  0.00  0.00    +0.193 C 
ATOM     10  C   UNL     1      31.412 -11.581 -20.601  0.00  0.00    +0.086 C 
ATOM     11  C   UNL     1      31.583 -12.901 -21.027  0.00  0.00    -0.018 C 
ATOM     12  C   UNL     1      32.268  -8.268 -21.673  0.00  0.00    +0.197 C 
ATOM     13  H   UNL     1      34.150  -9.014 -24.887  0.00  0.00    +0.145 HD
ATOM     14  H   UNL     1      33.993 -10.710 -24.805  0.00  0.00    +0.145 HD
ATOM     15  H   UNL     1      31.590  -6.774 -20.385  0.00  0.00    +0.156 HD
ATOM     16  H   UNL     1      32.442  -6.190 -21.741  0.00  0.00    +0.156 HD
ENDROOT
BRANCH   5  17
ATOM     17  S   UNL     1      33.642 -12.699 -24.432  0.00  0.00    -0.087 S 
BRANCH  17  21
ATOM     18  C   UNL     1      34.646 -16.882 -22.885  0.00  0.00    -0.023 C 
ATOM     19  C   UNL     1      34.163 -16.716 -24.184  0.00  0.00    -0.004 C 
ATOM     20  C   UNL     1      34.821 -15.772 -22.058  0.00  0.00    -0.004 C 
ATOM     21  C   UNL     1      34.033 -14.330 -23.829  0.00  0.00    +0.029 C 
ATOM     22  C   UNL     1      33.857 -15.440 -24.655  0.00  0.00    +0.006 C 
ATOM     23  C   UNL     1      34.515 -14.495 -22.531  0.00  0.00    +0.006 C 
BRANCH  18  24
ATOM     24  C   UNL     1      34.973 -18.247 -22.380  0.00  0.00    +0.019 C 
ATOM     25  C   UNL     1      34.893 -19.307 -23.522  0.00  0.00    +0.004 C 
ATOM     26  C   UNL     1      33.982 -18.688 -21.259  0.00  0.00    +0.004 C 
ATOM     27  C   UNL     1      36.400 -18.409 -21.761  0.00  0.00    +0.004 C 
ENDBRANCH  18  24
ENDBRANCH  17  21
ENDBRANCH   5  17
TORSDOF 3
ENDMDL
MODEL 6
REMARK VINA RESULT:      -9.5      3.263      5.803
REMARK  Name = 3537
REMARK  3 active torsions:
REMARK  status: ('A' for Active; 'I' for Inactive)
REMARK    1  A    between atoms: C_5  and  S_17
REMARK    2  A    between atoms: S_17  and  C_21
REMARK    3  A    between atoms: C_18  and  C_24
REMARK                            x       y       z     vdW  Elec       q    Type
REMARK                         _______ _______ _______ _____ _____    ______ ____
ROOT
ATOM      1  N   UNL     1      34.069 -12.530 -24.541  0.00  0.00    -0.332 NA
ATOM      2  N   UNL     1      32.170 -13.065 -23.158  0.00  0.00    -0.313 NA
ATOM      3  N   UNL     1      31.058 -11.473 -21.924  0.00  0.00    -0.332 N 
ATOM      4  N   UNL     1      33.262 -14.729 -24.394  0.00  0.00    -0.283 N 
ATOM      5  C   UNL     1      32.897  -9.440 -22.924  0.00  0.00    +0.035 C 
ATOM      6  C   UNL     1      32.983 -10.794 -23.294  0.00  0.00    +0.077 C 
ATOM      7  C   UNL     1      33.977 -11.239 -24.180  0.00  0.00    +0.131 C 
ATOM      8  C   UNL     1      33.805  -8.519 -23.437  0.00  0.00    +0.003 C 
ATOM      9  C   UNL     1      32.107 -11.764 -22.818  0.00  0.00    +0.193 C 
ATOM     10  C   UNL     1      34.874 -10.295 -24.678  0.00  0.00    +0.086 C 
ATOM     11  C   UNL     1      34.795  -8.948 -24.314  0.00  0.00    -0.018 C 
ATOM     12  C   UNL     1      33.160 -13.374 -24.011  0.00  0.00    +0.197 C 
ATOM     13  H   UNL     1      30.461 -12.192 -21.614  0.00  0.00    +0.145 HD
ATOM     14  H   UNL     1      30.921 -10.550 -21.610  0.00  0.00    +0.145 HD
ATOM     15  H   UNL     1      33.970 -15.012 -25.017  0.00  0.00    +0.156 HD
ATOM     16  H   UNL     1      32.626 -15.390 -24.039  0.00  0.00    +0.156 HD
ENDROOT
BRANCH   5  17
ATOM     17  S   UNL     1      31.709  -8.664 -21.811  0.00  0.00    -0.087 S 
BRANCH  17  21
ATOM     18  C   UNL     1      31.501  -4.628 -23.949  0.00  0.00    -0.023 C 
ATOM     19  C   UNL     1      31.898  -4.690 -22.612  0.00  0.00    -0.004 C 
ATOM     20  C   UNL     1      31.168  -5.798 -24.633  0.00  0.00    -0.004 C 
ATOM     21  C   UNL     1      31.628  -7.090 -22.645  0.00  0.00    +0.029 C 
ATOM     22  C   UNL     1      31.961  -5.921 -21.960  0.00  0.00    +0.006 C 
ATOM     23  C   UNL     1      31.232  -7.029 -23.980  0.00  0.00    +0.006 C 
BRANCH  18  24
ATOM     24  C   UNL     1      31.433  -3.312 -24.646  0.00  0.00    +0.019 C 
ATOM     25  C   UNL     1      32.355  -3.290 -25.906  0.00  0.00    +0.004 C 
ATOM     26  C   UNL     1      31.891  -2.151 -23.709  0.00  0.00    +0.004 C 
ATOM     27  C   UNL     1      30.015  -2.897 -25.161  0.00  0.00    +0.004 C 
ENDBRANCH  18  24
ENDBRANCH  17  21
ENDBRANCH   5  17
TORSDOF 3
ENDMDL
MODEL 7
REMARK VINA RESULT:      -9.5     10.703     13.744
REMARK  Name = 3537
REMARK  3 active torsions:
REMARK  status: ('A' for Active; 'I' for Inactive)
REMARK    1  A    between atoms: C_5  and  S_17
REMARK    2  A    between atoms: S_17  and  C_21
REMARK    3  A    between atoms: C_18  and  C_24
REMARK                            x       y       z     vdW  Elec       q    Type
REMARK                         _______ _______ _______ _____ _____    ______ ____
ROOT
ATOM      1  N   UNL     1      39.481 -25.114 -13.352  0.00  0.00    -0.332 NA
ATOM      2  N   UNL     1      38.270 -26.622 -14.789  0.00  0.00    -0.313 NA
ATOM      3  N   UNL     1      35.982 -26.538 -15.013  0.00  0.00    -0.332 N 
ATOM      4  N   UNL     1      40.601 -26.754 -14.600  0.00  0.00    -0.283 N 
ATOM      5  C   UNL     1      35.897 -24.309 -13.132  0.00  0.00    +0.035 C 
ATOM      6  C   UNL     1      37.094 -24.940 -13.513  0.00  0.00    +0.077 C 
ATOM      7  C   UNL     1      38.330 -24.518 -12.995  0.00  0.00    +0.131 C 
ATOM      8  C   UNL     1      35.924 -23.251 -12.230  0.00  0.00    +0.003 C 
ATOM      9  C   UNL     1      37.136 -26.003 -14.410  0.00  0.00    +0.193 C 
ATOM     10  C   UNL     1      38.327 -23.456 -12.093  0.00  0.00    +0.086 C 
ATOM     11  C   UNL     1      37.141 -22.824 -11.709  0.00  0.00    -0.018 C 
ATOM     12  C   UNL     1      39.389 -26.133 -14.230  0.00  0.00    +0.197 C 
ATOM     13  H   UNL     1      36.059 -27.291 -15.644  0.00  0.00    +0.145 HD
ATOM     14  H   UNL     1      35.098 -26.159 -14.806  0.00  0.00    +0.145 HD
ATOM     15  H   UNL     1      41.453 -26.437 -14.221  0.00  0.00    +0.156 HD
ATOM     16  H   UNL     1      40.596 -27.504 -15.238  0.00  0.00    +0.156 HD
ENDROOT
BRANCH   5  17
ATOM     17  S   UNL     1      34.219 -24.689 -13.672  0.00  0.00    -0.087 S 
BRANCH  17  21
ATOM     18  C   UNL     1      34.479 -22.669 -17.765  0.00  0.00    -0.023 C 
ATOM     19  C   UNL     1      35.554 -22.590 -16.878  0.00  0.00    -0.004 C 
ATOM     20  C   UNL     1      33.326 -23.364 -17.402  0.00  0.00    -0.004 C 
ATOM     21  C   UNL     1      34.321 -23.901 -15.268  0.00  0.00    +0.029 C 
ATOM     22  C   UNL     1      35.475 -23.206 -15.629  0.00  0.00    +0.006 C 
ATOM     23  C   UNL     1      33.247 -23.981 -16.153  0.00  0.00    +0.006 C 
BRANCH  18  24
ATOM     24  C   UNL     1      34.564 -22.009 -19.100  0.00  0.00    +0.019 C 
ATOM     25  C   UNL     1      34.573 -23.062 -20.252  0.00  0.00    +0.004 C 
ATOM     26  C   UNL     1      35.866 -21.160 -19.229  0.00  0.00    +0.004 C 
ATOM     27  C   UNL     1      33.393 -21.030 -19.440  0.00  0.00    +0.004 C 
ENDBRANCH  18  24
ENDBRANCH  17  21
ENDBRANCH   5  17
TORSDOF 3
ENDMDL
MODEL 8
REMARK VINA RESULT:      -9.4      6.209      9.199
REMARK  Name = 3537
REMARK  3 active torsions:
REMARK  status: ('A' for Active; 'I' for Inactive)
REMARK    1  A    between atoms: C_5  and  S_17
REMARK    2  A    between atoms: S_17  and  C_21
REMARK    3  A    between atoms: C_18  and  C_24
REMARK                            x       y       z     vdW  Elec       q    Type
REMARK                         _______ _______ _______ _____ _____    ______ ____
ROOT
ATOM      1  N   UNL     1      35.454 -22.794 -14.758  0.00  0.00    -0.332 NA
ATOM      2  N   UNL     1      33.350 -23.680 -15.528  0.00  0.00    -0.313 NA
ATOM      3  N   UNL     1      32.715 -23.599 -17.738  0.00  0.00    -0.332 N 
ATOM      4  N   UNL     1      33.944 -23.791 -13.265  0.00  0.00    -0.283 N 
ATOM      5  C   UNL     1      35.226 -22.265 -18.392  0.00  0.00    +0.035 C 
ATOM      6  C   UNL     1      34.890 -22.658 -17.084  0.00  0.00    +0.077 C 
ATOM      7  C   UNL     1      35.765 -22.422 -16.012  0.00  0.00    +0.131 C 
ATOM      8  C   UNL     1      36.440 -21.631 -18.637  0.00  0.00    +0.003 C 
ATOM      9  C   UNL     1      33.693 -23.295 -16.771  0.00  0.00    +0.193 C 
ATOM     10  C   UNL     1      36.973 -21.786 -16.287  0.00  0.00    +0.086 C 
ATOM     11  C   UNL     1      37.315 -21.392 -17.583  0.00  0.00    -0.018 C 
ATOM     12  C   UNL     1      34.264 -23.403 -14.583  0.00  0.00    +0.197 C 
ATOM     13  H   UNL     1      31.882 -24.052 -17.471  0.00  0.00    +0.145 HD
ATOM     14  H   UNL     1      32.865 -23.361 -18.681  0.00  0.00    +0.145 HD
ATOM     15  H   UNL     1      34.576 -23.613 -12.532  0.00  0.00    +0.156 HD
ATOM     16  H   UNL     1      33.088 -24.240 -13.077  0.00  0.00    +0.156 HD
ENDROOT
BRANCH   5  17
ATOM     17  S   UNL     1      34.258 -22.469 -19.899  0.00  0.00    -0.087 S 
BRANCH  17  21
ATOM     18  C   UNL     1      33.967 -18.035 -20.977  0.00  0.00    -0.023 C 
ATOM     19  C   UNL     1      32.812 -18.755 -20.667  0.00  0.00    -0.004 C 
ATOM     20  C   UNL     1      35.210 -18.669 -20.957  0.00  0.00    -0.004 C 
ATOM     21  C   UNL     1      34.144 -20.740 -20.319  0.00  0.00    +0.029 C 
ATOM     22  C   UNL     1      32.901 -20.108 -20.338  0.00  0.00    +0.006 C 
ATOM     23  C   UNL     1      35.298 -20.022 -20.628  0.00  0.00    +0.006 C 
BRANCH  18  24
ATOM     24  C   UNL     1      33.872 -16.589 -21.328  0.00  0.00    +0.019 C 
ATOM     25  C   UNL     1      32.433 -16.039 -21.081  0.00  0.00    +0.004 C 
ATOM     26  C   UNL     1      34.215 -16.349 -22.831  0.00  0.00    +0.004 C 
ATOM     27  C   UNL     1      34.824 -15.640 -20.528  0.00  0.00    +0.004 C 
ENDBRANCH  18  24
ENDBRANCH  17  21
ENDBRANCH   5  17
TORSDOF 3
ENDMDL
MODEL 9
REMARK VINA RESULT:      -9.2     12.218     14.801
REMARK  Name = 3537
REMARK  3 active torsions:
REMARK  status: ('A' for Active; 'I' for Inactive)
REMARK    1  A    between atoms: C_5  and  S_17
REMARK    2  A    between atoms: S_17  and  C_21
REMARK    3  A    between atoms: C_18  and  C_24
REMARK                            x       y       z     vdW  Elec       q    Type
REMARK                         _______ _______ _______ _____ _____    ______ ____
ROOT
ATOM      1  N   UNL     1      28.806 -23.468 -14.846  0.00  0.00    -0.332 NA
ATOM      2  N   UNL     1      29.266 -22.336 -16.924  0.00  0.00    -0.313 NA
ATOM      3  N   UNL     1      31.383 -22.216 -17.817  0.00  0.00    -0.332 N 
ATOM      4  N   UNL     1      27.090 -22.428 -16.063  0.00  0.00    -0.283 N 
ATOM      5  C   UNL     1      32.407 -23.741 -15.550  0.00  0.00    +0.035 C 
ATOM      6  C   UNL     1      31.050 -23.401 -15.689  0.00  0.00    +0.077 C 
ATOM      7  C   UNL     1      30.106 -23.787 -14.724  0.00  0.00    +0.131 C 
ATOM      8  C   UNL     1      32.832 -24.471 -14.444  0.00  0.00    +0.003 C 
ATOM      9  C   UNL     1      30.560 -22.674 -16.770  0.00  0.00    +0.193 C 
ATOM     10  C   UNL     1      30.559 -24.517 -13.627  0.00  0.00    +0.086 C 
ATOM     11  C   UNL     1      31.906 -24.858 -13.481  0.00  0.00    -0.018 C 
ATOM     12  C   UNL     1      28.456 -22.760 -15.940  0.00  0.00    +0.197 C 
ATOM     13  H   UNL     1      30.993 -21.705 -18.563  0.00  0.00    +0.145 HD
ATOM     14  H   UNL     1      32.348 -22.408 -17.804  0.00  0.00    +0.145 HD
ATOM     15  H   UNL     1      26.450 -22.712 -15.370  0.00  0.00    +0.156 HD
ATOM     16  H   UNL     1      26.776 -21.912 -16.840  0.00  0.00    +0.156 HD
ENDROOT
BRANCH   5  17
ATOM     17  S   UNL     1      33.772 -23.349 -16.661  0.00  0.00    -0.087 S 
BRANCH  17  21
ATOM     18  C   UNL     1      37.153 -24.590 -13.845  0.00  0.00    -0.023 C 
ATOM     19  C   UNL     1      36.722 -23.263 -13.874  0.00  0.00    -0.004 C 
ATOM     20  C   UNL     1      36.552 -25.538 -14.674  0.00  0.00    -0.004 C 
ATOM     21  C   UNL     1      35.091 -23.833 -15.563  0.00  0.00    +0.029 C 
ATOM     22  C   UNL     1      35.690 -22.885 -14.734  0.00  0.00    +0.006 C 
ATOM     23  C   UNL     1      35.520 -25.159 -15.533  0.00  0.00    +0.006 C 
BRANCH  18  24
ATOM     24  C   UNL     1      38.256 -24.995 -12.926  0.00  0.00    +0.019 C 
ATOM     25  C   UNL     1      37.856 -26.242 -12.076  0.00  0.00    +0.004 C 
ATOM     26  C   UNL     1      38.616 -23.847 -11.935  0.00  0.00    +0.004 C 
ATOM     27  C   UNL     1      39.602 -25.381 -13.624  0.00  0.00    +0.004 C 
ENDBRANCH  18  24
ENDBRANCH  17  21
ENDBRANCH   5  17
TORSDOF 3
ENDMDL
