MODEL 1
REMARK VINA RESULT:      -6.6      0.000      0.000
REMARK  Name = 3318551
REMARK  0 active torsions:
REMARK  status: ('A' for Active; 'I' for Inactive)
REMARK                            x       y       z     vdW  Elec       q    Type
REMARK                         _______ _______ _______ _____ _____    ______ ____
ROOT
ATOM      1  O   UNL     1      40.496 -25.001 -13.894  0.00  0.00    -0.221 OA
ATOM      2  N   UNL     1      36.681 -26.145 -13.370  0.00  0.00    -0.309 N 
ATOM      3  N   UNL     1      37.725 -23.350 -11.281  0.00  0.00    -0.114 NA
ATOM      4  N   UNL     1      38.752 -23.650 -11.968  0.00  0.00    -0.146 NA
ATOM      5  N   UNL     1      38.772 -26.434 -14.482  0.00  0.00    -0.179 NA
ATOM      6  C   UNL     1      37.194 -25.119 -12.656  0.00  0.00    +0.095 C 
ATOM      7  C   UNL     1      36.583 -24.259 -11.633  0.00  0.00    +0.125 C 
ATOM      8  C   UNL     1      38.444 -24.697 -12.783  0.00  0.00    +0.197 C 
ATOM      9  C   UNL     1      39.335 -25.378 -13.760  0.00  0.00    +0.173 C 
ATOM     10  C   UNL     1      37.528 -26.752 -14.262  0.00  0.00    +0.229 C 
ATOM     11  H   UNL     1      35.748 -26.440 -13.257  0.00  0.00    +0.149 HD
ENDROOT
TORSDOF 0
ENDMDL
MODEL 2
REMARK VINA RESULT:      -6.1      2.384      3.387
REMARK  Name = 3318551
REMARK  0 active torsions:
REMARK  status: ('A' for Active; 'I' for Inactive)
REMARK                            x       y       z     vdW  Elec       q    Type
REMARK                         _______ _______ _______ _____ _____    ______ ____
ROOT
ATOM      1  O   UNL     1      36.721 -27.461 -16.279  0.00  0.00    -0.221 OA
ATOM      2  N   UNL     1      36.734 -24.320 -13.774  0.00  0.00    -0.309 N 
ATOM      3  N   UNL     1      39.837 -26.227 -13.830  0.00  0.00    -0.114 NA
ATOM      4  N   UNL     1      39.073 -26.816 -14.657  0.00  0.00    -0.146 NA
ATOM      5  N   UNL     1      35.580 -25.655 -15.380  0.00  0.00    -0.179 NA
ATOM      6  C   UNL     1      37.824 -25.111 -13.889  0.00  0.00    +0.095 C 
ATOM      7  C   UNL     1      39.132 -25.049 -13.223  0.00  0.00    +0.125 C 
ATOM      8  C   UNL     1      37.880 -26.161 -14.697  0.00  0.00    +0.197 C 
ATOM      9  C   UNL     1      36.689 -26.494 -15.524  0.00  0.00    +0.173 C 
ATOM     10  C   UNL     1      35.653 -24.654 -14.549  0.00  0.00    +0.229 C 
ATOM     11  H   UNL     1      36.717 -23.546 -13.166  0.00  0.00    +0.149 HD
ENDROOT
TORSDOF 0
ENDMDL
MODEL 3
REMARK VINA RESULT:      -6.1      1.375      3.055
REMARK  Name = 3318551
REMARK  0 active torsions:
REMARK  status: ('A' for Active; 'I' for Inactive)
REMARK                            x       y       z     vdW  Elec       q    Type
REMARK                         _______ _______ _______ _____ _____    ______ ____
ROOT
ATOM      1  O   UNL     1      39.192 -23.171 -11.643  0.00  0.00    -0.221 OA
ATOM      2  N   UNL     1      36.132 -25.540 -12.723  0.00  0.00    -0.309 N 
ATOM      3  N   UNL     1      39.231 -26.146 -14.539  0.00  0.00    -0.114 NA
ATOM      4  N   UNL     1      39.501 -25.201 -13.732  0.00  0.00    -0.146 NA
ATOM      5  N   UNL     1      36.975 -23.779 -11.351  0.00  0.00    -0.179 NA
ATOM      6  C   UNL     1      37.338 -25.662 -13.320  0.00  0.00    +0.095 C 
ATOM      7  C   UNL     1      37.799 -26.568 -14.381  0.00  0.00    +0.125 C 
ATOM      8  C   UNL     1      38.384 -24.910 -13.008  0.00  0.00    +0.197 C 
ATOM      9  C   UNL     1      38.235 -23.878 -11.947  0.00  0.00    +0.173 C 
ATOM     10  C   UNL     1      36.027 -24.579 -11.750  0.00  0.00    +0.229 C 
ATOM     11  H   UNL     1      35.370 -26.111 -12.973  0.00  0.00    +0.149 HD
ENDROOT
TORSDOF 0
ENDMDL
MODEL 4
REMARK VINA RESULT:      -6.0      8.771      9.175
REMARK  Name = 3318551
REMARK  0 active torsions:
REMARK  status: ('A' for Active; 'I' for Inactive)
REMARK                            x       y       z     vdW  Elec       q    Type
REMARK                         _______ _______ _______ _____ _____    ______ ____
ROOT
ATOM      1  O   UNL     1      32.887 -22.822 -18.506  0.00  0.00    -0.221 OA
ATOM      2  N   UNL     1      36.141 -20.724 -19.578  0.00  0.00    -0.309 N 
ATOM      3  N   UNL     1      33.064 -19.698 -21.234  0.00  0.00    -0.114 NA
ATOM      4  N   UNL     1      32.723 -20.654 -20.469  0.00  0.00    -0.146 NA
ATOM      5  N   UNL     1      35.165 -22.464 -18.270  0.00  0.00    -0.179 NA
ATOM      6  C   UNL     1      34.935 -20.444 -20.119  0.00  0.00    +0.095 C 
ATOM      7  C   UNL     1      34.537 -19.435 -21.110  0.00  0.00    +0.125 C 
ATOM      8  C   UNL     1      33.827 -21.101 -19.806  0.00  0.00    +0.197 C 
ATOM      9  C   UNL     1      33.902 -22.202 -18.810  0.00  0.00    +0.173 C 
ATOM     10  C   UNL     1      36.177 -21.745 -18.663  0.00  0.00    +0.229 C 
ATOM     11  H   UNL     1      36.950 -20.221 -19.827  0.00  0.00    +0.149 HD
ENDROOT
TORSDOF 0
ENDMDL
MODEL 5
REMARK VINA RESULT:      -5.9      1.894      2.144
REMARK  Name = 3318551
REMARK  0 active torsions:
REMARK  status: ('A' for Active; 'I' for Inactive)
REMARK                            x       y       z     vdW  Elec       q    Type
REMARK                         _______ _______ _______ _____ _____    ______ ____
ROOT
ATOM      1  O   UNL     1      38.214 -27.015 -14.607  0.00  0.00    -0.221 OA
ATOM      2  N   UNL     1      35.227 -24.396 -14.011  0.00  0.00    -0.309 N 
ATOM      3  N   UNL     1      37.552 -24.702 -11.224  0.00  0.00    -0.114 NA
ATOM      4  N   UNL     1      37.987 -25.508 -12.106  0.00  0.00    -0.146 NA
ATOM      5  N   UNL     1      36.308 -25.983 -15.426  0.00  0.00    -0.179 NA
ATOM      6  C   UNL     1      36.158 -24.604 -13.054  0.00  0.00    +0.095 C 
ATOM      7  C   UNL     1      36.314 -24.012 -11.718  0.00  0.00    +0.125 C 
ATOM      8  C   UNL     1      37.166 -25.455 -13.192  0.00  0.00    +0.197 C 
ATOM      9  C   UNL     1      37.288 -26.223 -14.459  0.00  0.00    +0.173 C 
ATOM     10  C   UNL     1      35.367 -25.120 -15.167  0.00  0.00    +0.229 C 
ATOM     11  H   UNL     1      34.487 -23.759 -13.884  0.00  0.00    +0.149 HD
ENDROOT
TORSDOF 0
ENDMDL
MODEL 6
REMARK VINA RESULT:      -5.9      2.509      3.249
REMARK  Name = 3318551
REMARK  0 active torsions:
REMARK  status: ('A' for Active; 'I' for Inactive)
REMARK                            x       y       z     vdW  Elec       q    Type
REMARK                         _______ _______ _______ _____ _____    ______ ____
ROOT
ATOM      1  O   UNL     1      36.724 -27.304 -16.097  0.00  0.00    -0.221 OA
ATOM      2  N   UNL     1      38.095 -24.689 -13.373  0.00  0.00    -0.309 N 
ATOM      3  N   UNL     1      35.019 -23.670 -15.037  0.00  0.00    -0.114 NA
ATOM      4  N   UNL     1      35.312 -24.798 -15.546  0.00  0.00    -0.146 NA
ATOM      5  N   UNL     1      38.340 -26.763 -14.527  0.00  0.00    -0.179 NA
ATOM      6  C   UNL     1      36.962 -24.431 -14.062  0.00  0.00    +0.095 C 
ATOM      7  C   UNL     1      36.046 -23.283 -14.013  0.00  0.00    +0.125 C 
ATOM      8  C   UNL     1      36.461 -25.254 -14.973  0.00  0.00    +0.197 C 
ATOM      9  C   UNL     1      37.172 -26.529 -15.258  0.00  0.00    +0.173 C 
ATOM     10  C   UNL     1      38.727 -25.872 -13.659  0.00  0.00    +0.229 C 
ATOM     11  H   UNL     1      38.447 -24.062 -12.701  0.00  0.00    +0.149 HD
ENDROOT
TORSDOF 0
ENDMDL
MODEL 7
REMARK VINA RESULT:      -5.9      2.320      2.324
REMARK  Name = 3318551
REMARK  0 active torsions:
REMARK  status: ('A' for Active; 'I' for Inactive)
REMARK                            x       y       z     vdW  Elec       q    Type
REMARK                         _______ _______ _______ _____ _____    ______ ____
ROOT
ATOM      1  O   UNL     1      38.135 -23.065 -15.438  0.00  0.00    -0.221 OA
ATOM      2  N   UNL     1      35.113 -24.817 -13.455  0.00  0.00    -0.309 N 
ATOM      3  N   UNL     1      37.461 -23.004 -11.342  0.00  0.00    -0.114 NA
ATOM      4  N   UNL     1      37.902 -22.859 -12.525  0.00  0.00    -0.146 NA
ATOM      5  N   UNL     1      36.208 -24.349 -15.522  0.00  0.00    -0.179 NA
ATOM      6  C   UNL     1      36.054 -24.113 -12.788  0.00  0.00    +0.095 C 
ATOM      7  C   UNL     1      36.209 -23.834 -11.354  0.00  0.00    +0.125 C 
ATOM      8  C   UNL     1      37.074 -23.514 -13.386  0.00  0.00    +0.197 C 
ATOM      9  C   UNL     1      37.198 -23.613 -14.865  0.00  0.00    +0.173 C 
ATOM     10  C   UNL     1      35.256 -24.891 -14.817  0.00  0.00    +0.229 C 
ATOM     11  H   UNL     1      34.364 -25.254 -12.988  0.00  0.00    +0.149 HD
ENDROOT
TORSDOF 0
ENDMDL
MODEL 8
REMARK VINA RESULT:      -5.9      1.649      3.216
REMARK  Name = 3318551
REMARK  0 active torsions:
REMARK  status: ('A' for Active; 'I' for Inactive)
REMARK                            x       y       z     vdW  Elec       q    Type
REMARK                         _______ _______ _______ _____ _____    ______ ____
ROOT
ATOM      1  O   UNL     1      39.913 -26.171 -13.632  0.00  0.00    -0.221 OA
ATOM      2  N   UNL     1      36.570 -23.956 -13.390  0.00  0.00    -0.309 N 
ATOM      3  N   UNL     1      36.377 -26.739 -15.732  0.00  0.00    -0.114 NA
ATOM      4  N   UNL     1      37.548 -26.801 -15.241  0.00  0.00    -0.146 NA
ATOM      5  N   UNL     1      38.811 -24.367 -12.682  0.00  0.00    -0.179 NA
ATOM      6  C   UNL     1      36.630 -25.018 -14.223  0.00  0.00    +0.095 C 
ATOM      7  C   UNL     1      35.630 -25.578 -15.141  0.00  0.00    +0.125 C 
ATOM      8  C   UNL     1      37.704 -25.786 -14.347  0.00  0.00    +0.197 C 
ATOM      9  C   UNL     1      38.909 -25.472 -13.532  0.00  0.00    +0.173 C 
ATOM     10  C   UNL     1      37.697 -23.693 -12.654  0.00  0.00    +0.229 C 
ATOM     11  H   UNL     1      35.760 -23.401 -13.316  0.00  0.00    +0.149 HD
ENDROOT
TORSDOF 0
ENDMDL
MODEL 9
REMARK VINA RESULT:      -5.9     15.113     15.333
REMARK  Name = 3318551
REMARK  0 active torsions:
REMARK  status: ('A' for Active; 'I' for Inactive)
REMARK                            x       y       z     vdW  Elec       q    Type
REMARK                         _______ _______ _______ _____ _____    ______ ____
ROOT
ATOM      1  O   UNL     1      35.404 -17.960 -23.707  0.00  0.00    -0.221 OA
ATOM      2  N   UNL     1      33.728 -14.357 -23.120  0.00  0.00    -0.309 N 
ATOM      3  N   UNL     1      33.388 -15.652 -26.507  0.00  0.00    -0.114 NA
ATOM      4  N   UNL     1      34.035 -16.546 -25.875  0.00  0.00    -0.146 NA
ATOM      5  N   UNL     1      34.941 -16.218 -22.251  0.00  0.00    -0.179 NA
ATOM      6  C   UNL     1      33.673 -14.950 -24.333  0.00  0.00    +0.095 C 
ATOM      7  C   UNL     1      33.069 -14.503 -25.595  0.00  0.00    +0.125 C 
ATOM      8  C   UNL     1      34.207 -16.136 -24.588  0.00  0.00    +0.197 C 
ATOM      9  C   UNL     1      34.903 -16.861 -23.491  0.00  0.00    +0.173 C 
ATOM     10  C   UNL     1      34.377 -15.050 -22.130  0.00  0.00    +0.229 C 
ATOM     11  H   UNL     1      33.324 -13.474 -22.956  0.00  0.00    +0.149 HD
ENDROOT
TORSDOF 0
ENDMDL
