MODEL 1
REMARK VINA RESULT:      -6.3      0.000      0.000
REMARK  Name = 243
REMARK  2 active torsions:
REMARK  status: ('A' for Active; 'I' for Inactive)
REMARK    1  A    between atoms: C_1  and  C_8
REMARK    2  A    between atoms: C_8  and  O_9
REMARK                            x       y       z     vdW  Elec       q    Type
REMARK                         _______ _______ _______ _____ _____    ______ ____
ROOT
ATOM      1  C   UNL     1      34.374 -21.336 -19.651  0.00  0.00    +0.075 C 
ATOM      2  C   UNL     1      33.088 -20.857 -19.895  0.00  0.00    +0.006 C 
ATOM      3  C   UNL     1      35.478 -20.686 -20.203  0.00  0.00    +0.006 C 
ATOM      4  C   UNL     1      32.905 -19.726 -20.692  0.00  0.00    +0.000 C 
ATOM      5  C   UNL     1      35.294 -19.556 -21.000  0.00  0.00    +0.000 C 
ATOM      6  C   UNL     1      34.007 -19.077 -21.244  0.00  0.00    +0.000 C 
ENDROOT
BRANCH   1   8
ATOM      7  O   UNL     1      35.265 -22.568 -17.803  0.00  0.00    -0.245 OA
ATOM      8  C   UNL     1      34.565 -22.514 -18.819  0.00  0.00    +0.338 C 
BRANCH   8   9
ATOM      9  O   UNL     1      33.877 -23.594 -19.281  0.00  0.00    -0.477 OA
ATOM     10  H   UNL     1      33.575 -23.614 -20.168  0.00  0.00    +0.295 HD
ENDBRANCH   8   9
ENDBRANCH   1   8
TORSDOF 2
ENDMDL
MODEL 2
REMARK VINA RESULT:      -6.3      0.007      1.611
REMARK  Name = 243
REMARK  2 active torsions:
REMARK  status: ('A' for Active; 'I' for Inactive)
REMARK    1  A    between atoms: C_1  and  C_8
REMARK    2  A    between atoms: C_8  and  O_9
REMARK                            x       y       z     vdW  Elec       q    Type
REMARK                         _______ _______ _______ _____ _____    ______ ____
ROOT
ATOM      1  C   UNL     1      34.375 -21.335 -19.650  0.00  0.00    +0.075 C 
ATOM      2  C   UNL     1      35.477 -20.683 -20.203  0.00  0.00    +0.006 C 
ATOM      3  C   UNL     1      33.087 -20.858 -19.894  0.00  0.00    +0.006 C 
ATOM      4  C   UNL     1      35.291 -19.553 -21.001  0.00  0.00    +0.000 C 
ATOM      5  C   UNL     1      32.902 -19.729 -20.692  0.00  0.00    +0.000 C 
ATOM      6  C   UNL     1      34.004 -19.077 -21.245  0.00  0.00    +0.000 C 
ENDROOT
BRANCH   1   8
ATOM      7  O   UNL     1      35.278 -22.565 -17.806  0.00  0.00    -0.245 OA
ATOM      8  C   UNL     1      34.569 -22.511 -18.818  0.00  0.00    +0.338 C 
BRANCH   8   9
ATOM      9  O   UNL     1      33.874 -23.590 -19.271  0.00  0.00    -0.477 OA
ATOM     10  H   UNL     1      33.260 -24.022 -18.709  0.00  0.00    +0.295 HD
ENDBRANCH   8   9
ENDBRANCH   1   8
TORSDOF 2
ENDMDL
MODEL 3
REMARK VINA RESULT:      -6.0      2.949      4.131
REMARK  Name = 243
REMARK  2 active torsions:
REMARK  status: ('A' for Active; 'I' for Inactive)
REMARK    1  A    between atoms: C_1  and  C_8
REMARK    2  A    between atoms: C_8  and  O_9
REMARK                            x       y       z     vdW  Elec       q    Type
REMARK                         _______ _______ _______ _____ _____    ______ ____
ROOT
ATOM      1  C   UNL     1      34.983 -19.791 -20.732  0.00  0.00    +0.075 C 
ATOM      2  C   UNL     1      35.927 -20.666 -20.196  0.00  0.00    +0.006 C 
ATOM      3  C   UNL     1      33.622 -20.039 -20.556  0.00  0.00    +0.006 C 
ATOM      4  C   UNL     1      35.510 -21.791 -19.483  0.00  0.00    +0.000 C 
ATOM      5  C   UNL     1      33.205 -21.164 -19.843  0.00  0.00    +0.000 C 
ATOM      6  C   UNL     1      34.149 -22.039 -19.307  0.00  0.00    +0.000 C 
ENDROOT
BRANCH   1   8
ATOM      7  O   UNL     1      35.770 -18.612 -22.660  0.00  0.00    -0.245 OA
ATOM      8  C   UNL     1      35.418 -18.619 -21.475  0.00  0.00    +0.338 C 
BRANCH   8   9
ATOM      9  O   UNL     1      35.403 -17.487 -20.719  0.00  0.00    -0.477 OA
ATOM     10  H   UNL     1      36.168 -16.948 -20.667  0.00  0.00    +0.295 HD
ENDBRANCH   8   9
ENDBRANCH   1   8
TORSDOF 2
ENDMDL
MODEL 4
REMARK VINA RESULT:      -6.0      2.887      3.832
REMARK  Name = 243
REMARK  2 active torsions:
REMARK  status: ('A' for Active; 'I' for Inactive)
REMARK    1  A    between atoms: C_1  and  C_8
REMARK    2  A    between atoms: C_8  and  O_9
REMARK                            x       y       z     vdW  Elec       q    Type
REMARK                         _______ _______ _______ _____ _____    ______ ____
ROOT
ATOM      1  C   UNL     1      34.714 -19.874 -20.663  0.00  0.00    +0.075 C 
ATOM      2  C   UNL     1      33.445 -20.335 -20.309  0.00  0.00    +0.006 C 
ATOM      3  C   UNL     1      35.850 -20.564 -20.241  0.00  0.00    +0.006 C 
ATOM      4  C   UNL     1      33.314 -21.488 -19.534  0.00  0.00    +0.000 C 
ATOM      5  C   UNL     1      35.718 -21.717 -19.466  0.00  0.00    +0.000 C 
ATOM      6  C   UNL     1      34.450 -22.178 -19.113  0.00  0.00    +0.000 C 
ENDROOT
BRANCH   1   8
ATOM      7  O   UNL     1      34.570 -18.580 -22.671  0.00  0.00    -0.245 OA
ATOM      8  C   UNL     1      34.851 -18.672 -21.471  0.00  0.00    +0.338 C 
BRANCH   8   9
ATOM      9  O   UNL     1      35.335 -17.618 -20.759  0.00  0.00    -0.477 OA
ATOM     10  H   UNL     1      36.255 -17.548 -20.592  0.00  0.00    +0.295 HD
ENDBRANCH   8   9
ENDBRANCH   1   8
TORSDOF 2
ENDMDL
MODEL 5
REMARK VINA RESULT:      -5.9      4.028      5.022
REMARK  Name = 243
REMARK  2 active torsions:
REMARK  status: ('A' for Active; 'I' for Inactive)
REMARK    1  A    between atoms: C_1  and  C_8
REMARK    2  A    between atoms: C_8  and  O_9
REMARK                            x       y       z     vdW  Elec       q    Type
REMARK                         _______ _______ _______ _____ _____    ______ ____
ROOT
ATOM      1  C   UNL     1      35.048 -17.653 -22.510  0.00  0.00    +0.075 C 
ATOM      2  C   UNL     1      34.842 -18.904 -23.092  0.00  0.00    +0.006 C 
ATOM      3  C   UNL     1      34.983 -16.500 -23.291  0.00  0.00    +0.006 C 
ATOM      4  C   UNL     1      34.570 -19.001 -24.457  0.00  0.00    +0.000 C 
ATOM      5  C   UNL     1      34.711 -16.597 -24.656  0.00  0.00    +0.000 C 
ATOM      6  C   UNL     1      34.505 -17.848 -25.239  0.00  0.00    +0.000 C 
ENDROOT
BRANCH   1   8
ATOM      7  O   UNL     1      35.150 -16.548 -20.390  0.00  0.00    -0.245 OA
ATOM      8  C   UNL     1      35.332 -17.552 -21.087  0.00  0.00    +0.338 C 
BRANCH   8   9
ATOM      9  O   UNL     1      35.834 -18.708 -20.572  0.00  0.00    -0.477 OA
ATOM     10  H   UNL     1      35.391 -19.520 -20.723  0.00  0.00    +0.295 HD
ENDBRANCH   8   9
ENDBRANCH   1   8
TORSDOF 2
ENDMDL
MODEL 6
REMARK VINA RESULT:      -5.8      6.476      7.503
REMARK  Name = 243
REMARK  2 active torsions:
REMARK  status: ('A' for Active; 'I' for Inactive)
REMARK    1  A    between atoms: C_1  and  C_8
REMARK    2  A    between atoms: C_8  and  O_9
REMARK                            x       y       z     vdW  Elec       q    Type
REMARK                         _______ _______ _______ _____ _____    ______ ____
ROOT
ATOM      1  C   UNL     1      29.271 -23.505 -16.070  0.00  0.00    +0.075 C 
ATOM      2  C   UNL     1      29.054 -24.700 -15.384  0.00  0.00    +0.006 C 
ATOM      3  C   UNL     1      30.499 -22.852 -15.964  0.00  0.00    +0.006 C 
ATOM      4  C   UNL     1      30.067 -25.242 -14.592  0.00  0.00    +0.000 C 
ATOM      5  C   UNL     1      31.511 -23.395 -15.172  0.00  0.00    +0.000 C 
ATOM      6  C   UNL     1      31.295 -24.590 -14.486  0.00  0.00    +0.000 C 
ENDROOT
BRANCH   1   8
ATOM      7  O   UNL     1      27.888 -21.748 -16.921  0.00  0.00    -0.245 OA
ATOM      8  C   UNL     1      28.216 -22.939 -16.895  0.00  0.00    +0.338 C 
BRANCH   8   9
ATOM      9  O   UNL     1      27.598 -23.876 -17.666  0.00  0.00    -0.477 OA
ATOM     10  H   UNL     1      27.984 -24.144 -18.477  0.00  0.00    +0.295 HD
ENDBRANCH   8   9
ENDBRANCH   1   8
TORSDOF 2
ENDMDL
MODEL 7
REMARK VINA RESULT:      -5.7      7.312      8.702
REMARK  Name = 243
REMARK  2 active torsions:
REMARK  status: ('A' for Active; 'I' for Inactive)
REMARK    1  A    between atoms: C_1  and  C_8
REMARK    2  A    between atoms: C_8  and  O_9
REMARK                            x       y       z     vdW  Elec       q    Type
REMARK                         _______ _______ _______ _____ _____    ______ ____
ROOT
ATOM      1  C   UNL     1      39.160 -25.276 -14.226  0.00  0.00    +0.075 C 
ATOM      2  C   UNL     1      38.440 -24.398 -15.036  0.00  0.00    +0.006 C 
ATOM      3  C   UNL     1      38.769 -25.485 -12.903  0.00  0.00    +0.006 C 
ATOM      4  C   UNL     1      37.329 -23.728 -14.523  0.00  0.00    +0.000 C 
ATOM      5  C   UNL     1      37.657 -24.814 -12.391  0.00  0.00    +0.000 C 
ATOM      6  C   UNL     1      36.938 -23.936 -13.201  0.00  0.00    +0.000 C 
ENDROOT
BRANCH   1   8
ATOM      7  O   UNL     1      41.171 -26.565 -14.089  0.00  0.00    -0.245 OA
ATOM      8  C   UNL     1      40.318 -25.974 -14.760  0.00  0.00    +0.338 C 
BRANCH   8   9
ATOM      9  O   UNL     1      40.381 -25.915 -16.119  0.00  0.00    -0.477 OA
ATOM     10  H   UNL     1      40.917 -25.269 -16.535  0.00  0.00    +0.295 HD
ENDBRANCH   8   9
ENDBRANCH   1   8
TORSDOF 2
ENDMDL
MODEL 8
REMARK VINA RESULT:      -5.6      1.934      2.984
REMARK  Name = 243
REMARK  2 active torsions:
REMARK  status: ('A' for Active; 'I' for Inactive)
REMARK    1  A    between atoms: C_1  and  C_8
REMARK    2  A    between atoms: C_8  and  O_9
REMARK                            x       y       z     vdW  Elec       q    Type
REMARK                         _______ _______ _______ _____ _____    ______ ____
ROOT
ATOM      1  C   UNL     1      34.401 -20.241 -20.381  0.00  0.00    +0.075 C 
ATOM      2  C   UNL     1      35.339 -21.087 -19.788  0.00  0.00    +0.006 C 
ATOM      3  C   UNL     1      34.825 -19.110 -21.079  0.00  0.00    +0.006 C 
ATOM      4  C   UNL     1      36.700 -20.801 -19.893  0.00  0.00    +0.000 C 
ATOM      5  C   UNL     1      36.186 -18.825 -21.184  0.00  0.00    +0.000 C 
ATOM      6  C   UNL     1      37.124 -19.670 -20.591  0.00  0.00    +0.000 C 
ENDROOT
BRANCH   1   8
ATOM      7  O   UNL     1      32.107 -20.154 -21.055  0.00  0.00    -0.245 OA
ATOM      8  C   UNL     1      32.982 -20.539 -20.272  0.00  0.00    +0.338 C 
BRANCH   8   9
ATOM      9  O   UNL     1      32.694 -21.310 -19.188  0.00  0.00    -0.477 OA
ATOM     10  H   UNL     1      32.287 -22.147 -19.302  0.00  0.00    +0.295 HD
ENDBRANCH   8   9
ENDBRANCH   1   8
TORSDOF 2
ENDMDL
MODEL 9
REMARK VINA RESULT:      -5.6     11.397     12.621
REMARK  Name = 243
REMARK  2 active torsions:
REMARK  status: ('A' for Active; 'I' for Inactive)
REMARK    1  A    between atoms: C_1  and  C_8
REMARK    2  A    between atoms: C_8  and  O_9
REMARK                            x       y       z     vdW  Elec       q    Type
REMARK                         _______ _______ _______ _____ _____    ______ ____
ROOT
ATOM      1  C   UNL     1      32.112  -8.960 -20.691  0.00  0.00    +0.075 C 
ATOM      2  C   UNL     1      31.769  -9.585 -21.890  0.00  0.00    +0.006 C 
ATOM      3  C   UNL     1      31.914  -9.620 -19.478  0.00  0.00    +0.006 C 
ATOM      4  C   UNL     1      31.227 -10.871 -21.876  0.00  0.00    +0.000 C 
ATOM      5  C   UNL     1      31.372 -10.906 -19.465  0.00  0.00    +0.000 C 
ATOM      6  C   UNL     1      31.029 -11.531 -20.664  0.00  0.00    +0.000 C 
ENDROOT
BRANCH   1   8
ATOM      7  O   UNL     1      32.705  -6.866 -21.684  0.00  0.00    -0.245 OA
ATOM      8  C   UNL     1      32.677  -7.620 -20.706  0.00  0.00    +0.338 C 
BRANCH   8   9
ATOM      9  O   UNL     1      33.192  -7.259 -19.499  0.00  0.00    -0.477 OA
ATOM     10  H   UNL     1      33.090  -6.379 -19.191  0.00  0.00    +0.295 HD
ENDBRANCH   8   9
ENDBRANCH   1   8
TORSDOF 2
ENDMDL
