MODEL 1
REMARK VINA RESULT:      -7.1      0.000      0.000
REMARK  Name = 4842
REMARK  4 active torsions:
REMARK  status: ('A' for Active; 'I' for Inactive)
REMARK    1  A    between atoms: C_9  and  C_11
REMARK    2  A    between atoms: C_10  and  C_14
REMARK    3  A    between atoms: C_11  and  C_13
REMARK    4  A    between atoms: C_14  and  C_16
REMARK                            x       y       z     vdW  Elec       q    Type
REMARK                         _______ _______ _______ _____ _____    ______ ____
ROOT
ATOM      1  O   UNL     1      35.408 -17.105 -20.254  0.00  0.00    -0.275 OA
ATOM      2  O   UNL     1      33.217 -15.589 -26.886  0.00  0.00    -0.275 OA
ATOM      3  N   UNL     1      34.603 -17.119 -22.432  0.00  0.00    -0.276 N 
ATOM      4  N   UNL     1      34.077 -15.545 -24.729  0.00  0.00    -0.276 N 
ATOM      5  C   UNL     1      33.908 -15.837 -22.288  0.00  0.00    +0.115 C 
ATOM      6  C   UNL     1      34.409 -17.776 -23.732  0.00  0.00    +0.115 C 
ATOM      7  C   UNL     1      34.271 -14.889 -23.429  0.00  0.00    +0.115 C 
ATOM      8  C   UNL     1      34.772 -16.828 -24.872  0.00  0.00    +0.115 C 
ATOM      9  C   UNL     1      35.312 -17.649 -21.357  0.00  0.00    +0.227 C 
ATOM     10  C   UNL     1      33.365 -15.016 -25.804  0.00  0.00    +0.227 C 
ENDROOT
BRANCH   9  11
ATOM     11  C   UNL     1      36.001 -18.971 -21.589  0.00  0.00    +0.097 C 
BRANCH  11  13
ATOM     12 BR   UNL     1      33.568 -20.118 -20.617  0.00  0.00    -0.080 Br
ATOM     13  C   UNL     1      35.514 -20.003 -20.600  0.00  0.00    +0.077 C 
ENDBRANCH  11  13
ENDBRANCH   9  11
BRANCH  10  14
ATOM     14  C   UNL     1      32.745 -13.656 -25.598  0.00  0.00    +0.097 C 
BRANCH  14  16
ATOM     15 BR   UNL     1      34.184 -11.223 -25.157  0.00  0.00    -0.080 Br
ATOM     16  C   UNL     1      33.513 -12.603 -26.361  0.00  0.00    +0.077 C 
ENDBRANCH  14  16
ENDBRANCH  10  14
TORSDOF 4
ENDMDL
MODEL 2
REMARK VINA RESULT:      -7.1      3.316      6.261
REMARK  Name = 4842
REMARK  4 active torsions:
REMARK  status: ('A' for Active; 'I' for Inactive)
REMARK    1  A    between atoms: C_9  and  C_11
REMARK    2  A    between atoms: C_10  and  C_14
REMARK    3  A    between atoms: C_11  and  C_13
REMARK    4  A    between atoms: C_14  and  C_16
REMARK                            x       y       z     vdW  Elec       q    Type
REMARK                         _______ _______ _______ _____ _____    ______ ____
ROOT
ATOM      1  O   UNL     1      32.144 -12.513 -22.963  0.00  0.00    -0.275 OA
ATOM      2  O   UNL     1      35.572 -18.288 -20.516  0.00  0.00    -0.275 OA
ATOM      3  N   UNL     1      32.879 -14.396 -21.819  0.00  0.00    -0.276 N 
ATOM      4  N   UNL     1      34.897 -16.378 -21.652  0.00  0.00    -0.276 N 
ATOM      5  C   UNL     1      33.321 -15.084 -23.035  0.00  0.00    +0.115 C 
ATOM      6  C   UNL     1      33.022 -15.183 -20.586  0.00  0.00    +0.115 C 
ATOM      7  C   UNL     1      34.753 -15.591 -22.884  0.00  0.00    +0.115 C 
ATOM      8  C   UNL     1      34.454 -15.690 -20.436  0.00  0.00    +0.115 C 
ATOM      9  C   UNL     1      32.310 -13.128 -21.906  0.00  0.00    +0.227 C 
ATOM     10  C   UNL     1      35.464 -17.648 -21.565  0.00  0.00    +0.227 C 
ENDROOT
BRANCH   9  11
ATOM     11  C   UNL     1      31.885 -12.488 -20.608  0.00  0.00    +0.097 C 
BRANCH  11  13
ATOM     12 BR   UNL     1      31.636  -9.915 -19.383  0.00  0.00    -0.080 Br
ATOM     13  C   UNL     1      31.269 -11.132 -20.861  0.00  0.00    +0.077 C 
ENDBRANCH  11  13
ENDBRANCH   9  11
BRANCH  10  14
ATOM     14  C   UNL     1      35.964 -18.253 -22.853  0.00  0.00    +0.097 C 
BRANCH  14  16
ATOM     15 BR   UNL     1      34.226 -18.495 -25.111  0.00  0.00    -0.080 Br
ATOM     16  C   UNL     1      34.934 -19.191 -23.433  0.00  0.00    +0.077 C 
ENDBRANCH  14  16
ENDBRANCH  10  14
TORSDOF 4
ENDMDL
MODEL 3
REMARK VINA RESULT:      -6.9      3.373      4.092
REMARK  Name = 4842
REMARK  4 active torsions:
REMARK  status: ('A' for Active; 'I' for Inactive)
REMARK    1  A    between atoms: C_9  and  C_11
REMARK    2  A    between atoms: C_10  and  C_14
REMARK    3  A    between atoms: C_11  and  C_13
REMARK    4  A    between atoms: C_14  and  C_16
REMARK                            x       y       z     vdW  Elec       q    Type
REMARK                         _______ _______ _______ _____ _____    ______ ____
ROOT
ATOM      1  O   UNL     1      35.154 -16.680 -23.832  0.00  0.00    -0.275 OA
ATOM      2  O   UNL     1      31.651 -11.903 -19.832  0.00  0.00    -0.275 OA
ATOM      3  N   UNL     1      34.376 -15.242 -22.182  0.00  0.00    -0.276 N 
ATOM      4  N   UNL     1      32.369 -13.368 -21.485  0.00  0.00    -0.276 N 
ATOM      5  C   UNL     1      34.004 -14.192 -23.134  0.00  0.00    +0.115 C 
ATOM      6  C   UNL     1      34.175 -14.887 -20.771  0.00  0.00    +0.115 C 
ATOM      7  C   UNL     1      32.570 -13.724 -22.896  0.00  0.00    +0.115 C 
ATOM      8  C   UNL     1      32.741 -14.418 -20.534  0.00  0.00    +0.115 C 
ATOM      9  C   UNL     1      34.938 -16.431 -22.643  0.00  0.00    +0.227 C 
ATOM     10  C   UNL     1      31.809 -12.178 -21.024  0.00  0.00    +0.227 C 
ENDROOT
BRANCH   9  11
ATOM     11  C   UNL     1      35.289 -17.461 -21.599  0.00  0.00    +0.097 C 
BRANCH  11  13
ATOM     12 BR   UNL     1      33.686 -19.735 -20.935  0.00  0.00    -0.080 Br
ATOM     13  C   UNL     1      34.975 -18.851 -22.100  0.00  0.00    +0.077 C 
ENDBRANCH  11  13
ENDBRANCH   9  11
BRANCH  10  14
ATOM     14  C   UNL     1      31.382 -11.182 -22.073  0.00  0.00    +0.097 C 
BRANCH  14  16
ATOM     15 BR   UNL     1      31.529  -8.554 -23.193  0.00  0.00    -0.080 Br
ATOM     16  C   UNL     1      31.942  -9.814 -21.764  0.00  0.00    +0.077 C 
ENDBRANCH  14  16
ENDBRANCH  10  14
TORSDOF 4
ENDMDL
MODEL 4
REMARK VINA RESULT:      -6.8      5.883      8.667
REMARK  Name = 4842
REMARK  4 active torsions:
REMARK  status: ('A' for Active; 'I' for Inactive)
REMARK    1  A    between atoms: C_9  and  C_11
REMARK    2  A    between atoms: C_10  and  C_14
REMARK    3  A    between atoms: C_11  and  C_13
REMARK    4  A    between atoms: C_14  and  C_16
REMARK                            x       y       z     vdW  Elec       q    Type
REMARK                         _______ _______ _______ _____ _____    ______ ____
ROOT
ATOM      1  O   UNL     1      38.016 -23.367 -15.362  0.00  0.00    -0.275 OA
ATOM      2  O   UNL     1      32.982 -21.169 -19.935  0.00  0.00    -0.275 OA
ATOM      3  N   UNL     1      36.064 -22.734 -16.449  0.00  0.00    -0.276 N 
ATOM      4  N   UNL     1      34.946 -21.844 -18.897  0.00  0.00    -0.276 N 
ATOM      5  C   UNL     1      36.710 -21.646 -17.187  0.00  0.00    +0.115 C 
ATOM      6  C   UNL     1      34.615 -22.843 -16.667  0.00  0.00    +0.115 C 
ATOM      7  C   UNL     1      36.395 -21.736 -18.678  0.00  0.00    +0.115 C 
ATOM      8  C   UNL     1      34.300 -22.933 -18.158  0.00  0.00    +0.115 C 
ATOM      9  C   UNL     1      36.810 -23.519 -15.573  0.00  0.00    +0.227 C 
ATOM     10  C   UNL     1      34.199 -21.058 -19.771  0.00  0.00    +0.227 C 
ENDROOT
BRANCH   9  11
ATOM     11  C   UNL     1      36.070 -24.620 -14.856  0.00  0.00    +0.097 C 
BRANCH  11  13
ATOM     12 BR   UNL     1      37.524 -25.923 -12.766  0.00  0.00    -0.080 Br
ATOM     13  C   UNL     1      36.975 -25.809 -14.632  0.00  0.00    +0.077 C 
ENDBRANCH  11  13
ENDBRANCH   9  11
BRANCH  10  14
ATOM     14  C   UNL     1      34.955 -20.011 -20.550  0.00  0.00    +0.097 C 
BRANCH  14  16
ATOM     15 BR   UNL     1      34.820 -19.089 -23.255  0.00  0.00    -0.080 Br
ATOM     16  C   UNL     1      34.027 -19.271 -21.483  0.00  0.00    +0.077 C 
ENDBRANCH  14  16
ENDBRANCH  10  14
TORSDOF 4
ENDMDL
MODEL 5
REMARK VINA RESULT:      -6.8      2.190      2.592
REMARK  Name = 4842
REMARK  4 active torsions:
REMARK  status: ('A' for Active; 'I' for Inactive)
REMARK    1  A    between atoms: C_9  and  C_11
REMARK    2  A    between atoms: C_10  and  C_14
REMARK    3  A    between atoms: C_11  and  C_13
REMARK    4  A    between atoms: C_14  and  C_16
REMARK                            x       y       z     vdW  Elec       q    Type
REMARK                         _______ _______ _______ _____ _____    ______ ____
ROOT
ATOM      1  O   UNL     1      35.330 -18.676 -23.103  0.00  0.00    -0.275 OA
ATOM      2  O   UNL     1      32.547 -12.116 -22.552  0.00  0.00    -0.275 OA
ATOM      3  N   UNL     1      34.528 -16.606 -22.422  0.00  0.00    -0.276 N 
ATOM      4  N   UNL     1      33.291 -14.198 -23.262  0.00  0.00    -0.276 N 
ATOM      5  C   UNL     1      35.027 -15.911 -23.612  0.00  0.00    +0.115 C 
ATOM      6  C   UNL     1      33.893 -15.732 -21.427  0.00  0.00    +0.115 C 
ATOM      7  C   UNL     1      33.926 -15.073 -24.257  0.00  0.00    +0.115 C 
ATOM      8  C   UNL     1      32.792 -14.894 -22.072  0.00  0.00    +0.115 C 
ATOM      9  C   UNL     1      34.737 -17.975 -22.279  0.00  0.00    +0.227 C 
ATOM     10  C   UNL     1      33.084 -12.828 -23.405  0.00  0.00    +0.227 C 
ENDROOT
BRANCH   9  11
ATOM     11  C   UNL     1      34.188 -18.614 -21.027  0.00  0.00    +0.097 C 
BRANCH  11  13
ATOM     12 BR   UNL     1      33.424 -21.091 -19.819  0.00  0.00    -0.080 Br
ATOM     13  C   UNL     1      34.650 -20.048 -20.917  0.00  0.00    +0.077 C 
ENDBRANCH  11  13
ENDBRANCH   9  11
BRANCH  10  14
ATOM     14  C   UNL     1      33.560 -12.204 -24.693  0.00  0.00    +0.097 C 
BRANCH  14  16
ATOM     15 BR   UNL     1      35.407 -10.341 -25.831  0.00  0.00    -0.080 Br
ATOM     16  C   UNL     1      34.136 -10.833 -24.437  0.00  0.00    +0.077 C 
ENDBRANCH  14  16
ENDBRANCH  10  14
TORSDOF 4
ENDMDL
MODEL 6
REMARK VINA RESULT:      -6.6     10.946     12.910
REMARK  Name = 4842
REMARK  4 active torsions:
REMARK  status: ('A' for Active; 'I' for Inactive)
REMARK    1  A    between atoms: C_9  and  C_11
REMARK    2  A    between atoms: C_10  and  C_14
REMARK    3  A    between atoms: C_11  and  C_13
REMARK    4  A    between atoms: C_14  and  C_16
REMARK                            x       y       z     vdW  Elec       q    Type
REMARK                         _______ _______ _______ _____ _____    ______ ____
ROOT
ATOM      1  O   UNL     1      31.317 -22.487 -17.139  0.00  0.00    -0.275 OA
ATOM      2  O   UNL     1      36.265 -25.192 -12.748  0.00  0.00    -0.275 OA
ATOM      3  N   UNL     1      32.541 -23.677 -15.565  0.00  0.00    -0.276 N 
ATOM      4  N   UNL     1      35.058 -23.945 -14.292  0.00  0.00    -0.276 N 
ATOM      5  C   UNL     1      33.765 -23.676 -16.372  0.00  0.00    +0.115 C 
ATOM      6  C   UNL     1      32.640 -24.428 -14.307  0.00  0.00    +0.115 C 
ATOM      7  C   UNL     1      34.958 -23.195 -15.551  0.00  0.00    +0.115 C 
ATOM      8  C   UNL     1      33.834 -23.946 -13.486  0.00  0.00    +0.115 C 
ATOM      9  C   UNL     1      31.391 -23.058 -16.048  0.00  0.00    +0.227 C 
ATOM     10  C   UNL     1      36.208 -24.567 -13.810  0.00  0.00    +0.227 C 
ENDROOT
BRANCH   9  11
ATOM     11  C   UNL     1      30.176 -23.101 -15.155  0.00  0.00    +0.097 C 
BRANCH  11  13
ATOM     12 BR   UNL     1      27.522 -22.453 -16.003  0.00  0.00    -0.080 Br
ATOM     13  C   UNL     1      29.004 -23.714 -15.884  0.00  0.00    +0.077 C 
ENDBRANCH  11  13
ENDBRANCH   9  11
BRANCH  10  14
ATOM     14  C   UNL     1      37.445 -24.453 -14.665  0.00  0.00    +0.097 C 
BRANCH  14  16
ATOM     15 BR   UNL     1      40.098 -25.521 -14.604  0.00  0.00    -0.080 Br
ATOM     16  C   UNL     1      38.169 -25.777 -14.728  0.00  0.00    +0.077 C 
ENDBRANCH  14  16
ENDBRANCH  10  14
TORSDOF 4
ENDMDL
MODEL 7
REMARK VINA RESULT:      -6.6     11.434     12.514
REMARK  Name = 4842
REMARK  4 active torsions:
REMARK  status: ('A' for Active; 'I' for Inactive)
REMARK    1  A    between atoms: C_9  and  C_11
REMARK    2  A    between atoms: C_10  and  C_14
REMARK    3  A    between atoms: C_11  and  C_13
REMARK    4  A    between atoms: C_14  and  C_16
REMARK                            x       y       z     vdW  Elec       q    Type
REMARK                         _______ _______ _______ _____ _____    ______ ____
ROOT
ATOM      1  O   UNL     1      38.059 -23.395 -15.380  0.00  0.00    -0.275 OA
ATOM      2  O   UNL     1      31.310 -23.713 -13.048  0.00  0.00    -0.275 OA
ATOM      3  N   UNL     1      36.083 -23.421 -14.161  0.00  0.00    -0.276 N 
ATOM      4  N   UNL     1      33.271 -23.746 -14.293  0.00  0.00    -0.276 N 
ATOM      5  C   UNL     1      35.320 -22.718 -15.196  0.00  0.00    +0.115 C 
ATOM      6  C   UNL     1      35.328 -23.705 -12.933  0.00  0.00    +0.115 C 
ATOM      7  C   UNL     1      34.027 -23.462 -15.520  0.00  0.00    +0.115 C 
ATOM      8  C   UNL     1      34.035 -24.449 -13.257  0.00  0.00    +0.115 C 
ATOM      9  C   UNL     1      37.432 -23.701 -14.362  0.00  0.00    +0.227 C 
ATOM     10  C   UNL     1      31.922 -23.464 -14.090  0.00  0.00    +0.227 C 
ENDROOT
BRANCH   9  11
ATOM     11  C   UNL     1      38.143 -24.430 -13.250  0.00  0.00    +0.097 C 
BRANCH  11  13
ATOM     12 BR   UNL     1      40.373 -25.824 -14.374  0.00  0.00    -0.080 Br
ATOM     13  C   UNL     1      38.546 -25.816 -13.696  0.00  0.00    +0.077 C 
ENDBRANCH  11  13
ENDBRANCH   9  11
BRANCH  10  14
ATOM     14  C   UNL     1      31.190 -22.809 -15.235  0.00  0.00    +0.097 C 
BRANCH  14  16
ATOM     15 BR   UNL     1      28.403 -22.630 -15.850  0.00  0.00    -0.080 Br
ATOM     16  C   UNL     1      30.042 -23.674 -15.695  0.00  0.00    +0.077 C 
ENDBRANCH  14  16
ENDBRANCH  10  14
TORSDOF 4
ENDMDL
MODEL 8
REMARK VINA RESULT:      -6.4      3.681      5.512
REMARK  Name = 4842
REMARK  4 active torsions:
REMARK  status: ('A' for Active; 'I' for Inactive)
REMARK    1  A    between atoms: C_9  and  C_11
REMARK    2  A    between atoms: C_10  and  C_14
REMARK    3  A    between atoms: C_11  and  C_13
REMARK    4  A    between atoms: C_14  and  C_16
REMARK                            x       y       z     vdW  Elec       q    Type
REMARK                         _______ _______ _______ _____ _____    ______ ____
ROOT
ATOM      1  O   UNL     1      32.374 -22.116 -18.444  0.00  0.00    -0.275 OA
ATOM      2  O   UNL     1      36.865 -18.388 -22.569  0.00  0.00    -0.275 OA
ATOM      3  N   UNL     1      34.115 -21.336 -19.769  0.00  0.00    -0.276 N 
ATOM      4  N   UNL     1      35.132 -19.115 -21.206  0.00  0.00    -0.276 N 
ATOM      5  C   UNL     1      33.230 -20.585 -20.662  0.00  0.00    +0.115 C 
ATOM      6  C   UNL     1      35.534 -21.307 -20.148  0.00  0.00    +0.115 C 
ATOM      7  C   UNL     1      33.713 -19.146 -20.825  0.00  0.00    +0.115 C 
ATOM      8  C   UNL     1      36.017 -19.868 -20.311  0.00  0.00    +0.115 C 
ATOM      9  C   UNL     1      33.579 -22.058 -18.705  0.00  0.00    +0.227 C 
ATOM     10  C   UNL     1      35.668 -18.395 -22.271  0.00  0.00    +0.227 C 
ENDROOT
BRANCH   9  11
ATOM     11  C   UNL     1      34.558 -22.801 -17.831  0.00  0.00    +0.097 C 
BRANCH  11  13
ATOM     12 BR   UNL     1      35.026 -23.379 -15.069  0.00  0.00    -0.080 Br
ATOM     13  C   UNL     1      33.857 -23.388 -16.629  0.00  0.00    +0.077 C 
ENDBRANCH  11  13
ENDBRANCH   9  11
BRANCH  10  14
ATOM     14  C   UNL     1      34.698 -17.586 -23.095  0.00  0.00    +0.097 C 
BRANCH  14  16
ATOM     15 BR   UNL     1      34.427 -15.458 -21.204  0.00  0.00    -0.080 Br
ATOM     16  C   UNL     1      34.985 -16.111 -22.954  0.00  0.00    +0.077 C 
ENDBRANCH  14  16
ENDBRANCH  10  14
TORSDOF 4
ENDMDL
MODEL 9
REMARK VINA RESULT:      -6.4     11.460     13.596
REMARK  Name = 4842
REMARK  4 active torsions:
REMARK  status: ('A' for Active; 'I' for Inactive)
REMARK    1  A    between atoms: C_9  and  C_11
REMARK    2  A    between atoms: C_10  and  C_14
REMARK    3  A    between atoms: C_11  and  C_13
REMARK    4  A    between atoms: C_14  and  C_16
REMARK                            x       y       z     vdW  Elec       q    Type
REMARK                         _______ _______ _______ _____ _____    ______ ____
ROOT
ATOM      1  O   UNL     1      33.418 -23.145 -16.907  0.00  0.00    -0.275 OA
ATOM      2  O   UNL     1      37.043 -24.579 -10.917  0.00  0.00    -0.275 OA
ATOM      3  N   UNL     1      34.166 -23.864 -14.830  0.00  0.00    -0.276 N 
ATOM      4  N   UNL     1      36.310 -23.797 -12.977  0.00  0.00    -0.276 N 
ATOM      5  C   UNL     1      35.535 -24.103 -15.297  0.00  0.00    +0.115 C 
ATOM      6  C   UNL     1      33.925 -24.235 -13.429  0.00  0.00    +0.115 C 
ATOM      7  C   UNL     1      36.550 -23.426 -14.379  0.00  0.00    +0.115 C 
ATOM      8  C   UNL     1      34.940 -23.559 -12.511  0.00  0.00    +0.115 C 
ATOM      9  C   UNL     1      33.203 -23.390 -15.717  0.00  0.00    +0.227 C 
ATOM     10  C   UNL     1      37.273 -24.274 -12.090  0.00  0.00    +0.227 C 
ENDROOT
BRANCH   9  11
ATOM     11  C   UNL     1      31.821 -23.167 -15.157  0.00  0.00    +0.097 C 
BRANCH  11  13
ATOM     12 BR   UNL     1      29.991 -25.346 -14.860  0.00  0.00    -0.080 Br
ATOM     13  C   UNL     1      30.796 -23.944 -15.950  0.00  0.00    +0.077 C 
ENDBRANCH  11  13
ENDBRANCH   9  11
BRANCH  10  14
ATOM     14  C   UNL     1      38.674 -24.418 -12.630  0.00  0.00    +0.097 C 
BRANCH  14  16
ATOM     15 BR   UNL     1      40.215 -25.688 -14.678  0.00  0.00    -0.080 Br
ATOM     16  C   UNL     1      38.854 -25.767 -13.284  0.00  0.00    +0.077 C 
ENDBRANCH  14  16
ENDBRANCH  10  14
TORSDOF 4
ENDMDL
