MODEL 1
REMARK VINA RESULT:      -8.7      0.000      0.000
REMARK  Name = 17754118
REMARK  6 active torsions:
REMARK  status: ('A' for Active; 'I' for Inactive)
REMARK    1  A    between atoms: N_2  and  C_15
REMARK    2  A    between atoms: C_4  and  C_7
REMARK    3  A    between atoms: C_6  and  C_18
REMARK    4  A    between atoms: C_7  and  C_9
REMARK    5  A    between atoms: C_15  and  C_17
REMARK    6  A    between atoms: C_18  and  N_19
REMARK                            x       y       z     vdW  Elec       q    Type
REMARK                         _______ _______ _______ _____ _____    ______ ____
ROOT
ATOM      1  O   UNL     1      34.237 -17.972 -25.381  0.00  0.00    -0.272 OA
ATOM      2  N   UNL     1      34.179 -16.191 -23.867  0.00  0.00    -0.240 N 
ATOM      3  N   UNL     1      35.421 -17.013 -22.180  0.00  0.00    -0.255 NA
ATOM      4  C   UNL     1      35.397 -18.039 -23.248  0.00  0.00    +0.181 C 
ATOM      5  C   UNL     1      34.534 -17.429 -24.328  0.00  0.00    +0.253 C 
ATOM      6  C   UNL     1      34.715 -16.029 -22.643  0.00  0.00    +0.087 C 
ENDROOT
BRANCH   4   7
ATOM      7  C   UNL     1      34.804 -19.326 -22.710  0.00  0.00    +0.042 C 
BRANCH   7   9
ATOM      8  O   UNL     1      34.532 -22.700 -18.742  0.00  0.00    -0.287 OA
ATOM      9  C   UNL     1      34.783 -19.346 -21.190  0.00  0.00    +0.047 C 
ATOM     10  C   UNL     1      33.482 -19.924 -20.698  0.00  0.00    -0.019 C 
ATOM     11  C   UNL     1      35.983 -20.086 -20.665  0.00  0.00    -0.019 C 
ATOM     12  C   UNL     1      33.387 -20.998 -19.907  0.00  0.00    +0.038 C 
ATOM     13  C   UNL     1      35.918 -21.163 -19.874  0.00  0.00    +0.038 C 
ATOM     14  C   UNL     1      34.606 -21.703 -19.452  0.00  0.00    +0.195 C 
ENDBRANCH   7   9
ENDBRANCH   4   7
BRANCH   2  15
ATOM     15  C   UNL     1      33.363 -15.220 -24.576  0.00  0.00    +0.171 C 
BRANCH  15  17
ATOM     16  O   UNL     1      33.309 -15.065 -26.969  0.00  0.00    -0.286 OA
ATOM     17  C   UNL     1      33.967 -14.995 -25.934  0.00  0.00    +0.229 C 
ENDBRANCH  15  17
ENDBRANCH   2  15
BRANCH   6  18
ATOM     18  C   UNL     1      34.490 -14.773 -21.866  0.00  0.00    -0.023 C 
BRANCH  18  19
ATOM     19  N   UNL     1      34.483 -15.143 -20.464  0.00  0.00    +0.385 N 
ATOM     20  H   UNL     1      34.295 -14.317 -19.895  0.00  0.00    -0.089 HD
ATOM     21  H   UNL     1      35.391 -15.531 -20.211  0.00  0.00    -0.089 HD
ATOM     22  H   UNL     1      33.757 -15.840 -20.300  0.00  0.00    -0.089 HD
ENDBRANCH  18  19
ENDBRANCH   6  18
TORSDOF 6
ENDMDL
MODEL 2
REMARK VINA RESULT:      -8.6      1.189      1.254
REMARK  Name = 17754118
REMARK  6 active torsions:
REMARK  status: ('A' for Active; 'I' for Inactive)
REMARK    1  A    between atoms: N_2  and  C_15
REMARK    2  A    between atoms: C_4  and  C_7
REMARK    3  A    between atoms: C_6  and  C_18
REMARK    4  A    between atoms: C_7  and  C_9
REMARK    5  A    between atoms: C_15  and  C_17
REMARK    6  A    between atoms: C_18  and  N_19
REMARK                            x       y       z     vdW  Elec       q    Type
REMARK                         _______ _______ _______ _____ _____    ______ ____
ROOT
ATOM      1  O   UNL     1      34.532 -17.235 -25.921  0.00  0.00    -0.272 OA
ATOM      2  N   UNL     1      33.765 -15.506 -24.546  0.00  0.00    -0.240 N 
ATOM      3  N   UNL     1      34.828 -15.979 -22.619  0.00  0.00    -0.255 NA
ATOM      4  C   UNL     1      35.252 -16.991 -23.614  0.00  0.00    +0.181 C 
ATOM      5  C   UNL     1      34.487 -16.624 -24.865  0.00  0.00    +0.253 C 
ATOM      6  C   UNL     1      34.007 -15.204 -23.257  0.00  0.00    +0.087 C 
ENDROOT
BRANCH   4   7
ATOM      7  C   UNL     1      34.894 -18.379 -23.119  0.00  0.00    +0.042 C 
BRANCH   7   9
ATOM      8  O   UNL     1      35.267 -21.888 -19.279  0.00  0.00    -0.287 OA
ATOM      9  C   UNL     1      34.901 -18.456 -21.601  0.00  0.00    +0.047 C 
ATOM     10  C   UNL     1      33.726 -19.265 -21.119  0.00  0.00    -0.019 C 
ATOM     11  C   UNL     1      36.218 -18.996 -21.116  0.00  0.00    -0.019 C 
ATOM     12  C   UNL     1      33.829 -20.368 -20.368  0.00  0.00    +0.038 C 
ATOM     13  C   UNL     1      36.351 -20.097 -20.365  0.00  0.00    +0.038 C 
ATOM     14  C   UNL     1      35.158 -20.869 -19.951  0.00  0.00    +0.195 C 
ENDBRANCH   7   9
ENDBRANCH   4   7
BRANCH   2  15
ATOM     15  C   UNL     1      32.890 -14.774 -25.444  0.00  0.00    +0.171 C 
BRANCH  15  17
ATOM     16  O   UNL     1      33.706 -13.870 -27.510  0.00  0.00    -0.286 OA
ATOM     17  C   UNL     1      33.732 -13.854 -26.282  0.00  0.00    +0.229 C 
ENDBRANCH  15  17
ENDBRANCH   2  15
BRANCH   6  18
ATOM     18  C   UNL     1      33.345 -14.033 -22.605  0.00  0.00    -0.023 C 
BRANCH  18  19
ATOM     19  N   UNL     1      32.364 -14.568 -21.680  0.00  0.00    +0.385 N 
ATOM     20  H   UNL     1      32.044 -15.478 -22.013  0.00  0.00    -0.089 HD
ATOM     21  H   UNL     1      31.571 -13.930 -21.620  0.00  0.00    -0.089 HD
ATOM     22  H   UNL     1      32.788 -14.672 -20.758  0.00  0.00    -0.089 HD
ENDBRANCH  18  19
ENDBRANCH   6  18
TORSDOF 6
ENDMDL
MODEL 3
REMARK VINA RESULT:      -8.4      1.248      1.985
REMARK  Name = 17754118
REMARK  6 active torsions:
REMARK  status: ('A' for Active; 'I' for Inactive)
REMARK    1  A    between atoms: N_2  and  C_15
REMARK    2  A    between atoms: C_4  and  C_7
REMARK    3  A    between atoms: C_6  and  C_18
REMARK    4  A    between atoms: C_7  and  C_9
REMARK    5  A    between atoms: C_15  and  C_17
REMARK    6  A    between atoms: C_18  and  N_19
REMARK                            x       y       z     vdW  Elec       q    Type
REMARK                         _______ _______ _______ _____ _____    ______ ____
ROOT
ATOM      1  O   UNL     1      35.473 -18.818 -23.533  0.00  0.00    -0.272 OA
ATOM      2  N   UNL     1      35.062 -16.639 -22.791  0.00  0.00    -0.240 N 
ATOM      3  N   UNL     1      34.842 -16.968 -20.575  0.00  0.00    -0.255 NA
ATOM      4  C   UNL     1      35.145 -18.282 -21.186  0.00  0.00    +0.181 C 
ATOM      5  C   UNL     1      35.257 -17.987 -22.664  0.00  0.00    +0.253 C 
ATOM      6  C   UNL     1      34.829 -16.132 -21.566  0.00  0.00    +0.087 C 
ENDROOT
BRANCH   4   7
ATOM      7  C   UNL     1      34.024 -19.258 -20.887  0.00  0.00    +0.042 C 
BRANCH   7   9
ATOM      8  O   UNL     1      35.682 -22.620 -17.260  0.00  0.00    -0.287 OA
ATOM      9  C   UNL     1      34.536 -20.684 -20.760  0.00  0.00    +0.047 C 
ATOM     10  C   UNL     1      35.945 -20.682 -20.229  0.00  0.00    -0.019 C 
ATOM     11  C   UNL     1      33.597 -21.498 -19.912  0.00  0.00    -0.019 C 
ATOM     12  C   UNL     1      36.328 -21.304 -19.108  0.00  0.00    +0.038 C 
ATOM     13  C   UNL     1      33.952 -22.129 -18.787  0.00  0.00    +0.038 C 
ATOM     14  C   UNL     1      35.348 -22.061 -18.299  0.00  0.00    +0.195 C 
ENDBRANCH   7   9
ENDBRANCH   4   7
BRANCH   2  15
ATOM     15  C   UNL     1      35.100 -15.887 -24.033  0.00  0.00    +0.171 C 
BRANCH  15  17
ATOM     16  O   UNL     1      33.771 -16.772 -25.822  0.00  0.00    -0.286 OA
ATOM     17  C   UNL     1      33.816 -16.132 -24.775  0.00  0.00    +0.229 C 
ENDBRANCH  15  17
ENDBRANCH   2  15
BRANCH   6  18
ATOM     18  C   UNL     1      34.560 -14.674 -21.377  0.00  0.00    -0.023 C 
BRANCH  18  19
ATOM     19  N   UNL     1      33.256 -14.566 -20.751  0.00  0.00    +0.385 N 
ATOM     20  H   UNL     1      33.280 -13.831 -20.043  0.00  0.00    -0.089 HD
ATOM     21  H   UNL     1      33.015 -15.454 -20.313  0.00  0.00    -0.089 HD
ATOM     22  H   UNL     1      32.558 -14.334 -21.458  0.00  0.00    -0.089 HD
ENDBRANCH  18  19
ENDBRANCH   6  18
TORSDOF 6
ENDMDL
MODEL 4
REMARK VINA RESULT:      -8.3      2.449      6.823
REMARK  Name = 17754118
REMARK  6 active torsions:
REMARK  status: ('A' for Active; 'I' for Inactive)
REMARK    1  A    between atoms: N_2  and  C_15
REMARK    2  A    between atoms: C_4  and  C_7
REMARK    3  A    between atoms: C_6  and  C_18
REMARK    4  A    between atoms: C_7  and  C_9
REMARK    5  A    between atoms: C_15  and  C_17
REMARK    6  A    between atoms: C_18  and  N_19
REMARK                            x       y       z     vdW  Elec       q    Type
REMARK                         _______ _______ _______ _____ _____    ______ ____
ROOT
ATOM      1  O   UNL     1      32.393 -20.676 -20.811  0.00  0.00    -0.272 OA
ATOM      2  N   UNL     1      34.380 -21.425 -19.835  0.00  0.00    -0.240 N 
ATOM      3  N   UNL     1      35.787 -19.752 -20.371  0.00  0.00    -0.255 NA
ATOM      4  C   UNL     1      34.453 -19.392 -20.904  0.00  0.00    +0.181 C 
ATOM      5  C   UNL     1      33.575 -20.564 -20.527  0.00  0.00    +0.253 C 
ATOM      6  C   UNL     1      35.618 -20.899 -19.791  0.00  0.00    +0.087 C 
ENDROOT
BRANCH   4   7
ATOM      7  C   UNL     1      34.534 -19.208 -22.407  0.00  0.00    +0.042 C 
BRANCH   7   9
ATOM      8  O   UNL     1      33.365 -14.550 -24.442  0.00  0.00    -0.287 OA
ATOM      9  C   UNL     1      35.200 -17.892 -22.778  0.00  0.00    +0.047 C 
ATOM     10  C   UNL     1      35.086 -17.655 -24.261  0.00  0.00    -0.019 C 
ATOM     11  C   UNL     1      34.618 -16.769 -21.963  0.00  0.00    -0.019 C 
ATOM     12  C   UNL     1      34.503 -16.583 -24.809  0.00  0.00    +0.038 C 
ATOM     13  C   UNL     1      34.029 -15.687 -22.485  0.00  0.00    +0.038 C 
ATOM     14  C   UNL     1      33.918 -15.528 -23.952  0.00  0.00    +0.195 C 
ENDBRANCH   7   9
ENDBRANCH   4   7
BRANCH   2  15
ATOM     15  C   UNL     1      33.969 -22.689 -19.249  0.00  0.00    +0.171 C 
BRANCH  15  17
ATOM     16  O   UNL     1      31.965 -22.464 -17.951  0.00  0.00    -0.286 OA
ATOM     17  C   UNL     1      33.191 -22.401 -17.996  0.00  0.00    +0.229 C 
ENDBRANCH  15  17
ENDBRANCH   2  15
BRANCH   6  18
ATOM     18  C   UNL     1      36.736 -21.622 -19.110  0.00  0.00    -0.023 C 
BRANCH  18  19
ATOM     19  N   UNL     1      36.861 -21.046 -17.785  0.00  0.00    +0.385 N 
ATOM     20  H   UNL     1      36.006 -21.222 -17.256  0.00  0.00    -0.089 HD
ATOM     21  H   UNL     1      37.011 -20.041 -17.864  0.00  0.00    -0.089 HD
ATOM     22  H   UNL     1      37.653 -21.472 -17.303  0.00  0.00    -0.089 HD
ENDBRANCH  18  19
ENDBRANCH   6  18
TORSDOF 6
ENDMDL
MODEL 5
REMARK VINA RESULT:      -8.3      1.864      2.823
REMARK  Name = 17754118
REMARK  6 active torsions:
REMARK  status: ('A' for Active; 'I' for Inactive)
REMARK    1  A    between atoms: N_2  and  C_15
REMARK    2  A    between atoms: C_4  and  C_7
REMARK    3  A    between atoms: C_6  and  C_18
REMARK    4  A    between atoms: C_7  and  C_9
REMARK    5  A    between atoms: C_15  and  C_17
REMARK    6  A    between atoms: C_18  and  N_19
REMARK                            x       y       z     vdW  Elec       q    Type
REMARK                         _______ _______ _______ _____ _____    ______ ____
ROOT
ATOM      1  O   UNL     1      34.250 -15.870 -20.300  0.00  0.00    -0.272 OA
ATOM      2  N   UNL     1      34.533 -15.821 -22.620  0.00  0.00    -0.240 N 
ATOM      3  N   UNL     1      34.633 -18.020 -23.093  0.00  0.00    -0.255 NA
ATOM      4  C   UNL     1      34.417 -17.894 -21.633  0.00  0.00    +0.181 C 
ATOM      5  C   UNL     1      34.382 -16.402 -21.391  0.00  0.00    +0.253 C 
ATOM      6  C   UNL     1      34.673 -16.801 -23.533  0.00  0.00    +0.087 C 
ENDROOT
BRANCH   4   7
ATOM      7  C   UNL     1      35.555 -18.561 -20.886  0.00  0.00    +0.042 C 
BRANCH   7   9
ATOM      8  O   UNL     1      34.712 -22.690 -17.812  0.00  0.00    -0.287 OA
ATOM      9  C   UNL     1      35.467 -20.077 -20.960  0.00  0.00    +0.047 C 
ATOM     10  C   UNL     1      36.547 -20.700 -20.117  0.00  0.00    -0.019 C 
ATOM     11  C   UNL     1      34.088 -20.535 -20.571  0.00  0.00    -0.019 C 
ATOM     12  C   UNL     1      36.319 -21.546 -19.106  0.00  0.00    +0.038 C 
ATOM     13  C   UNL     1      33.830 -21.378 -19.563  0.00  0.00    +0.038 C 
ATOM     14  C   UNL     1      34.935 -21.931 -18.749  0.00  0.00    +0.195 C 
ENDBRANCH   7   9
ENDBRANCH   4   7
BRANCH   2  15
ATOM     15  C   UNL     1      34.540 -14.395 -22.892  0.00  0.00    +0.171 C 
BRANCH  15  17
ATOM     16  O   UNL     1      32.550 -13.828 -24.106  0.00  0.00    -0.286 OA
ATOM     17  C   UNL     1      33.117 -13.929 -23.020  0.00  0.00    +0.229 C 
ENDBRANCH  15  17
ENDBRANCH   2  15
BRANCH   6  18
ATOM     18  C   UNL     1      34.873 -16.480 -24.979  0.00  0.00    -0.023 C 
BRANCH  18  19
ATOM     19  N   UNL     1      33.555 -16.405 -25.578  0.00  0.00    +0.385 N 
ATOM     20  H   UNL     1      32.866 -16.790 -24.932  0.00  0.00    -0.089 HD
ATOM     21  H   UNL     1      33.545 -16.940 -26.445  0.00  0.00    -0.089 HD
ATOM     22  H   UNL     1      33.327 -15.431 -25.776  0.00  0.00    -0.089 HD
ENDBRANCH  18  19
ENDBRANCH   6  18
TORSDOF 6
ENDMDL
MODEL 6
REMARK VINA RESULT:      -8.3      9.753     11.992
REMARK  Name = 17754118
REMARK  6 active torsions:
REMARK  status: ('A' for Active; 'I' for Inactive)
REMARK    1  A    between atoms: N_2  and  C_15
REMARK    2  A    between atoms: C_4  and  C_7
REMARK    3  A    between atoms: C_6  and  C_18
REMARK    4  A    between atoms: C_7  and  C_9
REMARK    5  A    between atoms: C_15  and  C_17
REMARK    6  A    between atoms: C_18  and  N_19
REMARK                            x       y       z     vdW  Elec       q    Type
REMARK                         _______ _______ _______ _____ _____    ______ ____
ROOT
ATOM      1  O   UNL     1      34.564 -23.750 -11.684  0.00  0.00    -0.272 OA
ATOM      2  N   UNL     1      36.081 -24.835 -13.094  0.00  0.00    -0.240 N 
ATOM      3  N   UNL     1      34.959 -24.804 -15.046  0.00  0.00    -0.255 NA
ATOM      4  C   UNL     1      34.119 -24.106 -14.046  0.00  0.00    +0.181 C 
ATOM      5  C   UNL     1      34.922 -24.186 -12.767  0.00  0.00    +0.253 C 
ATOM      6  C   UNL     1      36.027 -25.157 -14.400  0.00  0.00    +0.087 C 
ENDROOT
BRANCH   4   7
ATOM      7  C   UNL     1      32.782 -24.809 -13.918  0.00  0.00    +0.042 C 
BRANCH   7   9
ATOM      8  O   UNL     1      28.634 -23.799 -16.914  0.00  0.00    -0.287 OA
ATOM      9  C   UNL     1      31.620 -23.834 -14.017  0.00  0.00    +0.047 C 
ATOM     10  C   UNL     1      31.711 -23.050 -15.300  0.00  0.00    -0.019 C 
ATOM     11  C   UNL     1      30.315 -24.568 -13.876  0.00  0.00    -0.019 C 
ATOM     12  C   UNL     1      30.757 -23.025 -16.237  0.00  0.00    +0.038 C 
ATOM     13  C   UNL     1      29.344 -24.563 -14.798  0.00  0.00    +0.038 C 
ATOM     14  C   UNL     1      29.508 -23.798 -16.054  0.00  0.00    +0.195 C 
ENDBRANCH   7   9
ENDBRANCH   4   7
BRANCH   2  15
ATOM     15  C   UNL     1      37.178 -25.126 -12.189  0.00  0.00    +0.171 C 
BRANCH  15  17
ATOM     16  O   UNL     1      37.830 -22.990 -11.315  0.00  0.00    -0.286 OA
ATOM     17  C   UNL     1      38.054 -23.909 -12.099  0.00  0.00    +0.229 C 
ENDBRANCH  15  17
ENDBRANCH   2  15
BRANCH   6  18
ATOM     18  C   UNL     1      37.149 -25.895 -15.056  0.00  0.00    -0.023 C 
BRANCH  18  19
ATOM     19  N   UNL     1      36.581 -27.103 -15.624  0.00  0.00    +0.385 N 
ATOM     20  H   UNL     1      36.393 -27.773 -14.878  0.00  0.00    -0.089 HD
ATOM     21  H   UNL     1      37.241 -27.508 -16.288  0.00  0.00    -0.089 HD
ATOM     22  H   UNL     1      35.711 -26.875 -16.105  0.00  0.00    -0.089 HD
ENDBRANCH  18  19
ENDBRANCH   6  18
TORSDOF 6
ENDMDL
MODEL 7
REMARK VINA RESULT:      -8.2     10.311     11.615
REMARK  Name = 17754118
REMARK  6 active torsions:
REMARK  status: ('A' for Active; 'I' for Inactive)
REMARK    1  A    between atoms: N_2  and  C_15
REMARK    2  A    between atoms: C_4  and  C_7
REMARK    3  A    between atoms: C_6  and  C_18
REMARK    4  A    between atoms: C_7  and  C_9
REMARK    5  A    between atoms: C_15  and  C_17
REMARK    6  A    between atoms: C_18  and  N_19
REMARK                            x       y       z     vdW  Elec       q    Type
REMARK                         _______ _______ _______ _____ _____    ______ ____
ROOT
ATOM      1  O   UNL     1      35.744 -25.513 -15.770  0.00  0.00    -0.272 OA
ATOM      2  N   UNL     1      36.880 -24.398 -14.058  0.00  0.00    -0.240 N 
ATOM      3  N   UNL     1      35.168 -23.765 -12.740  0.00  0.00    -0.255 NA
ATOM      4  C   UNL     1      34.593 -24.527 -13.872  0.00  0.00    +0.181 C 
ATOM      5  C   UNL     1      35.790 -24.897 -14.717  0.00  0.00    +0.253 C 
ATOM      6  C   UNL     1      36.448 -23.767 -12.950  0.00  0.00    +0.087 C 
ENDROOT
BRANCH   4   7
ATOM      7  C   UNL     1      33.613 -23.655 -14.632  0.00  0.00    +0.042 C 
BRANCH   7   9
ATOM      8  O   UNL     1      28.591 -24.589 -15.691  0.00  0.00    -0.287 OA
ATOM      9  C   UNL     1      32.249 -23.622 -13.961  0.00  0.00    +0.047 C 
ATOM     10  C   UNL     1      31.359 -22.618 -14.646  0.00  0.00    -0.019 C 
ATOM     11  C   UNL     1      31.653 -25.002 -13.931  0.00  0.00    -0.019 C 
ATOM     12  C   UNL     1      30.179 -22.915 -15.202  0.00  0.00    +0.038 C 
ATOM     13  C   UNL     1      30.476 -25.327 -14.479  0.00  0.00    +0.038 C 
ATOM     14  C   UNL     1      29.663 -24.301 -15.170  0.00  0.00    +0.195 C 
ENDBRANCH   7   9
ENDBRANCH   4   7
BRANCH   2  15
ATOM     15  C   UNL     1      38.264 -24.528 -14.480  0.00  0.00    +0.171 C 
BRANCH  15  17
ATOM     16  O   UNL     1      38.702 -26.876 -14.693  0.00  0.00    -0.286 OA
ATOM     17  C   UNL     1      38.781 -25.858 -14.010  0.00  0.00    +0.229 C 
ENDBRANCH  15  17
ENDBRANCH   2  15
BRANCH   6  18
ATOM     18  C   UNL     1      37.410 -23.099 -12.022  0.00  0.00    -0.023 C 
BRANCH  18  19
ATOM     19  N   UNL     1      36.972 -23.403 -10.673  0.00  0.00    +0.385 N 
ATOM     20  H   UNL     1      35.952 -23.439 -10.648  0.00  0.00    -0.089 HD
ATOM     21  H   UNL     1      37.303 -22.678 -10.038  0.00  0.00    -0.089 HD
ATOM     22  H   UNL     1      37.351 -24.305 -10.388  0.00  0.00    -0.089 HD
ENDBRANCH  18  19
ENDBRANCH   6  18
TORSDOF 6
ENDMDL
MODEL 8
REMARK VINA RESULT:      -8.0      9.588     11.127
REMARK  Name = 17754118
REMARK  6 active torsions:
REMARK  status: ('A' for Active; 'I' for Inactive)
REMARK    1  A    between atoms: N_2  and  C_15
REMARK    2  A    between atoms: C_4  and  C_7
REMARK    3  A    between atoms: C_6  and  C_18
REMARK    4  A    between atoms: C_7  and  C_9
REMARK    5  A    between atoms: C_15  and  C_17
REMARK    6  A    between atoms: C_18  and  N_19
REMARK                            x       y       z     vdW  Elec       q    Type
REMARK                         _______ _______ _______ _____ _____    ______ ____
ROOT
ATOM      1  O   UNL     1      34.328 -23.658 -16.574  0.00  0.00    -0.272 OA
ATOM      2  N   UNL     1      35.262 -23.734 -14.432  0.00  0.00    -0.240 N 
ATOM      3  N   UNL     1      33.428 -24.055 -13.168  0.00  0.00    -0.255 NA
ATOM      4  C   UNL     1      32.987 -24.019 -14.581  0.00  0.00    +0.181 C 
ATOM      5  C   UNL     1      34.259 -23.781 -15.361  0.00  0.00    +0.253 C 
ATOM      6  C   UNL     1      34.713 -23.893 -13.214  0.00  0.00    +0.087 C 
ENDROOT
BRANCH   4   7
ATOM      7  C   UNL     1      31.985 -22.898 -14.779  0.00  0.00    +0.042 C 
BRANCH   7   9
ATOM      8  O   UNL     1      27.718 -24.271 -17.445  0.00  0.00    -0.287 OA
ATOM      9  C   UNL     1      30.559 -23.368 -14.543  0.00  0.00    +0.047 C 
ATOM     10  C   UNL     1      29.585 -22.362 -15.098  0.00  0.00    -0.019 C 
ATOM     11  C   UNL     1      30.365 -24.744 -15.119  0.00  0.00    -0.019 C 
ATOM     12  C   UNL     1      28.663 -22.641 -16.027  0.00  0.00    +0.038 C 
ATOM     13  C   UNL     1      29.453 -25.050 -16.050  0.00  0.00    +0.038 C 
ATOM     14  C   UNL     1      28.546 -24.008 -16.580  0.00  0.00    +0.195 C 
ENDBRANCH   7   9
ENDBRANCH   4   7
BRANCH   2  15
ATOM     15  C   UNL     1      36.675 -23.546 -14.713  0.00  0.00    +0.171 C 
BRANCH  15  17
ATOM     16  O   UNL     1      37.770 -25.615 -14.191  0.00  0.00    -0.286 OA
ATOM     17  C   UNL     1      37.275 -24.883 -15.045  0.00  0.00    +0.229 C 
ENDBRANCH  15  17
ENDBRANCH   2  15
BRANCH   6  18
ATOM     18  C   UNL     1      35.559 -23.871 -11.981  0.00  0.00    -0.023 C 
BRANCH  18  19
ATOM     19  N   UNL     1      35.933 -25.245 -11.705  0.00  0.00    +0.385 N 
ATOM     20  H   UNL     1      36.882 -25.412 -12.041  0.00  0.00    -0.089 HD
ATOM     21  H   UNL     1      35.287 -25.874 -12.181  0.00  0.00    -0.089 HD
ATOM     22  H   UNL     1      35.892 -25.412 -10.700  0.00  0.00    -0.089 HD
ENDBRANCH  18  19
ENDBRANCH   6  18
TORSDOF 6
ENDMDL
MODEL 9
REMARK VINA RESULT:      -8.0      5.223      9.263
REMARK  Name = 17754118
REMARK  6 active torsions:
REMARK  status: ('A' for Active; 'I' for Inactive)
REMARK    1  A    between atoms: N_2  and  C_15
REMARK    2  A    between atoms: C_4  and  C_7
REMARK    3  A    between atoms: C_6  and  C_18
REMARK    4  A    between atoms: C_7  and  C_9
REMARK    5  A    between atoms: C_15  and  C_17
REMARK    6  A    between atoms: C_18  and  N_19
REMARK                            x       y       z     vdW  Elec       q    Type
REMARK                         _______ _______ _______ _____ _____    ______ ____
ROOT
ATOM      1  O   UNL     1      34.602 -23.893 -15.480  0.00  0.00    -0.272 OA
ATOM      2  N   UNL     1      32.317 -23.402 -15.462  0.00  0.00    -0.240 N 
ATOM      3  N   UNL     1      31.968 -22.874 -17.622  0.00  0.00    -0.255 NA
ATOM      4  C   UNL     1      33.394 -23.248 -17.486  0.00  0.00    +0.181 C 
ATOM      5  C   UNL     1      33.556 -23.566 -16.017  0.00  0.00    +0.253 C 
ATOM      6  C   UNL     1      31.471 -23.006 -16.431  0.00  0.00    +0.087 C 
ENDROOT
BRANCH   4   7
ATOM      7  C   UNL     1      34.272 -22.088 -17.913  0.00  0.00    +0.042 C 
BRANCH   7   9
ATOM      8  O   UNL     1      35.192 -18.522 -21.607  0.00  0.00    -0.287 OA
ATOM      9  C   UNL     1      34.343 -21.962 -19.426  0.00  0.00    +0.047 C 
ATOM     10  C   UNL     1      33.290 -21.004 -19.916  0.00  0.00    -0.019 C 
ATOM     11  C   UNL     1      35.732 -21.565 -19.848  0.00  0.00    -0.019 C 
ATOM     12  C   UNL     1      33.548 -19.898 -20.622  0.00  0.00    +0.038 C 
ATOM     13  C   UNL     1      36.019 -20.464 -20.553  0.00  0.00    +0.038 C 
ATOM     14  C   UNL     1      34.940 -19.543 -20.976  0.00  0.00    +0.195 C 
ENDBRANCH   7   9
ENDBRANCH   4   7
BRANCH   2  15
ATOM     15  C   UNL     1      31.974 -23.618 -14.067  0.00  0.00    +0.171 C 
BRANCH  15  17
ATOM     16  O   UNL     1      30.726 -25.656 -14.269  0.00  0.00    -0.286 OA
ATOM     17  C   UNL     1      31.735 -25.087 -13.859  0.00  0.00    +0.229 C 
ENDBRANCH  15  17
ENDBRANCH   2  15
BRANCH   6  18
ATOM     18  C   UNL     1      30.034 -22.726 -16.130  0.00  0.00    -0.023 C 
BRANCH  18  19
ATOM     19  N   UNL     1      29.301 -23.945 -16.416  0.00  0.00    +0.385 N 
ATOM     20  H   UNL     1      29.410 -24.596 -15.638  0.00  0.00    -0.089 HD
ATOM     21  H   UNL     1      29.667 -24.368 -17.268  0.00  0.00    -0.089 HD
ATOM     22  H   UNL     1      28.313 -23.725 -16.541  0.00  0.00    -0.089 HD
ENDBRANCH  18  19
ENDBRANCH   6  18
TORSDOF 6
ENDMDL
