MODEL 1
REMARK VINA RESULT:      -6.1      0.000      0.000
REMARK  Name = 36
REMARK  7 active torsions:
REMARK  status: ('A' for Active; 'I' for Inactive)
REMARK    1  A    between atoms: C_1  and  C_2
REMARK    2  A    between atoms: C_1  and  C_6
REMARK    3  A    between atoms: C_1  and  C_9
REMARK    4  A    between atoms: C_6  and  O_7
REMARK    5  A    between atoms: C_9  and  O_10
REMARK    6  A    between atoms: C_9  and  C_13
REMARK    7  A    between atoms: C_13  and  O_14
REMARK                            x       y       z     vdW  Elec       q    Type
REMARK                         _______ _______ _______ _____ _____    ______ ____
ROOT
ATOM      1  C   UNL     1      38.157 -24.575 -14.142  0.00  0.00    +0.137 C 
ENDROOT
BRANCH   1   2
ATOM      2  C   UNL     1      37.176 -24.478 -12.941  0.00  0.00    +0.014 C 
ATOM      3  C   UNL     1      37.046 -25.803 -12.184  0.00  0.00    +0.001 C 
ATOM      4  C   UNL     1      37.623 -23.393 -11.948  0.00  0.00    +0.001 C 
ENDBRANCH   1   2
BRANCH   1   6
ATOM      5  O   UNL     1      36.409 -23.798 -15.637  0.00  0.00    -0.250 OA
ATOM      6  C   UNL     1      37.602 -23.843 -15.360  0.00  0.00    +0.316 C 
BRANCH   6   7
ATOM      7  O   UNL     1      38.557 -23.245 -16.116  0.00  0.00    -0.480 OA
ATOM      8  H   UNL     1      38.500 -22.330 -16.306  0.00  0.00    +0.295 HD
ENDBRANCH   6   7
ENDBRANCH   1   6
BRANCH   1   9
ATOM      9  C   UNL     1      38.577 -25.999 -14.580  0.00  0.00    +0.220 C 
BRANCH   9  10
ATOM     10  O   UNL     1      37.814 -26.407 -15.698  0.00  0.00    -0.374 OA
ATOM     11  H   UNL     1      37.004 -26.847 -15.393  0.00  0.00    +0.211 HD
ENDBRANCH   9  10
BRANCH   9  13
ATOM     12  O   UNL     1      40.883 -26.379 -13.929  0.00  0.00    -0.248 OA
ATOM     13  C   UNL     1      40.080 -26.095 -14.810  0.00  0.00    +0.342 C 
BRANCH  13  14
ATOM     14  O   UNL     1      40.456 -25.824 -16.083  0.00  0.00    -0.479 OA
ATOM     15  H   UNL     1      41.077 -26.377 -16.516  0.00  0.00    +0.295 HD
ENDBRANCH  13  14
ENDBRANCH   9  13
ENDBRANCH   1   9
TORSDOF 7
ENDMDL
MODEL 2
REMARK VINA RESULT:      -6.0      2.466      3.884
REMARK  Name = 36
REMARK  7 active torsions:
REMARK  status: ('A' for Active; 'I' for Inactive)
REMARK    1  A    between atoms: C_1  and  C_2
REMARK    2  A    between atoms: C_1  and  C_6
REMARK    3  A    between atoms: C_1  and  C_9
REMARK    4  A    between atoms: C_6  and  O_7
REMARK    5  A    between atoms: C_9  and  O_10
REMARK    6  A    between atoms: C_9  and  C_13
REMARK    7  A    between atoms: C_13  and  O_14
REMARK                            x       y       z     vdW  Elec       q    Type
REMARK                         _______ _______ _______ _____ _____    ______ ____
ROOT
ATOM      1  C   UNL     1      37.310 -25.094 -14.069  0.00  0.00    +0.137 C 
ENDROOT
BRANCH   1   2
ATOM      2  C   UNL     1      36.536 -24.171 -15.051  0.00  0.00    +0.014 C 
ATOM      3  C   UNL     1      35.281 -23.564 -14.415  0.00  0.00    +0.001 C 
ATOM      4  C   UNL     1      37.429 -23.025 -15.554  0.00  0.00    +0.001 C 
ENDBRANCH   1   2
BRANCH   1   6
ATOM      5  O   UNL     1      38.407 -27.184 -14.638  0.00  0.00    -0.250 OA
ATOM      6  C   UNL     1      37.376 -26.523 -14.600  0.00  0.00    +0.316 C 
BRANCH   6   7
ATOM      7  O   UNL     1      36.181 -26.997 -15.033  0.00  0.00    -0.480 OA
ATOM      8  H   UNL     1      35.743 -27.672 -14.553  0.00  0.00    +0.295 HD
ENDBRANCH   6   7
ENDBRANCH   1   6
BRANCH   1   9
ATOM      9  C   UNL     1      36.795 -25.141 -12.611  0.00  0.00    +0.220 C 
BRANCH   9  10
ATOM     10  O   UNL     1      36.808 -26.472 -12.134  0.00  0.00    -0.374 OA
ATOM     11  H   UNL     1      36.778 -27.085 -12.886  0.00  0.00    +0.211 HD
ENDBRANCH   9  10
BRANCH   9  13
ATOM     12  O   UNL     1      38.682 -23.757 -11.970  0.00  0.00    -0.248 OA
ATOM     13  C   UNL     1      37.559 -24.174 -11.714  0.00  0.00    +0.342 C 
BRANCH  13  14
ATOM     14  O   UNL     1      36.886 -23.821 -10.592  0.00  0.00    -0.479 OA
ATOM     15  H   UNL     1      35.960 -23.963 -10.537  0.00  0.00    +0.295 HD
ENDBRANCH  13  14
ENDBRANCH   9  13
ENDBRANCH   1   9
TORSDOF 7
ENDMDL
MODEL 3
REMARK VINA RESULT:      -5.8      1.805      2.154
REMARK  Name = 36
REMARK  7 active torsions:
REMARK  status: ('A' for Active; 'I' for Inactive)
REMARK    1  A    between atoms: C_1  and  C_2
REMARK    2  A    between atoms: C_1  and  C_6
REMARK    3  A    between atoms: C_1  and  C_9
REMARK    4  A    between atoms: C_6  and  O_7
REMARK    5  A    between atoms: C_9  and  O_10
REMARK    6  A    between atoms: C_9  and  C_13
REMARK    7  A    between atoms: C_13  and  O_14
REMARK                            x       y       z     vdW  Elec       q    Type
REMARK                         _______ _______ _______ _____ _____    ______ ____
ROOT
ATOM      1  C   UNL     1      37.102 -24.383 -14.122  0.00  0.00    +0.137 C 
ENDROOT
BRANCH   1   2
ATOM      2  C   UNL     1      36.435 -23.623 -12.941  0.00  0.00    +0.014 C 
ATOM      3  C   UNL     1      35.486 -24.516 -12.134  0.00  0.00    +0.001 C 
ATOM      4  C   UNL     1      37.493 -23.050 -11.985  0.00  0.00    +0.001 C 
ENDBRANCH   1   2
BRANCH   1   6
ATOM      5  O   UNL     1      36.850 -22.484 -15.614  0.00  0.00    -0.250 OA
ATOM      6  C   UNL     1      37.542 -23.414 -15.215  0.00  0.00    +0.316 C 
BRANCH   6   7
ATOM      7  O   UNL     1      38.777 -23.679 -15.710  0.00  0.00    -0.480 OA
ATOM      8  H   UNL     1      38.879 -24.291 -16.411  0.00  0.00    +0.295 HD
ENDBRANCH   6   7
ENDBRANCH   1   6
BRANCH   1   9
ATOM      9  C   UNL     1      36.269 -25.510 -14.778  0.00  0.00    +0.220 C 
BRANCH   9  10
ATOM     10  O   UNL     1      35.506 -24.989 -15.848  0.00  0.00    -0.374 OA
ATOM     11  H   UNL     1      36.088 -24.812 -16.604  0.00  0.00    +0.211 HD
ENDBRANCH   9  10
BRANCH   9  13
ATOM     12  O   UNL     1      38.118 -27.064 -14.540  0.00  0.00    -0.248 OA
ATOM     13  C   UNL     1      37.143 -26.691 -15.183  0.00  0.00    +0.342 C 
BRANCH  13  14
ATOM     14  O   UNL     1      36.753 -27.290 -16.333  0.00  0.00    -0.479 OA
ATOM     15  H   UNL     1      35.948 -27.770 -16.363  0.00  0.00    +0.295 HD
ENDBRANCH  13  14
ENDBRANCH   9  13
ENDBRANCH   1   9
TORSDOF 7
ENDMDL
MODEL 4
REMARK VINA RESULT:      -5.6      2.760      4.278
REMARK  Name = 36
REMARK  7 active torsions:
REMARK  status: ('A' for Active; 'I' for Inactive)
REMARK    1  A    between atoms: C_1  and  C_2
REMARK    2  A    between atoms: C_1  and  C_6
REMARK    3  A    between atoms: C_1  and  C_9
REMARK    4  A    between atoms: C_6  and  O_7
REMARK    5  A    between atoms: C_9  and  O_10
REMARK    6  A    between atoms: C_9  and  C_13
REMARK    7  A    between atoms: C_13  and  O_14
REMARK                            x       y       z     vdW  Elec       q    Type
REMARK                         _______ _______ _______ _____ _____    ______ ____
ROOT
ATOM      1  C   UNL     1      36.822 -24.475 -13.407  0.00  0.00    +0.137 C 
ENDROOT
BRANCH   1   2
ATOM      2  C   UNL     1      37.831 -25.439 -14.092  0.00  0.00    +0.014 C 
ATOM      3  C   UNL     1      39.171 -25.504 -13.351  0.00  0.00    +0.001 C 
ATOM      4  C   UNL     1      37.258 -26.863 -14.186  0.00  0.00    +0.001 C 
ENDBRANCH   1   2
BRANCH   1   6
ATOM      5  O   UNL     1      37.555 -22.660 -14.844  0.00  0.00    -0.250 OA
ATOM      6  C   UNL     1      36.644 -23.200 -14.226  0.00  0.00    +0.316 C 
BRANCH   6   7
ATOM      7  O   UNL     1      35.378 -22.714 -14.206  0.00  0.00    -0.480 OA
ATOM      8  H   UNL     1      34.712 -23.162 -13.724  0.00  0.00    +0.295 HD
ENDBRANCH   6   7
ENDBRANCH   1   6
BRANCH   1   9
ATOM      9  C   UNL     1      37.131 -24.074 -11.945  0.00  0.00    +0.220 C 
BRANCH   9  10
ATOM     10  O   UNL     1      37.500 -22.710 -11.883  0.00  0.00    -0.374 OA
ATOM     11  H   UNL     1      38.086 -22.568 -11.122  0.00  0.00    +0.211 HD
ENDBRANCH   9  10
BRANCH   9  13
ATOM     12  O   UNL     1      36.005 -24.230  -9.802  0.00  0.00    -0.248 OA
ATOM     13  C   UNL     1      35.981 -24.428 -11.011  0.00  0.00    +0.342 C 
BRANCH  13  14
ATOM     14  O   UNL     1      34.923 -24.998 -11.637  0.00  0.00    -0.479 OA
ATOM     15  H   UNL     1      35.016 -25.837 -12.045  0.00  0.00    +0.295 HD
ENDBRANCH  13  14
ENDBRANCH   9  13
ENDBRANCH   1   9
TORSDOF 7
ENDMDL
MODEL 5
REMARK VINA RESULT:      -5.6      1.531      3.469
REMARK  Name = 36
REMARK  7 active torsions:
REMARK  status: ('A' for Active; 'I' for Inactive)
REMARK    1  A    between atoms: C_1  and  C_2
REMARK    2  A    between atoms: C_1  and  C_6
REMARK    3  A    between atoms: C_1  and  C_9
REMARK    4  A    between atoms: C_6  and  O_7
REMARK    5  A    between atoms: C_9  and  O_10
REMARK    6  A    between atoms: C_9  and  C_13
REMARK    7  A    between atoms: C_13  and  O_14
REMARK                            x       y       z     vdW  Elec       q    Type
REMARK                         _______ _______ _______ _____ _____    ______ ____
ROOT
ATOM      1  C   UNL     1      36.918 -25.146 -14.388  0.00  0.00    +0.137 C 
ENDROOT
BRANCH   1   2
ATOM      2  C   UNL     1      36.731 -25.249 -12.849  0.00  0.00    +0.014 C 
ATOM      3  C   UNL     1      37.893 -24.614 -12.077  0.00  0.00    +0.001 C 
ATOM      4  C   UNL     1      35.425 -24.572 -12.404  0.00  0.00    +0.001 C 
ENDBRANCH   1   2
BRANCH   1   6
ATOM      5  O   UNL     1      38.453 -27.025 -14.475  0.00  0.00    -0.250 OA
ATOM      6  C   UNL     1      37.488 -26.443 -14.956  0.00  0.00    +0.316 C 
BRANCH   6   7
ATOM      7  O   UNL     1      36.827 -26.893 -16.052  0.00  0.00    -0.480 OA
ATOM      8  H   UNL     1      37.175 -27.606 -16.549  0.00  0.00    +0.295 HD
ENDBRANCH   6   7
ENDBRANCH   1   6
BRANCH   1   9
ATOM      9  C   UNL     1      37.780 -23.969 -14.905  0.00  0.00    +0.220 C 
BRANCH   9  10
ATOM     10  O   UNL     1      38.966 -24.460 -15.498  0.00  0.00    -0.374 OA
ATOM     11  H   UNL     1      39.436 -23.729 -15.931  0.00  0.00    +0.211 HD
ENDBRANCH   9  10
BRANCH   9  13
ATOM     12  O   UNL     1      37.377 -21.949 -16.188  0.00  0.00    -0.248 OA
ATOM     13  C   UNL     1      36.983 -23.051 -15.824  0.00  0.00    +0.342 C 
BRANCH  13  14
ATOM     14  O   UNL     1      35.783 -23.558 -16.196  0.00  0.00    -0.479 OA
ATOM     15  H   UNL     1      35.609 -23.733 -17.101  0.00  0.00    +0.295 HD
ENDBRANCH  13  14
ENDBRANCH   9  13
ENDBRANCH   1   9
TORSDOF 7
ENDMDL
MODEL 6
REMARK VINA RESULT:      -5.5      2.598      3.988
REMARK  Name = 36
REMARK  7 active torsions:
REMARK  status: ('A' for Active; 'I' for Inactive)
REMARK    1  A    between atoms: C_1  and  C_2
REMARK    2  A    between atoms: C_1  and  C_6
REMARK    3  A    between atoms: C_1  and  C_9
REMARK    4  A    between atoms: C_6  and  O_7
REMARK    5  A    between atoms: C_9  and  O_10
REMARK    6  A    between atoms: C_9  and  C_13
REMARK    7  A    between atoms: C_13  and  O_14
REMARK                            x       y       z     vdW  Elec       q    Type
REMARK                         _______ _______ _______ _____ _____    ______ ____
ROOT
ATOM      1  C   UNL     1      35.300 -24.501 -14.281  0.00  0.00    +0.137 C 
ENDROOT
BRANCH   1   2
ATOM      2  C   UNL     1      35.511 -23.134 -14.990  0.00  0.00    +0.014 C 
ATOM      3  C   UNL     1      36.990 -22.837 -15.257  0.00  0.00    +0.001 C 
ATOM      4  C   UNL     1      34.756 -23.084 -16.329  0.00  0.00    +0.001 C 
ENDBRANCH   1   2
BRANCH   1   6
ATOM      5  O   UNL     1      34.917 -23.701 -12.020  0.00  0.00    -0.250 OA
ATOM      6  C   UNL     1      34.505 -24.328 -12.989  0.00  0.00    +0.316 C 
BRANCH   6   7
ATOM      7  O   UNL     1      33.295 -24.940 -13.010  0.00  0.00    -0.480 OA
ATOM      8  H   UNL     1      32.674 -24.727 -13.678  0.00  0.00    +0.295 HD
ENDBRANCH   6   7
ENDBRANCH   1   6
BRANCH   1   9
ATOM      9  C   UNL     1      36.573 -25.320 -13.962  0.00  0.00    +0.220 C 
BRANCH   9  10
ATOM     10  O   UNL     1      36.412 -26.012 -12.739  0.00  0.00    -0.374 OA
ATOM     11  H   UNL     1      36.259 -26.953 -12.919  0.00  0.00    +0.211 HD
ENDBRANCH   9  10
BRANCH   9  13
ATOM     12  O   UNL     1      36.148 -26.845 -15.801  0.00  0.00    -0.248 OA
ATOM     13  C   UNL     1      36.961 -26.229 -15.121  0.00  0.00    +0.342 C 
BRANCH  13  14
ATOM     14  O   UNL     1      38.298 -26.310 -15.329  0.00  0.00    -0.479 OA
ATOM     15  H   UNL     1      38.671 -25.966 -16.117  0.00  0.00    +0.295 HD
ENDBRANCH  13  14
ENDBRANCH   9  13
ENDBRANCH   1   9
TORSDOF 7
ENDMDL
MODEL 7
REMARK VINA RESULT:      -5.5     10.880     12.816
REMARK  Name = 36
REMARK  7 active torsions:
REMARK  status: ('A' for Active; 'I' for Inactive)
REMARK    1  A    between atoms: C_1  and  C_2
REMARK    2  A    between atoms: C_1  and  C_6
REMARK    3  A    between atoms: C_1  and  C_9
REMARK    4  A    between atoms: C_6  and  O_7
REMARK    5  A    between atoms: C_9  and  O_10
REMARK    6  A    between atoms: C_9  and  C_13
REMARK    7  A    between atoms: C_13  and  O_14
REMARK                            x       y       z     vdW  Elec       q    Type
REMARK                         _______ _______ _______ _____ _____    ______ ____
ROOT
ATOM      1  C   UNL     1      34.213 -16.550 -22.510  0.00  0.00    +0.137 C 
ENDROOT
BRANCH   1   2
ATOM      2  C   UNL     1      34.023 -15.067 -22.089  0.00  0.00    +0.014 C 
ATOM      3  C   UNL     1      34.164 -14.102 -23.271  0.00  0.00    +0.001 C 
ATOM      4  C   UNL     1      32.644 -14.847 -21.445  0.00  0.00    +0.001 C 
ENDBRANCH   1   2
BRANCH   1   6
ATOM      5  O   UNL     1      34.045 -18.559 -21.155  0.00  0.00    -0.250 OA
ATOM      6  C   UNL     1      34.500 -17.429 -21.295  0.00  0.00    +0.316 C 
BRANCH   6   7
ATOM      7  O   UNL     1      35.307 -16.841 -20.378  0.00  0.00    -0.480 OA
ATOM      8  H   UNL     1      35.176 -17.005 -19.465  0.00  0.00    +0.295 HD
ENDBRANCH   6   7
ENDBRANCH   1   6
BRANCH   1   9
ATOM      9  C   UNL     1      35.294 -16.834 -23.580  0.00  0.00    +0.220 C 
BRANCH   9  10
ATOM     10  O   UNL     1      36.257 -17.734 -23.071  0.00  0.00    -0.374 OA
ATOM     11  H   UNL     1      36.498 -18.374 -23.760  0.00  0.00    +0.211 HD
ENDBRANCH   9  10
BRANCH   9  13
ATOM     12  O   UNL     1      34.584 -16.583 -25.887  0.00  0.00    -0.248 OA
ATOM     13  C   UNL     1      34.675 -17.295 -24.894  0.00  0.00    +0.342 C 
BRANCH  13  14
ATOM     14  O   UNL     1      34.218 -18.570 -24.865  0.00  0.00    -0.479 OA
ATOM     15  H   UNL     1      34.723 -19.240 -24.445  0.00  0.00    +0.295 HD
ENDBRANCH  13  14
ENDBRANCH   9  13
ENDBRANCH   1   9
TORSDOF 7
ENDMDL
MODEL 8
REMARK VINA RESULT:      -5.4      2.662      3.690
REMARK  Name = 36
REMARK  7 active torsions:
REMARK  status: ('A' for Active; 'I' for Inactive)
REMARK    1  A    between atoms: C_1  and  C_2
REMARK    2  A    between atoms: C_1  and  C_6
REMARK    3  A    between atoms: C_1  and  C_9
REMARK    4  A    between atoms: C_6  and  O_7
REMARK    5  A    between atoms: C_9  and  O_10
REMARK    6  A    between atoms: C_9  and  C_13
REMARK    7  A    between atoms: C_13  and  O_14
REMARK                            x       y       z     vdW  Elec       q    Type
REMARK                         _______ _______ _______ _____ _____    ______ ____
ROOT
ATOM      1  C   UNL     1      35.668 -24.777 -13.887  0.00  0.00    +0.137 C 
ENDROOT
BRANCH   1   2
ATOM      2  C   UNL     1      34.646 -23.730 -14.410  0.00  0.00    +0.014 C 
ATOM      3  C   UNL     1      34.835 -23.424 -15.900  0.00  0.00    +0.001 C 
ATOM      4  C   UNL     1      33.202 -24.210 -14.192  0.00  0.00    +0.001 C 
ENDBRANCH   1   2
BRANCH   1   6
ATOM      5  O   UNL     1      36.311 -25.420 -11.635  0.00  0.00    -0.250 OA
ATOM      6  C   UNL     1      35.998 -24.530 -12.417  0.00  0.00    +0.316 C 
BRANCH   6   7
ATOM      7  O   UNL     1      35.910 -23.226 -12.053  0.00  0.00    -0.480 OA
ATOM      8  H   UNL     1      35.218 -22.691 -12.389  0.00  0.00    +0.295 HD
ENDBRANCH   6   7
ENDBRANCH   1   6
BRANCH   1   9
ATOM      9  C   UNL     1      36.998 -24.899 -14.669  0.00  0.00    +0.220 C 
BRANCH   9  10
ATOM     10  O   UNL     1      38.043 -24.274 -13.951  0.00  0.00    -0.374 OA
ATOM     11  H   UNL     1      37.981 -23.311 -14.062  0.00  0.00    +0.211 HD
ENDBRANCH   9  10
BRANCH   9  13
ATOM     12  O   UNL     1      38.286 -26.954 -14.632  0.00  0.00    -0.248 OA
ATOM     13  C   UNL     1      37.302 -26.346 -15.036  0.00  0.00    +0.342 C 
BRANCH  13  14
ATOM     14  O   UNL     1      36.389 -26.903 -15.867  0.00  0.00    -0.479 OA
ATOM     15  H   UNL     1      36.027 -27.745 -15.670  0.00  0.00    +0.295 HD
ENDBRANCH  13  14
ENDBRANCH   9  13
ENDBRANCH   1   9
TORSDOF 7
ENDMDL
MODEL 9
REMARK VINA RESULT:      -5.4      9.729     11.386
REMARK  Name = 36
REMARK  7 active torsions:
REMARK  status: ('A' for Active; 'I' for Inactive)
REMARK    1  A    between atoms: C_1  and  C_2
REMARK    2  A    between atoms: C_1  and  C_6
REMARK    3  A    between atoms: C_1  and  C_9
REMARK    4  A    between atoms: C_6  and  O_7
REMARK    5  A    between atoms: C_9  and  O_10
REMARK    6  A    between atoms: C_9  and  C_13
REMARK    7  A    between atoms: C_13  and  O_14
REMARK                            x       y       z     vdW  Elec       q    Type
REMARK                         _______ _______ _______ _____ _____    ______ ____
ROOT
ATOM      1  C   UNL     1      34.345 -18.566 -22.257  0.00  0.00    +0.137 C 
ENDROOT
BRANCH   1   2
ATOM      2  C   UNL     1      34.164 -19.898 -21.478  0.00  0.00    +0.014 C 
ATOM      3  C   UNL     1      35.341 -20.190 -20.541  0.00  0.00    +0.001 C 
ATOM      4  C   UNL     1      32.872 -19.881 -20.645  0.00  0.00    +0.001 C 
ENDBRANCH   1   2
BRANCH   1   6
ATOM      5  O   UNL     1      35.029 -19.896 -24.170  0.00  0.00    -0.250 OA
ATOM      6  C   UNL     1      34.605 -18.830 -23.737  0.00  0.00    +0.316 C 
BRANCH   6   7
ATOM      7  O   UNL     1      34.325 -17.770 -24.536  0.00  0.00    -0.480 OA
ATOM      8  H   UNL     1      34.574 -16.907 -24.272  0.00  0.00    +0.295 HD
ENDBRANCH   6   7
ENDBRANCH   1   6
BRANCH   1   9
ATOM      9  C   UNL     1      35.437 -17.601 -21.736  0.00  0.00    +0.220 C 
BRANCH   9  10
ATOM     10  O   UNL     1      36.567 -17.643 -22.586  0.00  0.00    -0.374 OA
ATOM     11  H   UNL     1      36.776 -18.567 -22.800  0.00  0.00    +0.211 HD
ENDBRANCH   9  10
BRANCH   9  13
ATOM     12  O   UNL     1      34.476 -15.488 -22.442  0.00  0.00    -0.248 OA
ATOM     13  C   UNL     1      34.892 -16.194 -21.531  0.00  0.00    +0.342 C 
BRANCH  13  14
ATOM     14  O   UNL     1      34.920 -15.780 -20.241  0.00  0.00    -0.479 OA
ATOM     15  H   UNL     1      34.517 -14.968 -20.000  0.00  0.00    +0.295 HD
ENDBRANCH  13  14
ENDBRANCH   9  13
ENDBRANCH   1   9
TORSDOF 7
ENDMDL
