MODEL 1
REMARK VINA RESULT:      -8.5      0.000      0.000
REMARK  Name = 6857686
REMARK  3 active torsions:
REMARK  status: ('A' for Active; 'I' for Inactive)
REMARK    1  A    between atoms: C_2  and  C_21
REMARK    2  A    between atoms: C_4  and  O_19
REMARK    3  A    between atoms: C_4  and  C_23
REMARK                            x       y       z     vdW  Elec       q    Type
REMARK                         _______ _______ _______ _____ _____    ______ ____
ROOT
ATOM      1  O   UNL     1      34.096 -24.439 -15.672  0.00  0.00    -0.291 OA
ATOM      2  C   UNL     1      34.602 -18.570 -21.770  0.00  0.00    +0.041 C 
ATOM      3  C   UNL     1      35.781 -19.513 -21.435  0.00  0.00    +0.010 C 
ATOM      4  C   UNL     1      34.953 -18.208 -23.244  0.00  0.00    +0.092 C 
ATOM      5  C   UNL     1      35.741 -19.998 -19.981  0.00  0.00    +0.023 C 
ATOM      6  C   UNL     1      37.000 -18.752 -21.938  0.00  0.00    +0.003 C 
ATOM      7  C   UNL     1      36.496 -18.033 -23.206  0.00  0.00    +0.027 C 
ATOM      8  C   UNL     1      33.335 -19.333 -21.491  0.00  0.00    -0.025 C 
ATOM      9  C   UNL     1      34.400 -20.705 -19.701  0.00  0.00    -0.027 C 
ATOM     10  C   UNL     1      36.918 -20.937 -19.693  0.00  0.00    +0.009 C 
ATOM     11  C   UNL     1      33.270 -20.293 -20.551  0.00  0.00    -0.009 C 
ATOM     12  C   UNL     1      34.313 -21.685 -18.763  0.00  0.00    -0.030 C 
ATOM     13  C   UNL     1      36.823 -21.462 -18.268  0.00  0.00    +0.026 C 
ATOM     14  C   UNL     1      35.485 -22.089 -17.961  0.00  0.00    -0.024 C 
ATOM     15  C   UNL     1      33.057 -22.500 -18.496  0.00  0.00    +0.034 C 
ATOM     16  C   UNL     1      35.421 -22.985 -16.961  0.00  0.00    +0.033 C 
ATOM     17  C   UNL     1      32.879 -22.888 -17.035  0.00  0.00    +0.074 C 
ATOM     18  C   UNL     1      34.127 -23.540 -16.508  0.00  0.00    +0.173 C 
ENDROOT
BRANCH   4  19
ATOM     19  O   UNL     1      34.341 -16.979 -23.630  0.00  0.00    -0.386 OA
ATOM     20  H   UNL     1      34.976 -16.446 -24.134  0.00  0.00    +0.210 HD
ENDBRANCH   4  19
BRANCH   2  21
ATOM     21  C   UNL     1      34.545 -17.289 -20.895  0.00  0.00    +0.006 C 
ATOM     22  C   UNL     1      33.153 -16.715 -20.892  0.00  0.00    +0.000 C 
ENDBRANCH   2  21
BRANCH   4  23
ATOM     23  C   UNL     1      34.544 -19.259 -24.285  0.00  0.00    +0.027 C 
ATOM     24  C   UNL     1      33.759 -18.629 -25.417  0.00  0.00    +0.002 C 
ENDBRANCH   4  23
TORSDOF 3
ENDMDL
MODEL 2
REMARK VINA RESULT:      -8.4      3.451      8.889
REMARK  Name = 6857686
REMARK  3 active torsions:
REMARK  status: ('A' for Active; 'I' for Inactive)
REMARK    1  A    between atoms: C_2  and  C_21
REMARK    2  A    between atoms: C_4  and  O_19
REMARK    3  A    between atoms: C_4  and  C_23
REMARK                            x       y       z     vdW  Elec       q    Type
REMARK                         _______ _______ _______ _____ _____    ______ ____
ROOT
ATOM      1  O   UNL     1      33.909 -20.687 -20.869  0.00  0.00    -0.291 OA
ATOM      2  C   UNL     1      36.394 -24.950 -13.976  0.00  0.00    +0.041 C 
ATOM      3  C   UNL     1      36.876 -23.511 -14.272  0.00  0.00    +0.010 C 
ATOM      4  C   UNL     1      36.583 -24.989 -12.430  0.00  0.00    +0.092 C 
ATOM      5  C   UNL     1      36.863 -23.192 -15.772  0.00  0.00    +0.023 C 
ATOM      6  C   UNL     1      38.181 -23.406 -13.495  0.00  0.00    +0.003 C 
ATOM      7  C   UNL     1      37.928 -24.238 -12.221  0.00  0.00    +0.027 C 
ATOM      8  C   UNL     1      35.004 -25.075 -14.540  0.00  0.00    -0.025 C 
ATOM      9  C   UNL     1      35.445 -23.405 -16.340  0.00  0.00    -0.027 C 
ATOM     10  C   UNL     1      37.337 -21.756 -16.022  0.00  0.00    +0.009 C 
ATOM     11  C   UNL     1      34.600 -24.365 -15.609  0.00  0.00    -0.009 C 
ATOM     12  C   UNL     1      35.012 -22.691 -17.413  0.00  0.00    -0.030 C 
ATOM     13  C   UNL     1      37.251 -21.435 -17.506  0.00  0.00    +0.026 C 
ATOM     14  C   UNL     1      35.886 -21.712 -18.089  0.00  0.00    -0.024 C 
ATOM     15  C   UNL     1      33.600 -22.766 -17.971  0.00  0.00    +0.034 C 
ATOM     16  C   UNL     1      35.531 -21.055 -19.207  0.00  0.00    +0.033 C 
ATOM     17  C   UNL     1      33.531 -22.606 -19.484  0.00  0.00    +0.074 C 
ATOM     18  C   UNL     1      34.272 -21.371 -19.917  0.00  0.00    +0.173 C 
ENDROOT
BRANCH   4  19
ATOM     19  O   UNL     1      36.706 -26.329 -11.961  0.00  0.00    -0.386 OA
ATOM     20  H   UNL     1      37.510 -26.729 -12.330  0.00  0.00    +0.210 HD
ENDBRANCH   4  19
BRANCH   2  21
ATOM     21  C   UNL     1      37.244 -26.058 -14.654  0.00  0.00    +0.006 C 
ATOM     22  C   UNL     1      36.358 -27.012 -15.412  0.00  0.00    +0.000 C 
ENDBRANCH   2  21
BRANCH   4  23
ATOM     23  C   UNL     1      35.455 -24.333 -11.621  0.00  0.00    +0.027 C 
ATOM     24  C   UNL     1      35.780 -24.322 -10.142  0.00  0.00    +0.002 C 
ENDBRANCH   4  23
TORSDOF 3
ENDMDL
MODEL 3
REMARK VINA RESULT:      -8.3      5.921      8.578
REMARK  Name = 6857686
REMARK  3 active torsions:
REMARK  status: ('A' for Active; 'I' for Inactive)
REMARK    1  A    between atoms: C_2  and  C_21
REMARK    2  A    between atoms: C_4  and  O_19
REMARK    3  A    between atoms: C_4  and  C_23
REMARK                            x       y       z     vdW  Elec       q    Type
REMARK                         _______ _______ _______ _____ _____    ______ ____
ROOT
ATOM      1  O   UNL     1      27.807 -23.618 -15.592  0.00  0.00    -0.291 OA
ATOM      2  C   UNL     1      36.173 -24.368 -14.446  0.00  0.00    +0.041 C 
ATOM      3  C   UNL     1      35.562 -23.288 -15.368  0.00  0.00    +0.010 C 
ATOM      4  C   UNL     1      37.536 -23.696 -14.104  0.00  0.00    +0.092 C 
ATOM      5  C   UNL     1      34.199 -23.708 -15.931  0.00  0.00    +0.023 C 
ATOM      6  C   UNL     1      36.698 -22.953 -16.326  0.00  0.00    +0.003 C 
ATOM      7  C   UNL     1      37.967 -23.064 -15.457  0.00  0.00    +0.027 C 
ATOM      8  C   UNL     1      35.185 -24.612 -13.337  0.00  0.00    -0.025 C 
ATOM      9  C   UNL     1      33.231 -24.029 -14.774  0.00  0.00    -0.027 C 
ATOM     10  C   UNL     1      33.624 -22.608 -16.830  0.00  0.00    +0.009 C 
ATOM     11  C   UNL     1      33.861 -24.451 -13.512  0.00  0.00    -0.009 C 
ATOM     12  C   UNL     1      31.890 -23.863 -14.924  0.00  0.00    -0.030 C 
ATOM     13  C   UNL     1      32.243 -23.013 -17.322  0.00  0.00    +0.026 C 
ATOM     14  C   UNL     1      31.310 -23.401 -16.201  0.00  0.00    -0.024 C 
ATOM     15  C   UNL     1      30.878 -24.059 -13.807  0.00  0.00    +0.034 C 
ATOM     16  C   UNL     1      29.987 -23.315 -16.421  0.00  0.00    +0.033 C 
ATOM     17  C   UNL     1      29.544 -24.620 -14.281  0.00  0.00    +0.074 C 
ATOM     18  C   UNL     1      29.008 -23.807 -15.426  0.00  0.00    +0.173 C 
ENDROOT
BRANCH   4  19
ATOM     19  O   UNL     1      38.500 -24.666 -13.700  0.00  0.00    -0.386 OA
ATOM     20  H   UNL     1      38.906 -24.389 -12.864  0.00  0.00    +0.210 HD
ENDBRANCH   4  19
BRANCH   2  21
ATOM     21  C   UNL     1      36.403 -25.738 -15.138  0.00  0.00    +0.006 C 
ATOM     22  C   UNL     1      36.766 -26.788 -14.120  0.00  0.00    +0.000 C 
ENDBRANCH   2  21
BRANCH   4  23
ATOM     23  C   UNL     1      37.476 -22.635 -12.995  0.00  0.00    +0.027 C 
ATOM     24  C   UNL     1      37.902 -23.214 -11.663  0.00  0.00    +0.002 C 
ENDBRANCH   4  23
TORSDOF 3
ENDMDL
MODEL 4
REMARK VINA RESULT:      -7.6      2.886      8.319
REMARK  Name = 6857686
REMARK  3 active torsions:
REMARK  status: ('A' for Active; 'I' for Inactive)
REMARK    1  A    between atoms: C_2  and  C_21
REMARK    2  A    between atoms: C_4  and  O_19
REMARK    3  A    between atoms: C_4  and  C_23
REMARK                            x       y       z     vdW  Elec       q    Type
REMARK                         _______ _______ _______ _____ _____    ______ ____
ROOT
ATOM      1  O   UNL     1      34.032 -19.788 -21.707  0.00  0.00    -0.291 OA
ATOM      2  C   UNL     1      36.928 -23.696 -14.764  0.00  0.00    +0.041 C 
ATOM      3  C   UNL     1      35.735 -24.245 -15.580  0.00  0.00    +0.010 C 
ATOM      4  C   UNL     1      37.417 -25.007 -14.079  0.00  0.00    +0.092 C 
ATOM      5  C   UNL     1      34.991 -23.138 -16.336  0.00  0.00    +0.023 C 
ATOM      6  C   UNL     1      34.980 -25.103 -14.574  0.00  0.00    +0.003 C 
ATOM      7  C   UNL     1      36.090 -25.723 -13.702  0.00  0.00    +0.027 C 
ATOM      8  C   UNL     1      37.843 -22.999 -15.734  0.00  0.00    -0.025 C 
ATOM      9  C   UNL     1      35.969 -22.388 -17.263  0.00  0.00    -0.027 C 
ATOM     10  C   UNL     1      33.824 -23.723 -17.139  0.00  0.00    +0.009 C 
ATOM     11  C   UNL     1      37.384 -22.416 -16.857  0.00  0.00    -0.009 C 
ATOM     12  C   UNL     1      35.530 -21.801 -18.408  0.00  0.00    -0.030 C 
ATOM     13  C   UNL     1      33.142 -22.622 -17.936  0.00  0.00    +0.026 C 
ATOM     14  C   UNL     1      34.104 -21.833 -18.791  0.00  0.00    -0.024 C 
ATOM     15  C   UNL     1      36.440 -21.131 -19.425  0.00  0.00    +0.034 C 
ATOM     16  C   UNL     1      33.614 -21.186 -19.862  0.00  0.00    +0.033 C 
ATOM     17  C   UNL     1      35.812 -19.925 -20.108  0.00  0.00    +0.074 C 
ATOM     18  C   UNL     1      34.463 -20.281 -20.669  0.00  0.00    +0.173 C 
ENDROOT
BRANCH   4  19
ATOM     19  O   UNL     1      38.161 -24.723 -12.897  0.00  0.00    -0.386 OA
ATOM     20  H   UNL     1      38.059 -25.454 -12.267  0.00  0.00    +0.210 HD
ENDBRANCH   4  19
BRANCH   2  21
ATOM     21  C   UNL     1      36.535 -22.641 -13.695  0.00  0.00    +0.006 C 
ATOM     22  C   UNL     1      37.577 -22.579 -12.609  0.00  0.00    +0.000 C 
ENDBRANCH   2  21
BRANCH   4  23
ATOM     23  C   UNL     1      38.298 -25.908 -14.957  0.00  0.00    +0.027 C 
ATOM     24  C   UNL     1      39.753 -25.807 -14.554  0.00  0.00    +0.002 C 
ENDBRANCH   4  23
TORSDOF 3
ENDMDL
MODEL 5
REMARK VINA RESULT:      -7.3      5.852      8.366
REMARK  Name = 6857686
REMARK  3 active torsions:
REMARK  status: ('A' for Active; 'I' for Inactive)
REMARK    1  A    between atoms: C_2  and  C_21
REMARK    2  A    between atoms: C_4  and  O_19
REMARK    3  A    between atoms: C_4  and  C_23
REMARK                            x       y       z     vdW  Elec       q    Type
REMARK                         _______ _______ _______ _____ _____    ______ ____
ROOT
ATOM      1  O   UNL     1      27.224 -22.742 -15.834  0.00  0.00    -0.291 OA
ATOM      2  C   UNL     1      35.618 -23.758 -15.214  0.00  0.00    +0.041 C 
ATOM      3  C   UNL     1      34.652 -24.184 -14.085  0.00  0.00    +0.010 C 
ATOM      4  C   UNL     1      36.828 -24.689 -14.904  0.00  0.00    +0.092 C 
ATOM      5  C   UNL     1      33.354 -23.368 -14.094  0.00  0.00    +0.023 C 
ATOM      6  C   UNL     1      35.532 -24.178 -12.842  0.00  0.00    +0.003 C 
ATOM      7  C   UNL     1      36.905 -24.662 -13.352  0.00  0.00    +0.027 C 
ATOM      8  C   UNL     1      34.882 -23.934 -16.515  0.00  0.00    -0.025 C 
ATOM      9  C   UNL     1      32.661 -23.502 -15.465  0.00  0.00    -0.027 C 
ATOM     10  C   UNL     1      32.421 -23.827 -12.968  0.00  0.00    +0.009 C 
ATOM     11  C   UNL     1      33.544 -23.813 -16.601  0.00  0.00    -0.009 C 
ATOM     12  C   UNL     1      31.310 -23.394 -15.574  0.00  0.00    -0.030 C 
ATOM     13  C   UNL     1      31.111 -23.055 -13.035  0.00  0.00    +0.026 C 
ATOM     14  C   UNL     1      30.462 -23.118 -14.397  0.00  0.00    -0.024 C 
ATOM     15  C   UNL     1      30.540 -23.613 -16.866  0.00  0.00    +0.034 C 
ATOM     16  C   UNL     1      29.136 -22.911 -14.475  0.00  0.00    +0.033 C 
ATOM     17  C   UNL     1      29.315 -22.720 -17.007  0.00  0.00    +0.074 C 
ATOM     18  C   UNL     1      28.449 -22.819 -15.782  0.00  0.00    +0.173 C 
ENDROOT
BRANCH   4  19
ATOM     19  O   UNL     1      38.035 -24.164 -15.452  0.00  0.00    -0.386 OA
ATOM     20  H   UNL     1      38.202 -24.572 -16.316  0.00  0.00    +0.210 HD
ENDBRANCH   4  19
BRANCH   2  21
ATOM     21  C   UNL     1      36.051 -22.269 -15.153  0.00  0.00    +0.006 C 
ATOM     22  C   UNL     1      36.558 -21.812 -16.495  0.00  0.00    +0.000 C 
ENDBRANCH   2  21
BRANCH   4  23
ATOM     23  C   UNL     1      36.689 -26.128 -15.423  0.00  0.00    +0.027 C 
ATOM     24  C   UNL     1      37.156 -27.128 -14.387  0.00  0.00    +0.002 C 
ENDBRANCH   4  23
TORSDOF 3
ENDMDL
MODEL 6
REMARK VINA RESULT:      -7.2      8.386     11.748
REMARK  Name = 6857686
REMARK  3 active torsions:
REMARK  status: ('A' for Active; 'I' for Inactive)
REMARK    1  A    between atoms: C_2  and  C_21
REMARK    2  A    between atoms: C_4  and  O_19
REMARK    3  A    between atoms: C_4  and  C_23
REMARK                            x       y       z     vdW  Elec       q    Type
REMARK                         _______ _______ _______ _____ _____    ______ ____
ROOT
ATOM      1  O   UNL     1      33.444 -15.744 -23.891  0.00  0.00    -0.291 OA
ATOM      2  C   UNL     1      32.499  -7.443 -22.455  0.00  0.00    +0.041 C 
ATOM      3  C   UNL     1      33.058  -7.989 -23.789  0.00  0.00    +0.010 C 
ATOM      4  C   UNL     1      31.957  -6.062 -22.931  0.00  0.00    +0.092 C 
ATOM      5  C   UNL     1      33.735  -9.354 -23.619  0.00  0.00    +0.023 C 
ATOM      6  C   UNL     1      33.860  -6.819 -24.344  0.00  0.00    +0.003 C 
ATOM      7  C   UNL     1      33.053  -5.576 -23.920  0.00  0.00    +0.027 C 
ATOM      8  C   UNL     1      31.524  -8.464 -21.934  0.00  0.00    -0.025 C 
ATOM      9  C   UNL     1      32.737 -10.360 -23.009  0.00  0.00    -0.027 C 
ATOM     10  C   UNL     1      34.266  -9.865 -24.963  0.00  0.00    +0.009 C 
ATOM     11  C   UNL     1      31.654  -9.777 -22.200  0.00  0.00    -0.009 C 
ATOM     12  C   UNL     1      32.843 -11.690 -23.272  0.00  0.00    -0.030 C 
ATOM     13  C   UNL     1      34.870 -11.250 -24.787  0.00  0.00    +0.026 C 
ATOM     14  C   UNL     1      33.926 -12.222 -24.122  0.00  0.00    -0.024 C 
ATOM     15  C   UNL     1      31.846 -12.734 -22.796  0.00  0.00    +0.034 C 
ATOM     16  C   UNL     1      34.123 -13.536 -24.330  0.00  0.00    +0.033 C 
ATOM     17  C   UNL     1      32.479 -14.078 -22.464  0.00  0.00    +0.074 C 
ATOM     18  C   UNL     1      33.331 -14.555 -23.607  0.00  0.00    +0.173 C 
ENDROOT
BRANCH   4  19
ATOM     19  O   UNL     1      31.855  -5.147 -21.843  0.00  0.00    -0.386 OA
ATOM     20  H   UNL     1      32.668  -4.620 -21.786  0.00  0.00    +0.210 HD
ENDBRANCH   4  19
BRANCH   2  21
ATOM     21  C   UNL     1      33.569  -7.252 -21.347  0.00  0.00    +0.006 C 
ATOM     22  C   UNL     1      32.953  -7.431 -19.984  0.00  0.00    +0.000 C 
ENDBRANCH   2  21
BRANCH   4  23
ATOM     23  C   UNL     1      30.581  -6.104 -23.612  0.00  0.00    +0.027 C 
ATOM     24  C   UNL     1      30.558  -5.230 -24.848  0.00  0.00    +0.002 C 
ENDBRANCH   4  23
TORSDOF 3
ENDMDL
MODEL 7
REMARK VINA RESULT:      -7.0      3.247      7.713
REMARK  Name = 6857686
REMARK  3 active torsions:
REMARK  status: ('A' for Active; 'I' for Inactive)
REMARK    1  A    between atoms: C_2  and  C_21
REMARK    2  A    between atoms: C_4  and  O_19
REMARK    3  A    between atoms: C_4  and  C_23
REMARK                            x       y       z     vdW  Elec       q    Type
REMARK                         _______ _______ _______ _____ _____    ______ ____
ROOT
ATOM      1  O   UNL     1      31.410 -10.231 -21.923  0.00  0.00    -0.291 OA
ATOM      2  C   UNL     1      34.359 -18.179 -21.937  0.00  0.00    +0.041 C 
ATOM      3  C   UNL     1      34.641 -17.194 -23.095  0.00  0.00    +0.010 C 
ATOM      4  C   UNL     1      35.563 -19.153 -22.107  0.00  0.00    +0.092 C 
ATOM      5  C   UNL     1      33.553 -16.122 -23.224  0.00  0.00    +0.023 C 
ATOM      6  C   UNL     1      34.935 -18.109 -24.276  0.00  0.00    +0.003 C 
ATOM      7  C   UNL     1      35.677 -19.306 -23.649  0.00  0.00    +0.027 C 
ATOM      8  C   UNL     1      34.258 -17.362 -20.677  0.00  0.00    -0.025 C 
ATOM      9  C   UNL     1      33.416 -15.353 -21.894  0.00  0.00    -0.027 C 
ATOM     10  C   UNL     1      33.875 -15.162 -24.374  0.00  0.00    +0.009 C 
ATOM     11  C   UNL     1      33.829 -16.086 -20.685  0.00  0.00    -0.009 C 
ATOM     12  C   UNL     1      32.995 -14.061 -21.879  0.00  0.00    -0.030 C 
ATOM     13  C   UNL     1      32.822 -14.066 -24.441  0.00  0.00    +0.026 C 
ATOM     14  C   UNL     1      32.627 -13.356 -23.123  0.00  0.00    -0.024 C 
ATOM     15  C   UNL     1      32.929 -13.201 -20.626  0.00  0.00    +0.034 C 
ATOM     16  C   UNL     1      32.117 -12.113 -23.144  0.00  0.00    +0.033 C 
ATOM     17  C   UNL     1      31.772 -12.212 -20.623  0.00  0.00    +0.074 C 
ATOM     18  C   UNL     1      31.767 -11.405 -21.892  0.00  0.00    +0.173 C 
ENDROOT
BRANCH   4  19
ATOM     19  O   UNL     1      35.285 -20.421 -21.519  0.00  0.00    -0.386 OA
ATOM     20  H   UNL     1      35.714 -20.477 -20.651  0.00  0.00    +0.210 HD
ENDBRANCH   4  19
BRANCH   2  21
ATOM     21  C   UNL     1      33.017 -18.948 -22.070  0.00  0.00    +0.006 C 
ATOM     22  C   UNL     1      32.624 -19.553 -20.748  0.00  0.00    +0.000 C 
ENDBRANCH   2  21
BRANCH   4  23
ATOM     23  C   UNL     1      36.886 -18.660 -21.504  0.00  0.00    +0.027 C 
ATOM     24  C   UNL     1      37.331 -19.551 -20.364  0.00  0.00    +0.002 C 
ENDBRANCH   4  23
TORSDOF 3
ENDMDL
MODEL 8
REMARK VINA RESULT:      -7.0      5.701      9.049
REMARK  Name = 6857686
REMARK  3 active torsions:
REMARK  status: ('A' for Active; 'I' for Inactive)
REMARK    1  A    between atoms: C_2  and  C_21
REMARK    2  A    between atoms: C_4  and  O_19
REMARK    3  A    between atoms: C_4  and  C_23
REMARK                            x       y       z     vdW  Elec       q    Type
REMARK                         _______ _______ _______ _____ _____    ______ ____
ROOT
ATOM      1  O   UNL     1      29.620 -22.659 -17.235  0.00  0.00    -0.291 OA
ATOM      2  C   UNL     1      37.271 -24.048 -13.858  0.00  0.00    +0.041 C 
ATOM      3  C   UNL     1      36.023 -24.852 -13.427  0.00  0.00    +0.010 C 
ATOM      4  C   UNL     1      38.394 -25.057 -13.471  0.00  0.00    +0.092 C 
ATOM      5  C   UNL     1      34.725 -24.064 -13.635  0.00  0.00    +0.023 C 
ATOM      6  C   UNL     1      36.383 -25.349 -12.034  0.00  0.00    +0.003 C 
ATOM      7  C   UNL     1      37.897 -25.633 -12.116  0.00  0.00    +0.027 C 
ATOM      8  C   UNL     1      37.086 -23.689 -15.308  0.00  0.00    -0.025 C 
ATOM      9  C   UNL     1      34.600 -23.640 -15.112  0.00  0.00    -0.027 C 
ATOM     10  C   UNL     1      33.512 -24.898 -13.206  0.00  0.00    +0.009 C 
ATOM     11  C   UNL     1      35.868 -23.510 -15.850  0.00  0.00    -0.009 C 
ATOM     12  C   UNL     1      33.379 -23.464 -15.684  0.00  0.00    -0.030 C 
ATOM     13  C   UNL     1      32.231 -24.127 -13.484  0.00  0.00    +0.026 C 
ATOM     14  C   UNL     1      32.134 -23.643 -14.911  0.00  0.00    -0.024 C 
ATOM     15  C   UNL     1      33.166 -23.147 -17.156  0.00  0.00    +0.034 C 
ATOM     16  C   UNL     1      30.913 -23.388 -15.410  0.00  0.00    +0.033 C 
ATOM     17  C   UNL     1      31.973 -22.239 -17.419  0.00  0.00    +0.074 C 
ATOM     18  C   UNL     1      30.741 -22.780 -16.749  0.00  0.00    +0.173 C 
ENDROOT
BRANCH   4  19
ATOM     19  O   UNL     1      39.640 -24.391 -13.280  0.00  0.00    -0.386 OA
ATOM     20  H   UNL     1      40.298 -24.757 -13.891  0.00  0.00    +0.210 HD
ENDBRANCH   4  19
BRANCH   2  21
ATOM     21  C   UNL     1      37.460 -22.709 -13.095  0.00  0.00    +0.006 C 
ATOM     22  C   UNL     1      37.133 -22.884 -11.635  0.00  0.00    +0.000 C 
ENDBRANCH   2  21
BRANCH   4  23
ATOM     23  C   UNL     1      38.636 -26.179 -14.490  0.00  0.00    +0.027 C 
ATOM     24  C   UNL     1      40.050 -26.131 -15.028  0.00  0.00    +0.002 C 
ENDBRANCH   4  23
TORSDOF 3
ENDMDL
MODEL 9
REMARK VINA RESULT:      -7.0     12.957     16.303
REMARK  Name = 6857686
REMARK  3 active torsions:
REMARK  status: ('A' for Active; 'I' for Inactive)
REMARK    1  A    between atoms: C_2  and  C_21
REMARK    2  A    between atoms: C_4  and  O_19
REMARK    3  A    between atoms: C_4  and  C_23
REMARK                            x       y       z     vdW  Elec       q    Type
REMARK                         _______ _______ _______ _____ _____    ______ ____
ROOT
ATOM      1  O   UNL     1      32.289  -9.238 -20.886  0.00  0.00    -0.291 OA
ATOM      2  C   UNL     1      33.597  -4.107 -27.507  0.00  0.00    +0.041 C 
ATOM      3  C   UNL     1      32.846  -3.640 -26.239  0.00  0.00    +0.010 C 
ATOM      4  C   UNL     1      34.096  -2.735 -28.051  0.00  0.00    +0.092 C 
ATOM      5  C   UNL     1      32.172  -4.802 -25.501  0.00  0.00    +0.023 C 
ATOM      6  C   UNL     1      32.000  -2.475 -26.735  0.00  0.00    +0.003 C 
ATOM      7  C   UNL     1      32.883  -1.796 -27.800  0.00  0.00    +0.027 C 
ATOM      8  C   UNL     1      34.613  -5.127 -27.067  0.00  0.00    -0.025 C 
ATOM      9  C   UNL     1      33.223  -5.869 -25.134  0.00  0.00    -0.027 C 
ATOM     10  C   UNL     1      31.449  -4.299 -24.247  0.00  0.00    +0.009 C 
ATOM     11  C   UNL     1      34.420  -5.910 -25.991  0.00  0.00    -0.009 C 
ATOM     12  C   UNL     1      33.055  -6.664 -24.044  0.00  0.00    -0.030 C 
ATOM     13  C   UNL     1      30.846  -5.474 -23.492  0.00  0.00    +0.026 C 
ATOM     14  C   UNL     1      31.853  -6.559 -23.193  0.00  0.00    -0.024 C 
ATOM     15  C   UNL     1      34.086  -7.668 -23.554  0.00  0.00    +0.034 C 
ATOM     16  C   UNL     1      31.602  -7.387 -22.165  0.00  0.00    +0.033 C 
ATOM     17  C   UNL     1      33.478  -8.922 -22.943  0.00  0.00    +0.074 C 
ATOM     18  C   UNL     1      32.465  -8.558 -21.893  0.00  0.00    +0.173 C 
ENDROOT
BRANCH   4  19
ATOM     19  O   UNL     1      34.367  -2.804 -29.449  0.00  0.00    -0.386 OA
ATOM     20  H   UNL     1      34.169  -3.697 -29.773  0.00  0.00    +0.210 HD
ENDBRANCH   4  19
BRANCH   2  21
ATOM     21  C   UNL     1      32.695  -4.811 -28.556  0.00  0.00    +0.006 C 
ATOM     22  C   UNL     1      33.486  -5.137 -29.796  0.00  0.00    +0.000 C 
ENDBRANCH   2  21
BRANCH   4  23
ATOM     23  C   UNL     1      35.362  -2.191 -27.375  0.00  0.00    +0.027 C 
ATOM     24  C   UNL     1      36.545  -2.233 -28.320  0.00  0.00    +0.002 C 
ENDBRANCH   4  23
TORSDOF 3
ENDMDL
