MODEL 1
REMARK VINA RESULT:     -11.1      0.000      0.000
REMARK  Name = 444581
REMARK  5 active torsions:
REMARK  status: ('A' for Active; 'I' for Inactive)
REMARK    1  A    between atoms: N_2  and  C_7
REMARK    2  A    between atoms: N_3  and  C_20
REMARK    3  A    between atoms: C_8  and  O_13
REMARK    4  A    between atoms: O_13  and  C_14
REMARK    5  A    between atoms: C_21  and  C_28
REMARK                            x       y       z     vdW  Elec       q    Type
REMARK                         _______ _______ _______ _____ _____    ______ ____
ROOT
ATOM      1  O   UNL     1      33.607 -17.747 -21.235  0.00  0.00    -0.252 OA
ATOM      2  N   UNL     1      34.934 -17.633 -23.157  0.00  0.00    -0.268 N 
ATOM      3  N   UNL     1      35.199 -19.402 -21.696  0.00  0.00    -0.268 N 
ATOM      4  C   UNL     1      34.486 -18.207 -21.956  0.00  0.00    +0.308 C 
ATOM      5  H   UNL     1      35.649 -18.120 -23.627  0.00  0.00    +0.156 HD
ATOM      6  H   UNL     1      35.878 -19.649 -22.364  0.00  0.00    +0.156 HD
ENDROOT
BRANCH   2   7
ATOM      7  C   UNL     1      34.485 -16.442 -23.773  0.00  0.00    +0.052 C 
ATOM      8  C   UNL     1      33.607 -14.108 -24.980  0.00  0.00    +0.145 C 
ATOM      9  C   UNL     1      33.996 -16.490 -25.068  0.00  0.00    +0.018 C 
ATOM     10  C   UNL     1      34.544 -15.250 -23.070  0.00  0.00    +0.018 C 
ATOM     11  C   UNL     1      33.554 -15.316 -25.676  0.00  0.00    +0.039 C 
ATOM     12  C   UNL     1      34.102 -14.075 -23.677  0.00  0.00    +0.039 C 
BRANCH   8  13
ATOM     13  O   UNL     1      33.174 -12.961 -25.573  0.00  0.00    -0.453 OA
BRANCH  13  14
ATOM     14  C   UNL     1      33.800 -11.778 -25.219  0.00  0.00    +0.145 C 
ATOM     15  C   UNL     1      34.860 -11.322 -25.981  0.00  0.00    +0.037 C 
ATOM     16  C   UNL     1      33.349 -11.083 -24.112  0.00  0.00    +0.037 C 
ATOM     17  C   UNL     1      35.491 -10.130 -25.625  0.00  0.00    +0.003 C 
ATOM     18  C   UNL     1      33.980  -9.891 -23.755  0.00  0.00    +0.003 C 
ATOM     19  C   UNL     1      35.051  -9.414 -24.512  0.00  0.00    +0.000 C 
ENDBRANCH  13  14
ENDBRANCH   8  13
ENDBRANCH   2   7
BRANCH   3  20
ATOM     20  C   UNL     1      35.068 -20.277 -20.617  0.00  0.00    +0.052 C 
ATOM     21  C   UNL     1      34.806 -22.024 -18.457  0.00  0.00    +0.031 C 
ATOM     22  C   UNL     1      36.199 -20.695 -19.917  0.00  0.00    +0.015 C 
ATOM     23  C   UNL     1      33.805 -20.732 -20.237  0.00  0.00    +0.015 C 
ATOM     24  C   UNL     1      36.069 -21.569 -18.837  0.00  0.00    +0.004 C 
ATOM     25  C   UNL     1      33.674 -21.605 -19.158  0.00  0.00    +0.004 C 
BRANCH  21  28
ATOM     26  N   UNL     1      33.462 -23.577 -17.062  0.00  0.00    -0.343 N 
ATOM     27  N   UNL     1      35.700 -23.161 -16.538  0.00  0.00    -0.285 NA
ATOM     28  C   UNL     1      34.669 -22.934 -17.331  0.00  0.00    +0.117 C 
ATOM     29  H   UNL     1      33.391 -24.190 -16.296  0.00  0.00    +0.144 HD
ATOM     30  H   UNL     1      32.681 -23.419 -17.640  0.00  0.00    +0.144 HD
ATOM     31  H   UNL     1      35.611 -23.776 -15.776  0.00  0.00    +0.188 HD
ENDBRANCH  21  28
ENDBRANCH   3  20
TORSDOF 5
ENDMDL
MODEL 2
REMARK VINA RESULT:     -11.1      0.069      1.342
REMARK  Name = 444581
REMARK  5 active torsions:
REMARK  status: ('A' for Active; 'I' for Inactive)
REMARK    1  A    between atoms: N_2  and  C_7
REMARK    2  A    between atoms: N_3  and  C_20
REMARK    3  A    between atoms: C_8  and  O_13
REMARK    4  A    between atoms: O_13  and  C_14
REMARK    5  A    between atoms: C_21  and  C_28
REMARK                            x       y       z     vdW  Elec       q    Type
REMARK                         _______ _______ _______ _____ _____    ______ ____
ROOT
ATOM      1  O   UNL     1      33.591 -17.710 -21.241  0.00  0.00    -0.252 OA
ATOM      2  N   UNL     1      34.938 -17.565 -23.148  0.00  0.00    -0.268 N 
ATOM      3  N   UNL     1      35.201 -19.348 -21.702  0.00  0.00    -0.268 N 
ATOM      4  C   UNL     1      34.482 -18.156 -21.958  0.00  0.00    +0.308 C 
ATOM      5  H   UNL     1      35.662 -18.042 -23.615  0.00  0.00    +0.156 HD
ATOM      6  H   UNL     1      35.888 -19.583 -22.366  0.00  0.00    +0.156 HD
ENDROOT
BRANCH   2   7
ATOM      7  C   UNL     1      34.487 -16.371 -23.756  0.00  0.00    +0.052 C 
ATOM      8  C   UNL     1      33.600 -14.032 -24.947  0.00  0.00    +0.145 C 
ATOM      9  C   UNL     1      34.541 -15.185 -23.044  0.00  0.00    +0.018 C 
ATOM     10  C   UNL     1      33.998 -16.413 -25.051  0.00  0.00    +0.018 C 
ATOM     11  C   UNL     1      34.095 -14.007 -23.643  0.00  0.00    +0.039 C 
ATOM     12  C   UNL     1      33.552 -15.235 -25.652  0.00  0.00    +0.039 C 
BRANCH   8  13
ATOM     13  O   UNL     1      33.166 -12.883 -25.533  0.00  0.00    -0.453 OA
BRANCH  13  14
ATOM     14  C   UNL     1      33.796 -11.702 -25.178  0.00  0.00    +0.145 C 
ATOM     15  C   UNL     1      34.870 -11.259 -25.927  0.00  0.00    +0.037 C 
ATOM     16  C   UNL     1      33.335 -10.997 -24.081  0.00  0.00    +0.037 C 
ATOM     17  C   UNL     1      35.505 -10.070 -25.569  0.00  0.00    +0.003 C 
ATOM     18  C   UNL     1      33.970  -9.808 -23.723  0.00  0.00    +0.003 C 
ATOM     19  C   UNL     1      35.056  -9.344 -24.467  0.00  0.00    +0.000 C 
ENDBRANCH  13  14
ENDBRANCH   8  13
ENDBRANCH   2   7
BRANCH   3  20
ATOM     20  C   UNL     1      35.065 -20.235 -20.633  0.00  0.00    +0.052 C 
ATOM     21  C   UNL     1      34.791 -22.010 -18.499  0.00  0.00    +0.031 C 
ATOM     22  C   UNL     1      33.800 -20.690 -20.262  0.00  0.00    +0.015 C 
ATOM     23  C   UNL     1      36.193 -20.668 -19.938  0.00  0.00    +0.015 C 
ATOM     24  C   UNL     1      33.663 -21.577 -19.194  0.00  0.00    +0.004 C 
ATOM     25  C   UNL     1      36.058 -21.555 -18.871  0.00  0.00    +0.004 C 
BRANCH  21  28
ATOM     26  N   UNL     1      33.445 -23.591 -17.137  0.00  0.00    -0.343 N 
ATOM     27  N   UNL     1      35.675 -23.165 -16.586  0.00  0.00    -0.285 NA
ATOM     28  C   UNL     1      34.650 -22.936 -17.386  0.00  0.00    +0.117 C 
ATOM     29  H   UNL     1      33.372 -24.214 -16.379  0.00  0.00    +0.144 HD
ATOM     30  H   UNL     1      32.669 -23.432 -17.721  0.00  0.00    +0.144 HD
ATOM     31  H   UNL     1      35.582 -23.791 -15.832  0.00  0.00    +0.188 HD
ENDBRANCH  21  28
ENDBRANCH   3  20
TORSDOF 5
ENDMDL
MODEL 3
REMARK VINA RESULT:     -11.0      4.961     11.307
REMARK  Name = 444581
REMARK  5 active torsions:
REMARK  status: ('A' for Active; 'I' for Inactive)
REMARK    1  A    between atoms: N_2  and  C_7
REMARK    2  A    between atoms: N_3  and  C_20
REMARK    3  A    between atoms: C_8  and  O_13
REMARK    4  A    between atoms: O_13  and  C_14
REMARK    5  A    between atoms: C_21  and  C_28
REMARK                            x       y       z     vdW  Elec       q    Type
REMARK                         _______ _______ _______ _____ _____    ______ ____
ROOT
ATOM      1  O   UNL     1      33.653 -11.025 -23.420  0.00  0.00    -0.252 OA
ATOM      2  N   UNL     1      32.410 -12.656 -22.295  0.00  0.00    -0.268 N 
ATOM      3  N   UNL     1      31.685 -10.462 -22.281  0.00  0.00    -0.268 N 
ATOM      4  C   UNL     1      32.687 -11.352 -22.738  0.00  0.00    +0.308 C 
ATOM      5  H   UNL     1      31.594 -12.762 -21.753  0.00  0.00    +0.156 HD
ATOM      6  H   UNL     1      30.969 -10.866 -21.742  0.00  0.00    +0.156 HD
ENDROOT
BRANCH   2   7
ATOM      7  C   UNL     1      33.157 -13.833 -22.531  0.00  0.00    +0.052 C 
ATOM      8  C   UNL     1      34.619 -16.140 -22.992  0.00  0.00    +0.145 C 
ATOM      9  C   UNL     1      33.185 -14.374 -23.805  0.00  0.00    +0.018 C 
ATOM     10  C   UNL     1      33.844 -14.421 -21.482  0.00  0.00    +0.018 C 
ATOM     11  C   UNL     1      33.921 -15.535 -24.038  0.00  0.00    +0.039 C 
ATOM     12  C   UNL     1      34.581 -15.582 -21.714  0.00  0.00    +0.039 C 
BRANCH   8  13
ATOM     13  O   UNL     1      35.339 -17.273 -23.220  0.00  0.00    -0.453 OA
BRANCH  13  14
ATOM     14  C   UNL     1      35.270 -18.280 -22.272  0.00  0.00    +0.145 C 
ATOM     15  C   UNL     1      34.060 -18.905 -22.039  0.00  0.00    +0.037 C 
ATOM     16  C   UNL     1      36.416 -18.633 -21.582  0.00  0.00    +0.037 C 
ATOM     17  C   UNL     1      33.990 -19.919 -21.084  0.00  0.00    +0.003 C 
ATOM     18  C   UNL     1      36.347 -19.648 -20.627  0.00  0.00    +0.003 C 
ATOM     19  C   UNL     1      35.134 -20.291 -20.377  0.00  0.00    +0.000 C 
ENDBRANCH  13  14
ENDBRANCH   8  13
ENDBRANCH   2   7
BRANCH   3  20
ATOM     20  C   UNL     1      31.579  -9.087 -22.494  0.00  0.00    +0.052 C 
ATOM     21  C   UNL     1      31.364  -6.338 -22.920  0.00  0.00    +0.031 C 
ATOM     22  C   UNL     1      31.072  -8.605 -23.701  0.00  0.00    +0.015 C 
ATOM     23  C   UNL     1      31.978  -8.194 -21.500  0.00  0.00    +0.015 C 
ATOM     24  C   UNL     1      30.965  -7.231 -23.915  0.00  0.00    +0.004 C 
ATOM     25  C   UNL     1      31.870  -6.820 -21.712  0.00  0.00    +0.004 C 
BRANCH  21  28
ATOM     26  N   UNL     1      30.550  -4.088 -22.256  0.00  0.00    -0.343 N 
ATOM     27  N   UNL     1      31.817  -4.356 -24.201  0.00  0.00    -0.285 NA
ATOM     28  C   UNL     1      31.251  -4.905 -23.141  0.00  0.00    +0.117 C 
ATOM     29  H   UNL     1      30.487  -3.121 -22.424  0.00  0.00    +0.144 HD
ATOM     30  H   UNL     1      30.119  -4.479 -21.463  0.00  0.00    +0.144 HD
ATOM     31  H   UNL     1      31.743  -3.386 -24.353  0.00  0.00    +0.188 HD
ENDBRANCH  21  28
ENDBRANCH   3  20
TORSDOF 5
ENDMDL
MODEL 4
REMARK VINA RESULT:     -10.9      5.036     11.330
REMARK  Name = 444581
REMARK  5 active torsions:
REMARK  status: ('A' for Active; 'I' for Inactive)
REMARK    1  A    between atoms: N_2  and  C_7
REMARK    2  A    between atoms: N_3  and  C_20
REMARK    3  A    between atoms: C_8  and  O_13
REMARK    4  A    between atoms: O_13  and  C_14
REMARK    5  A    between atoms: C_21  and  C_28
REMARK                            x       y       z     vdW  Elec       q    Type
REMARK                         _______ _______ _______ _____ _____    ______ ____
ROOT
ATOM      1  O   UNL     1      33.573 -10.870 -23.616  0.00  0.00    -0.252 OA
ATOM      2  N   UNL     1      32.380 -12.485 -22.417  0.00  0.00    -0.268 N 
ATOM      3  N   UNL     1      31.680 -10.284 -22.368  0.00  0.00    -0.268 N 
ATOM      4  C   UNL     1      32.645 -11.185 -22.879  0.00  0.00    +0.308 C 
ATOM      5  H   UNL     1      31.596 -12.581 -21.829  0.00  0.00    +0.156 HD
ATOM      6  H   UNL     1      30.992 -10.679 -21.787  0.00  0.00    +0.156 HD
ENDROOT
BRANCH   2   7
ATOM      7  C   UNL     1      33.100 -13.670 -22.692  0.00  0.00    +0.052 C 
ATOM      8  C   UNL     1      34.509 -15.994 -23.230  0.00  0.00    +0.145 C 
ATOM      9  C   UNL     1      33.081 -14.193 -23.975  0.00  0.00    +0.018 C 
ATOM     10  C   UNL     1      33.808 -14.285 -21.674  0.00  0.00    +0.018 C 
ATOM     11  C   UNL     1      33.790 -15.363 -24.246  0.00  0.00    +0.039 C 
ATOM     12  C   UNL     1      34.519 -15.455 -21.944  0.00  0.00    +0.039 C 
BRANCH   8  13
ATOM     13  O   UNL     1      35.203 -17.135 -23.496  0.00  0.00    -0.453 OA
BRANCH  13  14
ATOM     14  C   UNL     1      35.224 -18.116 -22.520  0.00  0.00    +0.145 C 
ATOM     15  C   UNL     1      36.407 -18.378 -21.853  0.00  0.00    +0.037 C 
ATOM     16  C   UNL     1      34.061 -18.810 -22.237  0.00  0.00    +0.037 C 
ATOM     17  C   UNL     1      36.429 -19.368 -20.870  0.00  0.00    +0.003 C 
ATOM     18  C   UNL     1      34.083 -19.799 -21.254  0.00  0.00    +0.003 C 
ATOM     19  C   UNL     1      35.268 -20.079 -20.570  0.00  0.00    +0.000 C 
ENDBRANCH  13  14
ENDBRANCH   8  13
ENDBRANCH   2   7
BRANCH   3  20
ATOM     20  C   UNL     1      31.576  -8.908 -22.578  0.00  0.00    +0.052 C 
ATOM     21  C   UNL     1      31.371  -6.158 -22.998  0.00  0.00    +0.031 C 
ATOM     22  C   UNL     1      31.936  -8.019 -21.566  0.00  0.00    +0.015 C 
ATOM     23  C   UNL     1      31.114  -8.422 -23.801  0.00  0.00    +0.015 C 
ATOM     24  C   UNL     1      31.833  -6.644 -21.775  0.00  0.00    +0.004 C 
ATOM     25  C   UNL     1      31.011  -7.047 -24.011  0.00  0.00    +0.004 C 
BRANCH  21  28
ATOM     26  N   UNL     1      31.841  -4.117 -24.333  0.00  0.00    -0.343 N 
ATOM     27  N   UNL     1      30.615  -3.971 -22.349  0.00  0.00    -0.285 NA
ATOM     28  C   UNL     1      31.264  -4.724 -23.218  0.00  0.00    +0.117 C 
ATOM     29  H   UNL     1      31.755  -3.146 -24.463  0.00  0.00    +0.144 HD
ATOM     30  H   UNL     1      32.331  -4.661 -24.990  0.00  0.00    +0.144 HD
ATOM     31  H   UNL     1      30.541  -3.001 -22.496  0.00  0.00    +0.188 HD
ENDBRANCH  21  28
ENDBRANCH   3  20
TORSDOF 5
ENDMDL
MODEL 5
REMARK VINA RESULT:     -10.8      3.104     10.970
REMARK  Name = 444581
REMARK  5 active torsions:
REMARK  status: ('A' for Active; 'I' for Inactive)
REMARK    1  A    between atoms: N_2  and  C_7
REMARK    2  A    between atoms: N_3  and  C_20
REMARK    3  A    between atoms: C_8  and  O_13
REMARK    4  A    between atoms: O_13  and  C_14
REMARK    5  A    between atoms: C_21  and  C_28
REMARK                            x       y       z     vdW  Elec       q    Type
REMARK                         _______ _______ _______ _____ _____    ______ ____
ROOT
ATOM      1  O   UNL     1      33.549 -19.212 -20.916  0.00  0.00    -0.252 OA
ATOM      2  N   UNL     1      35.557 -20.371 -20.612  0.00  0.00    -0.268 N 
ATOM      3  N   UNL     1      35.418 -18.748 -22.250  0.00  0.00    -0.268 N 
ATOM      4  C   UNL     1      34.717 -19.426 -21.223  0.00  0.00    +0.308 C 
ATOM      5  H   UNL     1      36.473 -20.427 -20.969  0.00  0.00    +0.156 HD
ATOM      6  H   UNL     1      36.352 -19.024 -22.384  0.00  0.00    +0.156 HD
ENDROOT
BRANCH   2   7
ATOM      7  C   UNL     1      35.249 -21.252 -19.549  0.00  0.00    +0.052 C 
ATOM      8  C   UNL     1      34.645 -22.979 -17.469  0.00  0.00    +0.145 C 
ATOM      9  C   UNL     1      36.182 -21.459 -18.547  0.00  0.00    +0.018 C 
ATOM     10  C   UNL     1      34.020 -21.890 -19.533  0.00  0.00    +0.018 C 
ATOM     11  C   UNL     1      35.879 -22.328 -17.500  0.00  0.00    +0.039 C 
ATOM     12  C   UNL     1      33.715 -22.760 -18.486  0.00  0.00    +0.039 C 
BRANCH   8  13
ATOM     13  O   UNL     1      34.348 -23.826 -16.446  0.00  0.00    -0.453 OA
BRANCH  13  14
ATOM     14  C   UNL     1      33.196 -23.579 -15.719  0.00  0.00    +0.145 C 
ATOM     15  C   UNL     1      33.261 -23.555 -14.339  0.00  0.00    +0.037 C 
ATOM     16  C   UNL     1      32.008 -23.362 -16.395  0.00  0.00    +0.037 C 
ATOM     17  C   UNL     1      32.100 -23.307 -13.607  0.00  0.00    +0.003 C 
ATOM     18  C   UNL     1      30.847 -23.114 -15.663  0.00  0.00    +0.003 C 
ATOM     19  C   UNL     1      30.893 -23.086 -14.269  0.00  0.00    +0.000 C 
ENDBRANCH  13  14
ENDBRANCH   8  13
ENDBRANCH   2   7
BRANCH   3  20
ATOM     20  C   UNL     1      34.958 -17.739 -23.098  0.00  0.00    +0.052 C 
ATOM     21  C   UNL     1      34.043 -15.722 -24.794  0.00  0.00    +0.031 C 
ATOM     22  C   UNL     1      34.799 -16.441 -22.615  0.00  0.00    +0.015 C 
ATOM     23  C   UNL     1      34.661 -18.030 -24.429  0.00  0.00    +0.015 C 
ATOM     24  C   UNL     1      34.341 -15.432 -23.463  0.00  0.00    +0.004 C 
ATOM     25  C   UNL     1      34.203 -17.022 -25.278  0.00  0.00    +0.004 C 
BRANCH  21  28
ATOM     26  N   UNL     1      33.264 -13.399 -25.196  0.00  0.00    -0.343 N 
ATOM     27  N   UNL     1      33.407 -14.916 -26.967  0.00  0.00    -0.285 NA
ATOM     28  C   UNL     1      33.566 -14.671 -25.679  0.00  0.00    +0.117 C 
ATOM     29  H   UNL     1      32.943 -12.703 -25.812  0.00  0.00    +0.144 HD
ATOM     30  H   UNL     1      33.373 -13.198 -24.239  0.00  0.00    +0.144 HD
ATOM     31  H   UNL     1      33.085 -14.207 -27.568  0.00  0.00    +0.188 HD
ENDBRANCH  21  28
ENDBRANCH   3  20
TORSDOF 5
ENDMDL
MODEL 6
REMARK VINA RESULT:     -10.8      2.909      5.253
REMARK  Name = 444581
REMARK  5 active torsions:
REMARK  status: ('A' for Active; 'I' for Inactive)
REMARK    1  A    between atoms: N_2  and  C_7
REMARK    2  A    between atoms: N_3  and  C_20
REMARK    3  A    between atoms: C_8  and  O_13
REMARK    4  A    between atoms: O_13  and  C_14
REMARK    5  A    between atoms: C_21  and  C_28
REMARK                            x       y       z     vdW  Elec       q    Type
REMARK                         _______ _______ _______ _____ _____    ______ ____
ROOT
ATOM      1  O   UNL     1      35.475 -22.241 -19.074  0.00  0.00    -0.252 OA
ATOM      2  N   UNL     1      36.616 -20.206 -19.241  0.00  0.00    -0.268 N 
ATOM      3  N   UNL     1      36.898 -21.518 -17.360  0.00  0.00    -0.268 N 
ATOM      4  C   UNL     1      36.246 -21.407 -18.612  0.00  0.00    +0.308 C 
ATOM      5  H   UNL     1      37.247 -19.637 -18.745  0.00  0.00    +0.156 HD
ATOM      6  H   UNL     1      37.491 -20.770 -17.119  0.00  0.00    +0.156 HD
ENDROOT
BRANCH   2   7
ATOM      7  C   UNL     1      36.192 -19.716 -20.498  0.00  0.00    +0.052 C 
ATOM      8  C   UNL     1      35.364 -18.757 -22.961  0.00  0.00    +0.145 C 
ATOM      9  C   UNL     1      34.878 -19.906 -20.893  0.00  0.00    +0.018 C 
ATOM     10  C   UNL     1      37.100 -19.056 -21.309  0.00  0.00    +0.018 C 
ATOM     11  C   UNL     1      34.461 -19.424 -22.133  0.00  0.00    +0.039 C 
ATOM     12  C   UNL     1      36.684 -18.573 -22.550  0.00  0.00    +0.039 C 
BRANCH   8  13
ATOM     13  O   UNL     1      34.956 -18.285 -24.171  0.00  0.00    -0.453 OA
BRANCH  13  14
ATOM     14  C   UNL     1      34.509 -16.975 -24.233  0.00  0.00    +0.145 C 
ATOM     15  C   UNL     1      34.671 -16.155 -23.132  0.00  0.00    +0.037 C 
ATOM     16  C   UNL     1      33.913 -16.523 -25.396  0.00  0.00    +0.037 C 
ATOM     17  C   UNL     1      34.220 -14.836 -23.195  0.00  0.00    +0.003 C 
ATOM     18  C   UNL     1      33.462 -15.204 -25.459  0.00  0.00    +0.003 C 
ATOM     19  C   UNL     1      33.616 -14.360 -24.358  0.00  0.00    +0.000 C 
ENDBRANCH  13  14
ENDBRANCH   8  13
ENDBRANCH   2   7
BRANCH   3  20
ATOM     20  C   UNL     1      36.811 -22.547 -16.421  0.00  0.00    +0.052 C 
ATOM     21  C   UNL     1      36.639 -24.602 -14.543  0.00  0.00    +0.031 C 
ATOM     22  C   UNL     1      37.974 -23.122 -15.908  0.00  0.00    +0.015 C 
ATOM     23  C   UNL     1      35.563 -22.998 -15.995  0.00  0.00    +0.015 C 
ATOM     24  C   UNL     1      37.888 -24.150 -14.969  0.00  0.00    +0.004 C 
ATOM     25  C   UNL     1      35.476 -24.026 -15.056  0.00  0.00    +0.004 C 
BRANCH  21  28
ATOM     26  N   UNL     1      36.975 -26.966 -13.862  0.00  0.00    -0.343 N 
ATOM     27  N   UNL     1      36.050 -25.428 -12.365  0.00  0.00    -0.285 NA
ATOM     28  C   UNL     1      36.549 -25.673 -13.563  0.00  0.00    +0.117 C 
ATOM     29  H   UNL     1      36.905 -27.675 -13.183  0.00  0.00    +0.144 HD
ATOM     30  H   UNL     1      37.346 -27.168 -14.750  0.00  0.00    +0.144 HD
ATOM     31  H   UNL     1      35.988 -26.151 -11.700  0.00  0.00    +0.188 HD
ENDBRANCH  21  28
ENDBRANCH   3  20
TORSDOF 5
ENDMDL
MODEL 7
REMARK VINA RESULT:     -10.8      2.917      5.323
REMARK  Name = 444581
REMARK  5 active torsions:
REMARK  status: ('A' for Active; 'I' for Inactive)
REMARK    1  A    between atoms: N_2  and  C_7
REMARK    2  A    between atoms: N_3  and  C_20
REMARK    3  A    between atoms: C_8  and  O_13
REMARK    4  A    between atoms: O_13  and  C_14
REMARK    5  A    between atoms: C_21  and  C_28
REMARK                            x       y       z     vdW  Elec       q    Type
REMARK                         _______ _______ _______ _____ _____    ______ ____
ROOT
ATOM      1  O   UNL     1      35.446 -22.236 -19.046  0.00  0.00    -0.252 OA
ATOM      2  N   UNL     1      36.643 -20.237 -19.250  0.00  0.00    -0.268 N 
ATOM      3  N   UNL     1      36.927 -21.546 -17.368  0.00  0.00    -0.268 N 
ATOM      4  C   UNL     1      36.252 -21.423 -18.606  0.00  0.00    +0.308 C 
ATOM      5  H   UNL     1      37.301 -19.684 -18.771  0.00  0.00    +0.156 HD
ATOM      6  H   UNL     1      37.547 -20.815 -17.144  0.00  0.00    +0.156 HD
ENDROOT
BRANCH   2   7
ATOM      7  C   UNL     1      36.207 -19.741 -20.501  0.00  0.00    +0.052 C 
ATOM      8  C   UNL     1      35.352 -18.768 -22.949  0.00  0.00    +0.145 C 
ATOM      9  C   UNL     1      37.099 -19.053 -21.306  0.00  0.00    +0.018 C 
ATOM     10  C   UNL     1      34.896 -19.953 -20.894  0.00  0.00    +0.018 C 
ATOM     11  C   UNL     1      36.669 -18.563 -22.539  0.00  0.00    +0.039 C 
ATOM     12  C   UNL     1      34.465 -19.464 -22.127  0.00  0.00    +0.039 C 
BRANCH   8  13
ATOM     13  O   UNL     1      34.932 -18.291 -24.153  0.00  0.00    -0.453 OA
BRANCH  13  14
ATOM     14  C   UNL     1      34.483 -16.983 -24.206  0.00  0.00    +0.145 C 
ATOM     15  C   UNL     1      33.938 -16.504 -25.383  0.00  0.00    +0.037 C 
ATOM     16  C   UNL     1      34.592 -16.189 -23.079  0.00  0.00    +0.037 C 
ATOM     17  C   UNL     1      33.486 -15.186 -25.436  0.00  0.00    +0.003 C 
ATOM     18  C   UNL     1      34.139 -14.870 -23.132  0.00  0.00    +0.003 C 
ATOM     19  C   UNL     1      33.586 -14.368 -24.311  0.00  0.00    +0.000 C 
ENDBRANCH  13  14
ENDBRANCH   8  13
ENDBRANCH   2   7
BRANCH   3  20
ATOM     20  C   UNL     1      36.830 -22.567 -16.421  0.00  0.00    +0.052 C 
ATOM     21  C   UNL     1      36.636 -24.609 -14.530  0.00  0.00    +0.031 C 
ATOM     22  C   UNL     1      35.577 -23.015 -16.005  0.00  0.00    +0.015 C 
ATOM     23  C   UNL     1      37.987 -23.140 -15.893  0.00  0.00    +0.015 C 
ATOM     24  C   UNL     1      35.479 -24.035 -15.059  0.00  0.00    +0.004 C 
ATOM     25  C   UNL     1      37.890 -24.161 -14.947  0.00  0.00    +0.004 C 
BRANCH  21  28
ATOM     26  N   UNL     1      36.951 -26.972 -13.836  0.00  0.00    -0.343 N 
ATOM     27  N   UNL     1      36.037 -25.419 -12.349  0.00  0.00    -0.285 NA
ATOM     28  C   UNL     1      36.535 -25.674 -13.545  0.00  0.00    +0.117 C 
ATOM     29  H   UNL     1      36.875 -27.677 -13.154  0.00  0.00    +0.144 HD
ATOM     30  H   UNL     1      37.322 -27.182 -14.723  0.00  0.00    +0.144 HD
ATOM     31  H   UNL     1      35.968 -26.138 -11.680  0.00  0.00    +0.188 HD
ENDBRANCH  21  28
ENDBRANCH   3  20
TORSDOF 5
ENDMDL
MODEL 8
REMARK VINA RESULT:     -10.7      3.329     11.592
REMARK  Name = 444581
REMARK  5 active torsions:
REMARK  status: ('A' for Active; 'I' for Inactive)
REMARK    1  A    between atoms: N_2  and  C_7
REMARK    2  A    between atoms: N_3  and  C_20
REMARK    3  A    between atoms: C_8  and  O_13
REMARK    4  A    between atoms: O_13  and  C_14
REMARK    5  A    between atoms: C_21  and  C_28
REMARK                            x       y       z     vdW  Elec       q    Type
REMARK                         _______ _______ _______ _____ _____    ______ ____
ROOT
ATOM      1  O   UNL     1      33.839 -19.496 -20.246  0.00  0.00    -0.252 OA
ATOM      2  N   UNL     1      35.731 -20.866 -20.121  0.00  0.00    -0.268 N 
ATOM      3  N   UNL     1      35.531 -19.359 -21.861  0.00  0.00    -0.268 N 
ATOM      4  C   UNL     1      34.919 -19.871 -20.691  0.00  0.00    +0.308 C 
ATOM      5  H   UNL     1      36.572 -21.058 -20.595  0.00  0.00    +0.156 HD
ATOM      6  H   UNL     1      36.399 -19.756 -22.098  0.00  0.00    +0.156 HD
ENDROOT
BRANCH   2   7
ATOM      7  C   UNL     1      35.488 -21.624 -18.953  0.00  0.00    +0.052 C 
ATOM      8  C   UNL     1      35.011 -23.108 -16.662  0.00  0.00    +0.145 C 
ATOM      9  C   UNL     1      34.291 -22.310 -18.826  0.00  0.00    +0.018 C 
ATOM     10  C   UNL     1      36.450 -21.665 -17.958  0.00  0.00    +0.018 C 
ATOM     11  C   UNL     1      34.050 -23.057 -17.673  0.00  0.00    +0.039 C 
ATOM     12  C   UNL     1      36.211 -22.412 -16.805  0.00  0.00    +0.039 C 
BRANCH   8  13
ATOM     13  O   UNL     1      34.776 -23.838 -15.538  0.00  0.00    -0.453 OA
BRANCH  13  14
ATOM     14  C   UNL     1      35.839 -24.540 -14.994  0.00  0.00    +0.145 C 
ATOM     15  C   UNL     1      36.066 -25.841 -15.401  0.00  0.00    +0.037 C 
ATOM     16  C   UNL     1      36.644 -23.920 -14.055  0.00  0.00    +0.037 C 
ATOM     17  C   UNL     1      37.136 -26.549 -14.852  0.00  0.00    +0.003 C 
ATOM     18  C   UNL     1      37.714 -24.628 -13.507  0.00  0.00    +0.003 C 
ATOM     19  C   UNL     1      37.960 -25.942 -13.905  0.00  0.00    +0.000 C 
ENDBRANCH  13  14
ENDBRANCH   8  13
ENDBRANCH   2   7
BRANCH   3  20
ATOM     20  C   UNL     1      35.065 -18.366 -22.724  0.00  0.00    +0.052 C 
ATOM     21  C   UNL     1      34.131 -16.382 -24.448  0.00  0.00    +0.031 C 
ATOM     22  C   UNL     1      34.692 -18.693 -24.027  0.00  0.00    +0.015 C 
ATOM     23  C   UNL     1      34.971 -17.046 -22.282  0.00  0.00    +0.015 C 
ATOM     24  C   UNL     1      34.225 -17.701 -24.890  0.00  0.00    +0.004 C 
ATOM     25  C   UNL     1      34.504 -16.054 -23.144  0.00  0.00    +0.004 C 
BRANCH  21  28
ATOM     26  N   UNL     1      33.418 -14.046 -24.898  0.00  0.00    -0.343 N 
ATOM     27  N   UNL     1      33.404 -15.633 -26.613  0.00  0.00    -0.285 NA
ATOM     28  C   UNL     1      33.644 -15.346 -25.346  0.00  0.00    +0.117 C 
ATOM     29  H   UNL     1      33.089 -13.361 -25.523  0.00  0.00    +0.144 HD
ATOM     30  H   UNL     1      33.588 -13.814 -23.957  0.00  0.00    +0.144 HD
ATOM     31  H   UNL     1      33.074 -14.935 -27.223  0.00  0.00    +0.188 HD
ENDBRANCH  21  28
ENDBRANCH   3  20
TORSDOF 5
ENDMDL
MODEL 9
REMARK VINA RESULT:     -10.7      2.363      3.561
REMARK  Name = 444581
REMARK  5 active torsions:
REMARK  status: ('A' for Active; 'I' for Inactive)
REMARK    1  A    between atoms: N_2  and  C_7
REMARK    2  A    between atoms: N_3  and  C_20
REMARK    3  A    between atoms: C_8  and  O_13
REMARK    4  A    between atoms: O_13  and  C_14
REMARK    5  A    between atoms: C_21  and  C_28
REMARK                            x       y       z     vdW  Elec       q    Type
REMARK                         _______ _______ _______ _____ _____    ______ ____
ROOT
ATOM      1  O   UNL     1      33.784 -15.714 -20.851  0.00  0.00    -0.252 OA
ATOM      2  N   UNL     1      33.798 -15.267 -23.146  0.00  0.00    -0.268 N 
ATOM      3  N   UNL     1      34.402 -17.365 -22.393  0.00  0.00    -0.268 N 
ATOM      4  C   UNL     1      33.973 -16.072 -22.009  0.00  0.00    +0.308 C 
ATOM      5  H   UNL     1      33.990 -15.696 -24.011  0.00  0.00    +0.156 HD
ATOM      6  H   UNL     1      34.512 -17.510 -23.360  0.00  0.00    +0.156 HD
ENDROOT
BRANCH   2   7
ATOM      7  C   UNL     1      33.381 -13.917 -23.201  0.00  0.00    +0.052 C 
ATOM      8  C   UNL     1      32.562 -11.272 -23.311  0.00  0.00    +0.145 C 
ATOM      9  C   UNL     1      32.307 -13.507 -22.429  0.00  0.00    +0.018 C 
ATOM     10  C   UNL     1      34.054 -13.032 -24.028  0.00  0.00    +0.018 C 
ATOM     11  C   UNL     1      31.894 -12.176 -22.483  0.00  0.00    +0.039 C 
ATOM     12  C   UNL     1      33.642 -11.700 -24.083  0.00  0.00    +0.039 C 
BRANCH   8  13
ATOM     13  O   UNL     1      32.161  -9.973 -23.363  0.00  0.00    -0.453 OA
BRANCH  13  14
ATOM     14  C   UNL     1      32.312  -9.206 -22.221  0.00  0.00    +0.145 C 
ATOM     15  C   UNL     1      32.949  -7.982 -22.310  0.00  0.00    +0.037 C 
ATOM     16  C   UNL     1      31.823  -9.685 -21.019  0.00  0.00    +0.037 C 
ATOM     17  C   UNL     1      33.103  -7.210 -21.159  0.00  0.00    +0.003 C 
ATOM     18  C   UNL     1      31.976  -8.913 -19.868  0.00  0.00    +0.003 C 
ATOM     19  C   UNL     1      32.616  -7.674 -19.937  0.00  0.00    +0.000 C 
ENDBRANCH  13  14
ENDBRANCH   8  13
ENDBRANCH   2   7
BRANCH   3  20
ATOM     20  C   UNL     1      34.690 -18.464 -21.582  0.00  0.00    +0.052 C 
ATOM     21  C   UNL     1      35.266 -20.661 -19.962  0.00  0.00    +0.031 C 
ATOM     22  C   UNL     1      33.659 -19.285 -21.127  0.00  0.00    +0.015 C 
ATOM     23  C   UNL     1      36.010 -18.742 -21.227  0.00  0.00    +0.015 C 
ATOM     24  C   UNL     1      33.946 -20.383 -20.317  0.00  0.00    +0.004 C 
ATOM     25  C   UNL     1      36.299 -19.840 -20.417  0.00  0.00    +0.004 C 
BRANCH  21  28
ATOM     26  N   UNL     1      36.657 -21.801 -18.250  0.00  0.00    -0.343 N 
ATOM     27  N   UNL     1      34.802 -22.882 -19.171  0.00  0.00    -0.285 NA
ATOM     28  C   UNL     1      35.567 -21.807 -19.118  0.00  0.00    +0.117 C 
ATOM     29  H   UNL     1      36.842 -22.586 -17.687  0.00  0.00    +0.144 HD
ATOM     30  H   UNL     1      37.240 -21.010 -18.199  0.00  0.00    +0.144 HD
ATOM     31  H   UNL     1      35.003 -23.659 -18.601  0.00  0.00    +0.188 HD
ENDBRANCH  21  28
ENDBRANCH   3  20
TORSDOF 5
ENDMDL
