MODEL 1
REMARK VINA RESULT:     -10.0      0.000      0.000
REMARK  Name = 10341154
REMARK  3 active torsions:
REMARK  status: ('A' for Active; 'I' for Inactive)
REMARK    1  A    between atoms: N_2  and  C_23
REMARK    2  A    between atoms: C_5  and  C_15
REMARK    3  A    between atoms: C_7  and  C_31
REMARK                            x       y       z     vdW  Elec       q    Type
REMARK                         _______ _______ _______ _____ _____    ______ ____
ROOT
ATOM      1  O   UNL     1      32.009 -25.198 -12.937  0.00  0.00    -0.252 OA
ATOM      2  N   UNL     1      31.139 -24.102 -14.862  0.00  0.00    -0.196 N 
ATOM      3  N   UNL     1      33.504 -24.036 -14.838  0.00  0.00    -0.390 NA
ATOM      4  N   UNL     1      29.757 -25.092 -13.215  0.00  0.00    -0.313 N 
ATOM      5  C   UNL     1      34.642 -23.646 -15.455  0.00  0.00    +0.139 C 
ATOM      6  C   UNL     1      32.347 -23.719 -15.461  0.00  0.00    +0.175 C 
ATOM      7  C   UNL     1      34.678 -22.958 -16.657  0.00  0.00    +0.079 C 
ATOM      8  C   UNL     1      32.274 -23.033 -16.663  0.00  0.00    +0.102 C 
ATOM      9  C   UNL     1      33.467 -22.649 -17.266  0.00  0.00    -0.010 C 
ATOM     10  C   UNL     1      31.052 -24.817 -13.619  0.00  0.00    +0.310 C 
ATOM     11  H   UNL     1      29.596 -25.579 -12.374  0.00  0.00    +0.147 HD
ATOM     12  H   UNL     1      28.996 -24.802 -13.769  0.00  0.00    +0.147 HD
ENDROOT
BRANCH   5  15
ATOM     13  F   UNL     1      35.874 -26.148 -15.800  0.00  0.00    -0.204 F 
ATOM     14  F   UNL     1      39.289 -25.059 -12.715  0.00  0.00    -0.204 F 
ATOM     15  C   UNL     1      35.848 -24.016 -14.746  0.00  0.00    +0.057 C 
ATOM     16  C   UNL     1      36.425 -25.269 -14.951  0.00  0.00    +0.145 C 
ATOM     17  C   UNL     1      36.433 -23.115 -13.856  0.00  0.00    +0.007 C 
ATOM     18  C   UNL     1      37.587 -25.622 -14.265  0.00  0.00    +0.059 C 
ATOM     19  C   UNL     1      37.596 -23.468 -13.170  0.00  0.00    +0.030 C 
ATOM     20  C   UNL     1      38.173 -24.721 -13.375  0.00  0.00    +0.142 C 
ENDBRANCH   5  15
BRANCH   2  23
ATOM     21  F   UNL     1      29.913 -21.649 -14.446  0.00  0.00    -0.203 F 
ATOM     22  F   UNL     1      29.925 -25.876 -16.616  0.00  0.00    -0.203 F 
ATOM     23  C   UNL     1      29.893 -23.755 -15.545  0.00  0.00    +0.116 C 
ATOM     24  C   UNL     1      29.354 -22.531 -15.287  0.00  0.00    +0.156 C 
ATOM     25  C   UNL     1      29.360 -24.680 -16.391  0.00  0.00    +0.156 C 
ATOM     26  C   UNL     1      28.165 -22.200 -15.938  0.00  0.00    +0.031 C 
ATOM     27  C   UNL     1      28.172 -24.349 -17.043  0.00  0.00    +0.031 C 
ATOM     28  C   UNL     1      27.574 -23.109 -16.816  0.00  0.00    +0.005 C 
ENDBRANCH   2  23
BRANCH   7  31
ATOM     29  O   UNL     1      37.022 -22.757 -16.756  0.00  0.00    -0.270 OA
ATOM     30  N   UNL     1      35.838 -21.951 -18.548  0.00  0.00    -0.325 N 
ATOM     31  C   UNL     1      35.923 -22.555 -17.297  0.00  0.00    +0.245 C 
ATOM     32  H   UNL     1      36.658 -21.665 -19.012  0.00  0.00    +0.145 HD
ATOM     33  H   UNL     1      34.960 -21.810 -18.968  0.00  0.00    +0.145 HD
ENDBRANCH   7  31
TORSDOF 3
ENDMDL
MODEL 2
REMARK VINA RESULT:      -9.8     13.844     16.258
REMARK  Name = 10341154
REMARK  3 active torsions:
REMARK  status: ('A' for Active; 'I' for Inactive)
REMARK    1  A    between atoms: N_2  and  C_23
REMARK    2  A    between atoms: C_5  and  C_15
REMARK    3  A    between atoms: C_7  and  C_31
REMARK                            x       y       z     vdW  Elec       q    Type
REMARK                         _______ _______ _______ _____ _____    ______ ____
ROOT
ATOM      1  O   UNL     1      31.299 -12.329 -21.256  0.00  0.00    -0.252 OA
ATOM      2  N   UNL     1      32.935 -12.944 -22.871  0.00  0.00    -0.196 N 
ATOM      3  N   UNL     1      32.738 -10.592 -22.711  0.00  0.00    -0.390 NA
ATOM      4  N   UNL     1      31.690 -14.534 -21.634  0.00  0.00    -0.313 N 
ATOM      5  C   UNL     1      33.157  -9.379 -23.135  0.00  0.00    +0.139 C 
ATOM      6  C   UNL     1      33.335 -11.664 -23.278  0.00  0.00    +0.175 C 
ATOM      7  C   UNL     1      34.139  -9.188 -24.093  0.00  0.00    +0.079 C 
ATOM      8  C   UNL     1      34.325 -11.582 -24.244  0.00  0.00    +0.102 C 
ATOM      9  C   UNL     1      34.729 -10.315 -24.654  0.00  0.00    -0.010 C 
ATOM     10  C   UNL     1      31.923 -13.191 -21.881  0.00  0.00    +0.310 C 
ATOM     11  H   UNL     1      31.013 -14.802 -20.971  0.00  0.00    +0.147 HD
ATOM     12  H   UNL     1      32.201 -15.220 -22.122  0.00  0.00    +0.147 HD
ENDROOT
BRANCH   5  15
ATOM     13  F   UNL     1      31.155  -7.888 -24.425  0.00  0.00    -0.204 F 
ATOM     14  F   UNL     1      30.587  -5.102 -20.645  0.00  0.00    -0.204 F 
ATOM     15  C   UNL     1      32.488  -8.270 -22.491  0.00  0.00    +0.057 C 
ATOM     16  C   UNL     1      31.498  -7.559 -23.171  0.00  0.00    +0.145 C 
ATOM     17  C   UNL     1      32.835  -7.911 -21.189  0.00  0.00    +0.007 C 
ATOM     18  C   UNL     1      30.856  -6.489 -22.548  0.00  0.00    +0.059 C 
ATOM     19  C   UNL     1      32.192  -6.841 -20.565  0.00  0.00    +0.030 C 
ATOM     20  C   UNL     1      31.203  -6.130 -21.245  0.00  0.00    +0.142 C 
ENDBRANCH   5  15
BRANCH   2  23
ATOM     21  F   UNL     1      32.214 -13.809 -25.406  0.00  0.00    -0.203 F 
ATOM     22  F   UNL     1      34.936 -14.338 -21.548  0.00  0.00    -0.203 F 
ATOM     23  C   UNL     1      33.588 -14.097 -23.490  0.00  0.00    +0.116 C 
ATOM     24  C   UNL     1      33.177 -14.459 -24.737  0.00  0.00    +0.156 C 
ATOM     25  C   UNL     1      34.562 -14.727 -22.775  0.00  0.00    +0.156 C 
ATOM     26  C   UNL     1      33.801 -15.559 -25.328  0.00  0.00    +0.031 C 
ATOM     27  C   UNL     1      35.185 -15.827 -23.366  0.00  0.00    +0.031 C 
ATOM     28  C   UNL     1      34.805 -16.243 -24.642  0.00  0.00    +0.005 C 
ENDBRANCH   2  23
BRANCH   7  31
ATOM     29  O   UNL     1      34.251  -7.413 -25.637  0.00  0.00    -0.270 OA
ATOM     30  N   UNL     1      35.343  -7.119 -23.641  0.00  0.00    -0.325 N 
ATOM     31  C   UNL     1      34.571  -7.866 -24.526  0.00  0.00    +0.245 C 
ATOM     32  H   UNL     1      35.654  -6.220 -23.898  0.00  0.00    +0.145 HD
ATOM     33  H   UNL     1      35.577  -7.487 -22.760  0.00  0.00    +0.145 HD
ENDBRANCH   7  31
TORSDOF 3
ENDMDL
MODEL 3
REMARK VINA RESULT:      -9.8     13.844     16.238
REMARK  Name = 10341154
REMARK  3 active torsions:
REMARK  status: ('A' for Active; 'I' for Inactive)
REMARK    1  A    between atoms: N_2  and  C_23
REMARK    2  A    between atoms: C_5  and  C_15
REMARK    3  A    between atoms: C_7  and  C_31
REMARK                            x       y       z     vdW  Elec       q    Type
REMARK                         _______ _______ _______ _____ _____    ______ ____
ROOT
ATOM      1  O   UNL     1      31.300 -12.329 -21.257  0.00  0.00    -0.252 OA
ATOM      2  N   UNL     1      32.936 -12.944 -22.872  0.00  0.00    -0.196 N 
ATOM      3  N   UNL     1      32.739 -10.592 -22.711  0.00  0.00    -0.390 NA
ATOM      4  N   UNL     1      31.690 -14.534 -21.636  0.00  0.00    -0.313 N 
ATOM      5  C   UNL     1      33.158  -9.379 -23.135  0.00  0.00    +0.139 C 
ATOM      6  C   UNL     1      33.335 -11.664 -23.279  0.00  0.00    +0.175 C 
ATOM      7  C   UNL     1      34.140  -9.188 -24.093  0.00  0.00    +0.079 C 
ATOM      8  C   UNL     1      34.326 -11.582 -24.245  0.00  0.00    +0.102 C 
ATOM      9  C   UNL     1      34.730 -10.315 -24.654  0.00  0.00    -0.010 C 
ATOM     10  C   UNL     1      31.924 -13.191 -21.882  0.00  0.00    +0.310 C 
ATOM     11  H   UNL     1      31.013 -14.802 -20.973  0.00  0.00    +0.147 HD
ATOM     12  H   UNL     1      32.201 -15.220 -22.124  0.00  0.00    +0.147 HD
ENDROOT
BRANCH   5  15
ATOM     13  F   UNL     1      31.157  -7.887 -24.425  0.00  0.00    -0.204 F 
ATOM     14  F   UNL     1      30.588  -5.102 -20.645  0.00  0.00    -0.204 F 
ATOM     15  C   UNL     1      32.489  -8.270 -22.491  0.00  0.00    +0.057 C 
ATOM     16  C   UNL     1      31.500  -7.558 -23.171  0.00  0.00    +0.145 C 
ATOM     17  C   UNL     1      32.836  -7.912 -21.189  0.00  0.00    +0.007 C 
ATOM     18  C   UNL     1      30.858  -6.488 -22.548  0.00  0.00    +0.059 C 
ATOM     19  C   UNL     1      32.193  -6.841 -20.565  0.00  0.00    +0.030 C 
ATOM     20  C   UNL     1      31.204  -6.130 -21.244  0.00  0.00    +0.142 C 
ENDBRANCH   5  15
BRANCH   2  23
ATOM     21  F   UNL     1      34.935 -14.339 -21.549  0.00  0.00    -0.203 F 
ATOM     22  F   UNL     1      32.216 -13.807 -25.408  0.00  0.00    -0.203 F 
ATOM     23  C   UNL     1      33.589 -14.097 -23.491  0.00  0.00    +0.116 C 
ATOM     24  C   UNL     1      34.562 -14.729 -22.776  0.00  0.00    +0.156 C 
ATOM     25  C   UNL     1      33.178 -14.458 -24.738  0.00  0.00    +0.156 C 
ATOM     26  C   UNL     1      35.184 -15.829 -23.367  0.00  0.00    +0.031 C 
ATOM     27  C   UNL     1      33.800 -15.559 -25.329  0.00  0.00    +0.031 C 
ATOM     28  C   UNL     1      34.804 -16.244 -24.643  0.00  0.00    +0.005 C 
ENDBRANCH   2  23
BRANCH   7  31
ATOM     29  O   UNL     1      34.253  -7.413 -25.636  0.00  0.00    -0.270 OA
ATOM     30  N   UNL     1      35.344  -7.119 -23.640  0.00  0.00    -0.325 N 
ATOM     31  C   UNL     1      34.573  -7.866 -24.525  0.00  0.00    +0.245 C 
ATOM     32  H   UNL     1      35.655  -6.220 -23.897  0.00  0.00    +0.145 HD
ATOM     33  H   UNL     1      35.578  -7.487 -22.759  0.00  0.00    +0.145 HD
ENDBRANCH   7  31
TORSDOF 3
ENDMDL
MODEL 4
REMARK VINA RESULT:      -9.0     11.071     13.667
REMARK  Name = 10341154
REMARK  3 active torsions:
REMARK  status: ('A' for Active; 'I' for Inactive)
REMARK    1  A    between atoms: N_2  and  C_23
REMARK    2  A    between atoms: C_5  and  C_15
REMARK    3  A    between atoms: C_7  and  C_31
REMARK                            x       y       z     vdW  Elec       q    Type
REMARK                         _______ _______ _______ _____ _____    ______ ____
ROOT
ATOM      1  O   UNL     1      34.817 -13.934 -20.592  0.00  0.00    -0.252 OA
ATOM      2  N   UNL     1      34.381 -15.889 -21.876  0.00  0.00    -0.196 N 
ATOM      3  N   UNL     1      34.114 -13.935 -23.181  0.00  0.00    -0.390 NA
ATOM      4  N   UNL     1      34.982 -15.964 -19.586  0.00  0.00    -0.313 N 
ATOM      5  C   UNL     1      33.819 -13.397 -24.386  0.00  0.00    +0.139 C 
ATOM      6  C   UNL     1      34.081 -15.284 -23.103  0.00  0.00    +0.175 C 
ATOM      7  C   UNL     1      33.495 -14.139 -25.510  0.00  0.00    +0.079 C 
ATOM      8  C   UNL     1      33.769 -16.116 -24.166  0.00  0.00    +0.102 C 
ATOM      9  C   UNL     1      33.471 -15.524 -25.389  0.00  0.00    -0.010 C 
ATOM     10  C   UNL     1      34.723 -15.161 -20.685  0.00  0.00    +0.310 C 
ATOM     11  H   UNL     1      35.225 -15.555 -18.724  0.00  0.00    +0.147 HD
ATOM     12  H   UNL     1      34.923 -16.944 -19.668  0.00  0.00    +0.147 HD
ENDROOT
BRANCH   5  15
ATOM     13  F   UNL     1      32.114 -11.807 -22.815  0.00  0.00    -0.204 F 
ATOM     14  F   UNL     1      34.035  -7.826 -24.498  0.00  0.00    -0.204 F 
ATOM     15  C   UNL     1      33.873 -11.951 -24.412  0.00  0.00    +0.057 C 
ATOM     16  C   UNL     1      33.007 -11.203 -23.613  0.00  0.00    +0.145 C 
ATOM     17  C   UNL     1      34.793 -11.306 -25.238  0.00  0.00    +0.007 C 
ATOM     18  C   UNL     1      33.061  -9.810 -23.642  0.00  0.00    +0.059 C 
ATOM     19  C   UNL     1      34.847  -9.912 -25.267  0.00  0.00    +0.030 C 
ATOM     20  C   UNL     1      33.982  -9.164 -24.469  0.00  0.00    +0.142 C 
ENDBRANCH   5  15
BRANCH   2  23
ATOM     21  F   UNL     1      32.231 -17.213 -20.727  0.00  0.00    -0.203 F 
ATOM     22  F   UNL     1      36.460 -17.426 -22.882  0.00  0.00    -0.203 F 
ATOM     23  C   UNL     1      34.345 -17.350 -21.803  0.00  0.00    +0.116 C 
ATOM     24  C   UNL     1      33.254 -17.924 -21.223  0.00  0.00    +0.156 C 
ATOM     25  C   UNL     1      35.404 -18.032 -22.320  0.00  0.00    +0.156 C 
ATOM     26  C   UNL     1      33.219 -19.317 -21.154  0.00  0.00    +0.031 C 
ATOM     27  C   UNL     1      35.369 -19.425 -22.251  0.00  0.00    +0.031 C 
ATOM     28  C   UNL     1      34.276 -20.068 -21.668  0.00  0.00    +0.005 C 
ENDBRANCH   2  23
BRANCH   7  31
ATOM     29  O   UNL     1      34.060 -13.367 -27.661  0.00  0.00    -0.270 OA
ATOM     30  N   UNL     1      31.867 -13.149 -27.027  0.00  0.00    -0.325 N 
ATOM     31  C   UNL     1      33.185 -13.529 -26.795  0.00  0.00    +0.245 C 
ATOM     32  H   UNL     1      31.619 -12.733 -27.885  0.00  0.00    +0.145 HD
ATOM     33  H   UNL     1      31.183 -13.296 -26.336  0.00  0.00    +0.145 HD
ENDBRANCH   7  31
TORSDOF 3
ENDMDL
MODEL 5
REMARK VINA RESULT:      -9.0     11.053     13.676
REMARK  Name = 10341154
REMARK  3 active torsions:
REMARK  status: ('A' for Active; 'I' for Inactive)
REMARK    1  A    between atoms: N_2  and  C_23
REMARK    2  A    between atoms: C_5  and  C_15
REMARK    3  A    between atoms: C_7  and  C_31
REMARK                            x       y       z     vdW  Elec       q    Type
REMARK                         _______ _______ _______ _____ _____    ______ ____
ROOT
ATOM      1  O   UNL     1      34.801 -13.953 -20.572  0.00  0.00    -0.252 OA
ATOM      2  N   UNL     1      34.386 -15.906 -21.868  0.00  0.00    -0.196 N 
ATOM      3  N   UNL     1      34.104 -13.947 -23.164  0.00  0.00    -0.390 NA
ATOM      4  N   UNL     1      34.981 -15.987 -19.577  0.00  0.00    -0.313 N 
ATOM      5  C   UNL     1      33.808 -13.406 -24.366  0.00  0.00    +0.139 C 
ATOM      6  C   UNL     1      34.084 -15.297 -23.093  0.00  0.00    +0.175 C 
ATOM      7  C   UNL     1      33.493 -14.146 -25.495  0.00  0.00    +0.079 C 
ATOM      8  C   UNL     1      33.782 -16.127 -24.161  0.00  0.00    +0.102 C 
ATOM      9  C   UNL     1      33.482 -15.531 -25.382  0.00  0.00    -0.010 C 
ATOM     10  C   UNL     1      34.718 -15.181 -20.672  0.00  0.00    +0.310 C 
ATOM     11  H   UNL     1      35.218 -15.581 -18.712  0.00  0.00    +0.147 HD
ATOM     12  H   UNL     1      34.931 -16.967 -19.664  0.00  0.00    +0.147 HD
ENDROOT
BRANCH   5  15
ATOM     13  F   UNL     1      32.057 -11.840 -22.823  0.00  0.00    -0.204 F 
ATOM     14  F   UNL     1      33.973  -7.833 -24.449  0.00  0.00    -0.204 F 
ATOM     15  C   UNL     1      33.848 -11.960 -24.384  0.00  0.00    +0.057 C 
ATOM     16  C   UNL     1      32.960 -11.224 -23.600  0.00  0.00    +0.145 C 
ATOM     17  C   UNL     1      34.778 -11.303 -25.190  0.00  0.00    +0.007 C 
ATOM     18  C   UNL     1      33.002  -9.830 -23.622  0.00  0.00    +0.059 C 
ATOM     19  C   UNL     1      34.820  -9.908 -25.211  0.00  0.00    +0.030 C 
ATOM     20  C   UNL     1      33.932  -9.171 -24.427  0.00  0.00    +0.142 C 
ENDBRANCH   5  15
BRANCH   2  23
ATOM     21  F   UNL     1      36.474 -17.419 -22.891  0.00  0.00    -0.203 F 
ATOM     22  F   UNL     1      32.253 -17.255 -20.717  0.00  0.00    -0.203 F 
ATOM     23  C   UNL     1      34.363 -17.367 -21.802  0.00  0.00    +0.116 C 
ATOM     24  C   UNL     1      35.426 -18.038 -22.327  0.00  0.00    +0.156 C 
ATOM     25  C   UNL     1      33.280 -17.954 -21.221  0.00  0.00    +0.156 C 
ATOM     26  C   UNL     1      35.404 -19.432 -22.264  0.00  0.00    +0.031 C 
ATOM     27  C   UNL     1      33.258 -19.347 -21.158  0.00  0.00    +0.031 C 
ATOM     28  C   UNL     1      34.320 -20.086 -21.680  0.00  0.00    +0.005 C 
ENDBRANCH   2  23
BRANCH   7  31
ATOM     29  O   UNL     1      34.058 -13.357 -27.640  0.00  0.00    -0.270 OA
ATOM     30  N   UNL     1      31.860 -13.162 -27.012  0.00  0.00    -0.325 N 
ATOM     31  C   UNL     1      33.182 -13.531 -26.778  0.00  0.00    +0.245 C 
ATOM     32  H   UNL     1      31.611 -12.744 -27.868  0.00  0.00    +0.145 HD
ATOM     33  H   UNL     1      31.176 -13.319 -26.323  0.00  0.00    +0.145 HD
ENDBRANCH   7  31
TORSDOF 3
ENDMDL
MODEL 6
REMARK VINA RESULT:      -8.8     17.405     19.596
REMARK  Name = 10341154
REMARK  3 active torsions:
REMARK  status: ('A' for Active; 'I' for Inactive)
REMARK    1  A    between atoms: N_2  and  C_23
REMARK    2  A    between atoms: C_5  and  C_15
REMARK    3  A    between atoms: C_7  and  C_31
REMARK                            x       y       z     vdW  Elec       q    Type
REMARK                         _______ _______ _______ _____ _____    ______ ____
ROOT
ATOM      1  O   UNL     1      33.845  -9.405 -24.640  0.00  0.00    -0.252 OA
ATOM      2  N   UNL     1      32.486  -8.947 -22.740  0.00  0.00    -0.196 N 
ATOM      3  N   UNL     1      32.655  -7.051 -24.145  0.00  0.00    -0.390 NA
ATOM      4  N   UNL     1      33.520 -11.047 -23.104  0.00  0.00    -0.313 N 
ATOM      5  C   UNL     1      32.309  -5.765 -24.374  0.00  0.00    +0.139 C 
ATOM      6  C   UNL     1      32.156  -7.615 -23.022  0.00  0.00    +0.175 C 
ATOM      7  C   UNL     1      31.491  -5.020 -23.540  0.00  0.00    +0.079 C 
ATOM      8  C   UNL     1      31.332  -6.957 -22.122  0.00  0.00    +0.102 C 
ATOM      9  C   UNL     1      30.998  -5.635 -22.395  0.00  0.00    -0.010 C 
ATOM     10  C   UNL     1      33.328  -9.759 -23.575  0.00  0.00    +0.310 C 
ATOM     11  H   UNL     1      34.083 -11.677 -23.609  0.00  0.00    +0.147 HD
ATOM     12  H   UNL     1      33.093 -11.331 -22.263  0.00  0.00    +0.147 HD
ENDROOT
BRANCH   5  15
ATOM     13  F   UNL     1      34.986  -6.188 -25.116  0.00  0.00    -0.204 F 
ATOM     14  F   UNL     1      34.451  -3.637 -29.062  0.00  0.00    -0.204 F 
ATOM     15  C   UNL     1      32.867  -5.215 -25.590  0.00  0.00    +0.057 C 
ATOM     16  C   UNL     1      34.203  -5.452 -25.918  0.00  0.00    +0.145 C 
ATOM     17  C   UNL     1      32.068  -4.445 -26.435  0.00  0.00    +0.007 C 
ATOM     18  C   UNL     1      34.738  -4.920 -27.091  0.00  0.00    +0.059 C 
ATOM     19  C   UNL     1      32.603  -3.913 -27.608  0.00  0.00    +0.030 C 
ATOM     20  C   UNL     1      33.938  -4.150 -27.936  0.00  0.00    +0.142 C 
ENDBRANCH   5  15
BRANCH   2  23
ATOM     21  F   UNL     1      30.529 -10.909 -22.866  0.00  0.00    -0.203 F 
ATOM     22  F   UNL     1      33.373  -8.162 -20.232  0.00  0.00    -0.203 F 
ATOM     23  C   UNL     1      31.940  -9.548 -21.524  0.00  0.00    +0.116 C 
ATOM     24  C   UNL     1      30.981 -10.505 -21.670  0.00  0.00    +0.156 C 
ATOM     25  C   UNL     1      32.429  -9.109 -20.331  0.00  0.00    +0.156 C 
ATOM     26  C   UNL     1      30.460 -11.079 -20.510  0.00  0.00    +0.031 C 
ATOM     27  C   UNL     1      31.908  -9.682 -19.170  0.00  0.00    +0.031 C 
ATOM     28  C   UNL     1      30.924 -10.667 -19.260  0.00  0.00    +0.005 C 
ENDBRANCH   2  23
BRANCH   7  31
ATOM     29  O   UNL     1      30.181  -3.353 -24.564  0.00  0.00    -0.270 OA
ATOM     30  N   UNL     1      31.885  -2.640 -23.203  0.00  0.00    -0.325 N 
ATOM     31  C   UNL     1      31.133  -3.636 -23.818  0.00  0.00    +0.245 C 
ATOM     32  H   UNL     1      31.673  -1.692 -23.367  0.00  0.00    +0.145 HD
ATOM     33  H   UNL     1      32.627  -2.881 -22.605  0.00  0.00    +0.145 HD
ENDBRANCH   7  31
TORSDOF 3
ENDMDL
MODEL 7
REMARK VINA RESULT:      -8.8     13.371     16.025
REMARK  Name = 10341154
REMARK  3 active torsions:
REMARK  status: ('A' for Active; 'I' for Inactive)
REMARK    1  A    between atoms: N_2  and  C_23
REMARK    2  A    between atoms: C_5  and  C_15
REMARK    3  A    between atoms: C_7  and  C_31
REMARK                            x       y       z     vdW  Elec       q    Type
REMARK                         _______ _______ _______ _____ _____    ______ ____
ROOT
ATOM      1  O   UNL     1      33.984 -10.433 -25.446  0.00  0.00    -0.252 OA
ATOM      2  N   UNL     1      33.485 -12.566 -24.517  0.00  0.00    -0.196 N 
ATOM      3  N   UNL     1      32.749 -10.824 -23.096  0.00  0.00    -0.390 NA
ATOM      4  N   UNL     1      34.595 -12.297 -26.591  0.00  0.00    -0.313 N 
ATOM      5  C   UNL     1      32.137 -10.472 -21.943  0.00  0.00    +0.139 C 
ATOM      6  C   UNL     1      32.860 -12.151 -23.334  0.00  0.00    +0.175 C 
ATOM      7  C   UNL     1      31.634 -11.377 -21.022  0.00  0.00    +0.079 C 
ATOM      8  C   UNL     1      32.391 -13.136 -22.479  0.00  0.00    +0.102 C 
ATOM      9  C   UNL     1      31.767 -12.732 -21.303  0.00  0.00    -0.010 C 
ATOM     10  C   UNL     1      34.021 -11.666 -25.500  0.00  0.00    +0.310 C 
ATOM     11  H   UNL     1      34.989 -11.762 -27.318  0.00  0.00    +0.147 HD
ATOM     12  H   UNL     1      34.607 -13.281 -26.640  0.00  0.00    +0.147 HD
ENDROOT
BRANCH   5  15
ATOM     13  F   UNL     1      30.671  -8.811 -23.671  0.00  0.00    -0.204 F 
ATOM     14  F   UNL     1      31.789  -4.962 -21.160  0.00  0.00    -0.204 F 
ATOM     15  C   UNL     1      32.044  -9.042 -21.742  0.00  0.00    +0.057 C 
ATOM     16  C   UNL     1      31.303  -8.257 -22.626  0.00  0.00    +0.145 C 
ATOM     17  C   UNL     1      32.699  -8.449 -20.663  0.00  0.00    +0.007 C 
ATOM     18  C   UNL     1      31.217  -6.879 -22.430  0.00  0.00    +0.059 C 
ATOM     19  C   UNL     1      32.612  -7.071 -20.466  0.00  0.00    +0.030 C 
ATOM     20  C   UNL     1      31.871  -6.285 -21.350  0.00  0.00    +0.142 C 
ENDBRANCH   5  15
BRANCH   2  23
ATOM     21  F   UNL     1      32.163 -13.760 -26.643  0.00  0.00    -0.203 F 
ATOM     22  F   UNL     1      35.028 -14.187 -22.878  0.00  0.00    -0.203 F 
ATOM     23  C   UNL     1      33.598 -14.004 -24.766  0.00  0.00    +0.116 C 
ATOM     24  C   UNL     1      32.918 -14.513 -25.830  0.00  0.00    +0.156 C 
ATOM     25  C   UNL     1      34.376 -14.730 -23.916  0.00  0.00    +0.156 C 
ATOM     26  C   UNL     1      33.026 -15.884 -26.068  0.00  0.00    +0.031 C 
ATOM     27  C   UNL     1      34.484 -16.101 -24.154  0.00  0.00    +0.031 C 
ATOM     28  C   UNL     1      33.809 -16.678 -25.230  0.00  0.00    +0.005 C 
ENDBRANCH   2  23
BRANCH   7  31
ATOM     29  O   UNL     1      29.748 -10.784 -19.742  0.00  0.00    -0.270 OA
ATOM     30  N   UNL     1      31.771 -10.795 -18.661  0.00  0.00    -0.325 N 
ATOM     31  C   UNL     1      30.976 -10.964 -19.791  0.00  0.00    +0.245 C 
ATOM     32  H   UNL     1      31.363 -10.516 -17.809  0.00  0.00    +0.145 HD
ATOM     33  H   UNL     1      32.740 -10.954 -18.713  0.00  0.00    +0.145 HD
ENDBRANCH   7  31
TORSDOF 3
ENDMDL
MODEL 8
REMARK VINA RESULT:      -8.5     13.722     15.715
REMARK  Name = 10341154
REMARK  3 active torsions:
REMARK  status: ('A' for Active; 'I' for Inactive)
REMARK    1  A    between atoms: N_2  and  C_23
REMARK    2  A    between atoms: C_5  and  C_15
REMARK    3  A    between atoms: C_7  and  C_31
REMARK                            x       y       z     vdW  Elec       q    Type
REMARK                         _______ _______ _______ _____ _____    ______ ____
ROOT
ATOM      1  O   UNL     1      31.215 -12.164 -21.201  0.00  0.00    -0.252 OA
ATOM      2  N   UNL     1      31.945 -10.000 -21.869  0.00  0.00    -0.196 N 
ATOM      3  N   UNL     1      32.795 -11.671 -23.313  0.00  0.00    -0.390 NA
ATOM      4  N   UNL     1      30.563 -10.363 -19.981  0.00  0.00    -0.313 N 
ATOM      5  C   UNL     1      33.537 -11.969 -24.403  0.00  0.00    +0.139 C 
ATOM      6  C   UNL     1      32.705 -10.361 -22.990  0.00  0.00    +0.175 C 
ATOM      7  C   UNL     1      34.189 -11.026 -25.181  0.00  0.00    +0.079 C 
ATOM      8  C   UNL     1      33.318  -9.341 -23.701  0.00  0.00    +0.102 C 
ATOM      9  C   UNL     1      34.073  -9.690 -24.816  0.00  0.00    -0.010 C 
ATOM     10  C   UNL     1      31.252 -10.942 -21.034  0.00  0.00    +0.310 C 
ATOM     11  H   UNL     1      30.057 -10.928 -19.354  0.00  0.00    +0.147 HD
ATOM     12  H   UNL     1      30.580  -9.385 -19.860  0.00  0.00    +0.147 HD
ENDROOT
BRANCH   5  15
ATOM     13  F   UNL     1      34.785 -13.813 -22.687  0.00  0.00    -0.204 F 
ATOM     14  F   UNL     1      33.759 -17.417 -25.573  0.00  0.00    -0.204 F 
ATOM     15  C   UNL     1      33.595 -13.383 -24.703  0.00  0.00    +0.057 C 
ATOM     16  C   UNL     1      34.225 -14.262 -23.820  0.00  0.00    +0.145 C 
ATOM     17  C   UNL     1      33.022 -13.867 -25.878  0.00  0.00    +0.007 C 
ATOM     18  C   UNL     1      34.280 -15.624 -24.114  0.00  0.00    +0.059 C 
ATOM     19  C   UNL     1      33.077 -15.230 -26.172  0.00  0.00    +0.030 C 
ATOM     20  C   UNL     1      33.706 -16.109 -25.289  0.00  0.00    +0.142 C 
ENDBRANCH   5  15
BRANCH   2  23
ATOM     21  F   UNL     1      30.586  -8.221 -23.507  0.00  0.00    -0.203 F 
ATOM     22  F   UNL     1      33.123  -8.999 -19.566  0.00  0.00    -0.203 F 
ATOM     23  C   UNL     1      31.853  -8.580 -21.530  0.00  0.00    +0.116 C 
ATOM     24  C   UNL     1      31.168  -7.772 -22.386  0.00  0.00    +0.156 C 
ATOM     25  C   UNL     1      32.457  -8.168 -20.381  0.00  0.00    +0.156 C 
ATOM     26  C   UNL     1      31.079  -6.418 -22.062  0.00  0.00    +0.031 C 
ATOM     27  C   UNL     1      32.368  -6.813 -20.057  0.00  0.00    +0.031 C 
ATOM     28  C   UNL     1      31.679  -5.938 -20.898  0.00  0.00    +0.005 C 
ENDBRANCH   2  23
BRANCH   7  31
ATOM     29  O   UNL     1      34.574 -12.219 -27.174  0.00  0.00    -0.270 OA
ATOM     30  N   UNL     1      36.197 -10.733 -26.528  0.00  0.00    -0.325 N 
ATOM     31  C   UNL     1      34.979 -11.381 -26.352  0.00  0.00    +0.245 C 
ATOM     32  H   UNL     1      36.759 -10.946 -27.308  0.00  0.00    +0.145 HD
ATOM     33  H   UNL     1      36.497 -10.062 -25.875  0.00  0.00    +0.145 HD
ENDBRANCH   7  31
TORSDOF 3
ENDMDL
MODEL 9
REMARK VINA RESULT:      -8.5     13.704     15.679
REMARK  Name = 10341154
REMARK  3 active torsions:
REMARK  status: ('A' for Active; 'I' for Inactive)
REMARK    1  A    between atoms: N_2  and  C_23
REMARK    2  A    between atoms: C_5  and  C_15
REMARK    3  A    between atoms: C_7  and  C_31
REMARK                            x       y       z     vdW  Elec       q    Type
REMARK                         _______ _______ _______ _____ _____    ______ ____
ROOT
ATOM      1  O   UNL     1      31.216 -12.177 -21.178  0.00  0.00    -0.252 OA
ATOM      2  N   UNL     1      31.941 -10.014 -21.854  0.00  0.00    -0.196 N 
ATOM      3  N   UNL     1      32.787 -11.686 -23.297  0.00  0.00    -0.390 NA
ATOM      4  N   UNL     1      30.567 -10.374 -19.959  0.00  0.00    -0.313 N 
ATOM      5  C   UNL     1      33.526 -11.986 -24.389  0.00  0.00    +0.139 C 
ATOM      6  C   UNL     1      32.697 -10.376 -22.977  0.00  0.00    +0.175 C 
ATOM      7  C   UNL     1      34.174 -11.044 -25.172  0.00  0.00    +0.079 C 
ATOM      8  C   UNL     1      33.306  -9.357 -23.692  0.00  0.00    +0.102 C 
ATOM      9  C   UNL     1      34.057  -9.707 -24.810  0.00  0.00    -0.010 C 
ATOM     10  C   UNL     1      31.252 -10.954 -21.014  0.00  0.00    +0.310 C 
ATOM     11  H   UNL     1      30.064 -10.938 -19.329  0.00  0.00    +0.147 HD
ATOM     12  H   UNL     1      30.583  -9.396 -19.841  0.00  0.00    +0.147 HD
ENDROOT
BRANCH   5  15
ATOM     13  F   UNL     1      34.790 -13.823 -22.678  0.00  0.00    -0.204 F 
ATOM     14  F   UNL     1      33.750 -17.436 -25.547  0.00  0.00    -0.204 F 
ATOM     15  C   UNL     1      33.585 -13.401 -24.686  0.00  0.00    +0.057 C 
ATOM     16  C   UNL     1      34.223 -14.276 -23.806  0.00  0.00    +0.145 C 
ATOM     17  C   UNL     1      33.003 -13.889 -25.856  0.00  0.00    +0.007 C 
ATOM     18  C   UNL     1      34.279 -15.639 -24.097  0.00  0.00    +0.059 C 
ATOM     19  C   UNL     1      33.059 -15.253 -26.146  0.00  0.00    +0.030 C 
ATOM     20  C   UNL     1      33.697 -16.128 -25.267  0.00  0.00    +0.142 C 
ENDBRANCH   5  15
BRANCH   2  23
ATOM     21  F   UNL     1      33.123  -9.005 -19.556  0.00  0.00    -0.203 F 
ATOM     22  F   UNL     1      30.577  -8.240 -23.493  0.00  0.00    -0.203 F 
ATOM     23  C   UNL     1      31.848  -8.593 -21.517  0.00  0.00    +0.116 C 
ATOM     24  C   UNL     1      32.455  -8.177 -20.371  0.00  0.00    +0.156 C 
ATOM     25  C   UNL     1      31.161  -7.787 -22.374  0.00  0.00    +0.156 C 
ATOM     26  C   UNL     1      32.367  -6.822 -20.050  0.00  0.00    +0.031 C 
ATOM     27  C   UNL     1      31.073  -6.432 -22.054  0.00  0.00    +0.031 C 
ATOM     28  C   UNL     1      31.675  -5.949 -20.892  0.00  0.00    +0.005 C 
ENDBRANCH   2  23
BRANCH   7  31
ATOM     29  O   UNL     1      34.556 -12.247 -27.159  0.00  0.00    -0.270 OA
ATOM     30  N   UNL     1      36.172 -10.745 -26.532  0.00  0.00    -0.325 N 
ATOM     31  C   UNL     1      34.959 -11.400 -26.345  0.00  0.00    +0.245 C 
ATOM     32  H   UNL     1      36.731 -10.959 -27.314  0.00  0.00    +0.145 HD
ATOM     33  H   UNL     1      36.471 -10.068 -25.885  0.00  0.00    +0.145 HD
ENDBRANCH   7  31
TORSDOF 3
ENDMDL
