MODEL 1
REMARK VINA RESULT:      -9.3      0.000      0.000
REMARK  Name = 41684
REMARK  4 active torsions:
REMARK  status: ('A' for Active; 'I' for Inactive)
REMARK    1  A    between atoms: C_5  and  C_10
REMARK    2  A    between atoms: C_7  and  N_22
REMARK    3  A    between atoms: C_11  and  O_16
REMARK    4  A    between atoms: O_16  and  C_18
REMARK                            x       y       z     vdW  Elec       q    Type
REMARK                         _______ _______ _______ _____ _____    ______ ____
ROOT
ATOM      1  S   UNL     1      33.062 -20.554 -20.159  0.00  0.00    -0.027 S 
ATOM      2  O   UNL     1      36.409 -18.159 -22.297  0.00  0.00    -0.270 OA
ATOM      3  N   UNL     1      34.221 -18.800 -21.725  0.00  0.00    -0.260 N 
ATOM      4  N   UNL     1      35.618 -20.267 -20.419  0.00  0.00    -0.221 NA
ATOM      5  C   UNL     1      35.179 -18.038 -22.404  0.00  0.00    +0.254 C 
ATOM      6  C   UNL     1      34.460 -19.829 -20.808  0.00  0.00    +0.167 C 
ATOM      7  C   UNL     1      34.082 -21.584 -19.243  0.00  0.00    +0.194 C 
ATOM      8  C   UNL     1      35.402 -21.285 -19.510  0.00  0.00    +0.132 C 
ATOM      9  H   UNL     1      33.278 -18.589 -21.912  0.00  0.00    +0.157 HD
ENDROOT
BRANCH   5  10
ATOM     10  C   UNL     1      34.651 -17.045 -23.329  0.00  0.00    +0.088 C 
ATOM     11  C   UNL     1      34.212 -15.802 -22.872  0.00  0.00    +0.153 C 
ATOM     12  C   UNL     1      34.587 -17.351 -24.688  0.00  0.00    +0.008 C 
ATOM     13  C   UNL     1      33.708 -14.865 -23.775  0.00  0.00    +0.038 C 
ATOM     14  C   UNL     1      34.084 -16.414 -25.591  0.00  0.00    +0.000 C 
ATOM     15  C   UNL     1      33.645 -15.171 -25.134  0.00  0.00    +0.003 C 
BRANCH  11  16
ATOM     16  O   UNL     1      34.267 -15.484 -21.549  0.00  0.00    -0.424 OA
BRANCH  16  18
ATOM     17  O   UNL     1      32.271 -16.382 -20.716  0.00  0.00    -0.250 OA
ATOM     18  C   UNL     1      33.012 -15.429 -20.921  0.00  0.00    +0.322 C 
ATOM     19  C   UNL     1      32.696 -14.016 -20.531  0.00  0.00    +0.122 C 
ENDBRANCH  16  18
ENDBRANCH  11  16
ENDBRANCH   5  10
BRANCH   7  22
ATOM     20  O   UNL     1      32.297 -22.506 -18.118  0.00  0.00    -0.126 OA
ATOM     21  O   UNL     1      34.278 -23.438 -17.892  0.00  0.00    -0.126 OA
ATOM     22  N   UNL     1      33.532 -22.544 -18.386  0.00  0.00    +0.065 N 
ENDBRANCH   7  22
TORSDOF 4
ENDMDL
MODEL 2
REMARK VINA RESULT:      -9.0      7.384     10.335
REMARK  Name = 41684
REMARK  4 active torsions:
REMARK  status: ('A' for Active; 'I' for Inactive)
REMARK    1  A    between atoms: C_5  and  C_10
REMARK    2  A    between atoms: C_7  and  N_22
REMARK    3  A    between atoms: C_11  and  O_16
REMARK    4  A    between atoms: O_16  and  C_18
REMARK                            x       y       z     vdW  Elec       q    Type
REMARK                         _______ _______ _______ _____ _____    ______ ____
ROOT
ATOM      1  S   UNL     1      37.246 -25.568 -14.967  0.00  0.00    -0.027 S 
ATOM      2  O   UNL     1      33.846 -23.700 -12.425  0.00  0.00    -0.270 OA
ATOM      3  N   UNL     1      34.847 -24.791 -14.250  0.00  0.00    -0.260 N 
ATOM      4  N   UNL     1      36.685 -24.355 -12.753  0.00  0.00    -0.221 NA
ATOM      5  C   UNL     1      33.773 -24.247 -13.536  0.00  0.00    +0.254 C 
ATOM      6  C   UNL     1      36.188 -24.824 -13.856  0.00  0.00    +0.167 C 
ATOM      7  C   UNL     1      38.533 -25.243 -13.881  0.00  0.00    +0.194 C 
ATOM      8  C   UNL     1      38.045 -24.597 -12.765  0.00  0.00    +0.132 C 
ATOM      9  H   UNL     1      34.635 -25.194 -15.123  0.00  0.00    +0.157 HD
ENDROOT
BRANCH   5  10
ATOM     10  C   UNL     1      32.478 -24.321 -14.196  0.00  0.00    +0.088 C 
ATOM     11  C   UNL     1      32.208 -23.557 -15.333  0.00  0.00    +0.153 C 
ATOM     12  C   UNL     1      31.500 -25.171 -13.679  0.00  0.00    +0.008 C 
ATOM     13  C   UNL     1      30.960 -23.642 -15.950  0.00  0.00    +0.038 C 
ATOM     14  C   UNL     1      30.252 -25.256 -14.297  0.00  0.00    +0.000 C 
ATOM     15  C   UNL     1      29.983 -24.492 -15.432  0.00  0.00    +0.003 C 
BRANCH  11  16
ATOM     16  O   UNL     1      33.150 -22.722 -15.853  0.00  0.00    -0.424 OA
BRANCH  16  18
ATOM     17  O   UNL     1      34.601 -24.095 -17.073  0.00  0.00    -0.250 OA
ATOM     18  C   UNL     1      33.762 -23.206 -17.021  0.00  0.00    +0.322 C 
ATOM     19  C   UNL     1      33.239 -22.468 -18.217  0.00  0.00    +0.122 C 
ENDBRANCH  16  18
ENDBRANCH  11  16
ENDBRANCH   5  10
BRANCH   7  22
ATOM     20  O   UNL     1      40.072 -26.824 -14.538  0.00  0.00    -0.126 OA
ATOM     21  O   UNL     1      40.773 -24.776 -14.142  0.00  0.00    -0.126 OA
ATOM     22  N   UNL     1      39.840 -25.629 -14.198  0.00  0.00    +0.065 N 
ENDBRANCH   7  22
TORSDOF 4
ENDMDL
MODEL 3
REMARK VINA RESULT:      -9.0      1.498      2.849
REMARK  Name = 41684
REMARK  4 active torsions:
REMARK  status: ('A' for Active; 'I' for Inactive)
REMARK    1  A    between atoms: C_5  and  C_10
REMARK    2  A    between atoms: C_7  and  N_22
REMARK    3  A    between atoms: C_11  and  O_16
REMARK    4  A    between atoms: O_16  and  C_18
REMARK                            x       y       z     vdW  Elec       q    Type
REMARK                         _______ _______ _______ _____ _____    ______ ____
ROOT
ATOM      1  S   UNL     1      33.222 -20.836 -19.947  0.00  0.00    -0.027 S 
ATOM      2  O   UNL     1      36.062 -17.537 -21.548  0.00  0.00    -0.270 OA
ATOM      3  N   UNL     1      34.028 -18.554 -20.953  0.00  0.00    -0.260 N 
ATOM      4  N   UNL     1      35.688 -20.217 -20.419  0.00  0.00    -0.221 NA
ATOM      5  C   UNL     1      34.825 -17.515 -21.448  0.00  0.00    +0.254 C 
ATOM      6  C   UNL     1      34.462 -19.797 -20.483  0.00  0.00    +0.167 C 
ATOM      7  C   UNL     1      34.427 -22.000 -19.577  0.00  0.00    +0.194 C 
ATOM      8  C   UNL     1      35.671 -21.495 -19.894  0.00  0.00    +0.132 C 
ATOM      9  H   UNL     1      33.057 -18.391 -20.934  0.00  0.00    +0.157 HD
ENDROOT
BRANCH   5  10
ATOM     10  C   UNL     1      34.107 -16.333 -21.901  0.00  0.00    +0.088 C 
ATOM     11  C   UNL     1      34.231 -15.879 -23.215  0.00  0.00    +0.153 C 
ATOM     12  C   UNL     1      33.285 -15.652 -21.003  0.00  0.00    +0.008 C 
ATOM     13  C   UNL     1      33.534 -14.744 -23.629  0.00  0.00    +0.038 C 
ATOM     14  C   UNL     1      32.588 -14.517 -21.417  0.00  0.00    +0.000 C 
ATOM     15  C   UNL     1      32.713 -14.063 -22.730  0.00  0.00    +0.003 C 
BRANCH  11  16
ATOM     16  O   UNL     1      35.028 -16.530 -24.107  0.00  0.00    -0.424 OA
BRANCH  16  18
ATOM     17  O   UNL     1      33.684 -16.833 -26.001  0.00  0.00    -0.250 OA
ATOM     18  C   UNL     1      34.324 -17.285 -25.059  0.00  0.00    +0.322 C 
ATOM     19  C   UNL     1      34.460 -18.747 -24.758  0.00  0.00    +0.122 C 
ENDBRANCH  16  18
ENDBRANCH  11  16
ENDBRANCH   5  10
BRANCH   7  22
ATOM     20  O   UNL     1      33.972 -24.246 -19.798  0.00  0.00    -0.126 OA
ATOM     21  O   UNL     1      33.850 -23.340 -17.796  0.00  0.00    -0.126 OA
ATOM     22  N   UNL     1      34.070 -23.240 -19.038  0.00  0.00    +0.065 N 
ENDBRANCH   7  22
TORSDOF 4
ENDMDL
MODEL 4
REMARK VINA RESULT:      -8.7      6.600      9.473
REMARK  Name = 41684
REMARK  4 active torsions:
REMARK  status: ('A' for Active; 'I' for Inactive)
REMARK    1  A    between atoms: C_5  and  C_10
REMARK    2  A    between atoms: C_7  and  N_22
REMARK    3  A    between atoms: C_11  and  O_16
REMARK    4  A    between atoms: O_16  and  C_18
REMARK                            x       y       z     vdW  Elec       q    Type
REMARK                         _______ _______ _______ _____ _____    ______ ____
ROOT
ATOM      1  S   UNL     1      32.118  -9.281 -21.938  0.00  0.00    -0.027 S 
ATOM      2  O   UNL     1      34.905 -10.704 -25.361  0.00  0.00    -0.270 OA
ATOM      3  N   UNL     1      33.175 -10.824 -23.775  0.00  0.00    -0.260 N 
ATOM      4  N   UNL     1      34.096  -8.619 -23.465  0.00  0.00    -0.221 NA
ATOM      5  C   UNL     1      33.979 -11.317 -24.809  0.00  0.00    +0.254 C 
ATOM      6  C   UNL     1      33.257  -9.564 -23.174  0.00  0.00    +0.167 C 
ATOM      7  C   UNL     1      32.796  -7.718 -21.741  0.00  0.00    +0.194 C 
ATOM      8  C   UNL     1      33.831  -7.546 -22.636  0.00  0.00    +0.132 C 
ATOM      9  H   UNL     1      32.477 -11.428 -23.435  0.00  0.00    +0.157 HD
ENDROOT
BRANCH   5  10
ATOM     10  C   UNL     1      33.695 -12.682 -25.228  0.00  0.00    +0.088 C 
ATOM     11  C   UNL     1      33.748 -13.738 -24.317  0.00  0.00    +0.153 C 
ATOM     12  C   UNL     1      33.366 -12.928 -26.562  0.00  0.00    +0.008 C 
ATOM     13  C   UNL     1      33.473 -15.038 -24.739  0.00  0.00    +0.038 C 
ATOM     14  C   UNL     1      33.091 -14.229 -26.984  0.00  0.00    +0.000 C 
ATOM     15  C   UNL     1      33.145 -15.283 -26.073  0.00  0.00    +0.003 C 
BRANCH  11  16
ATOM     16  O   UNL     1      34.067 -13.518 -23.011  0.00  0.00    -0.424 OA
BRANCH  16  18
ATOM     17  O   UNL     1      31.926 -13.131 -22.146  0.00  0.00    -0.250 OA
ATOM     18  C   UNL     1      33.000 -13.717 -22.120  0.00  0.00    +0.322 C 
ATOM     19  C   UNL     1      33.364 -14.765 -21.111  0.00  0.00    +0.122 C 
ENDBRANCH  16  18
ENDBRANCH  11  16
ENDBRANCH   5  10
BRANCH   7  22
ATOM     20  O   UNL     1      31.436  -5.966 -21.121  0.00  0.00    -0.126 OA
ATOM     21  O   UNL     1      32.671  -6.935 -19.579  0.00  0.00    -0.126 OA
ATOM     22  N   UNL     1      32.282  -6.841 -20.779  0.00  0.00    +0.065 N 
ENDBRANCH   7  22
TORSDOF 4
ENDMDL
MODEL 5
REMARK VINA RESULT:      -8.7      3.926      5.837
REMARK  Name = 41684
REMARK  4 active torsions:
REMARK  status: ('A' for Active; 'I' for Inactive)
REMARK    1  A    between atoms: C_5  and  C_10
REMARK    2  A    between atoms: C_7  and  N_22
REMARK    3  A    between atoms: C_11  and  O_16
REMARK    4  A    between atoms: O_16  and  C_18
REMARK                            x       y       z     vdW  Elec       q    Type
REMARK                         _______ _______ _______ _____ _____    ______ ____
ROOT
ATOM      1  S   UNL     1      34.708 -15.572 -21.815  0.00  0.00    -0.027 S 
ATOM      2  O   UNL     1      33.526 -12.860 -25.387  0.00  0.00    -0.270 OA
ATOM      3  N   UNL     1      34.103 -13.416 -23.177  0.00  0.00    -0.260 N 
ATOM      4  N   UNL     1      34.128 -15.530 -24.334  0.00  0.00    -0.221 NA
ATOM      5  C   UNL     1      33.750 -12.539 -24.210  0.00  0.00    +0.254 C 
ATOM      6  C   UNL     1      34.271 -14.801 -23.270  0.00  0.00    +0.167 C 
ATOM      7  C   UNL     1      34.717 -17.061 -22.666  0.00  0.00    +0.194 C 
ATOM      8  C   UNL     1      34.387 -16.841 -23.987  0.00  0.00    +0.132 C 
ATOM      9  H   UNL     1      34.249 -13.015 -22.290  0.00  0.00    +0.157 HD
ENDROOT
BRANCH   5  10
ATOM     10  C   UNL     1      33.614 -11.141 -23.827  0.00  0.00    +0.088 C 
ATOM     11  C   UNL     1      32.539 -10.712 -23.047  0.00  0.00    +0.153 C 
ATOM     12  C   UNL     1      34.578 -10.225 -24.250  0.00  0.00    +0.008 C 
ATOM     13  C   UNL     1      32.427  -9.368 -22.692  0.00  0.00    +0.038 C 
ATOM     14  C   UNL     1      34.466  -8.881 -23.895  0.00  0.00    +0.000 C 
ATOM     15  C   UNL     1      33.391  -8.453 -23.116  0.00  0.00    +0.003 C 
BRANCH  11  16
ATOM     16  O   UNL     1      31.589 -11.591 -22.624  0.00  0.00    -0.424 OA
BRANCH  16  18
ATOM     17  O   UNL     1      32.388 -12.824 -20.801  0.00  0.00    -0.250 OA
ATOM     18  C   UNL     1      31.689 -11.933 -21.266  0.00  0.00    +0.322 C 
ATOM     19  C   UNL     1      30.803 -11.042 -20.447  0.00  0.00    +0.122 C 
ENDBRANCH  16  18
ENDBRANCH  11  16
ENDBRANCH   5  10
BRANCH   7  22
ATOM     20  O   UNL     1      34.777 -19.361 -22.558  0.00  0.00    -0.126 OA
ATOM     21  O   UNL     1      35.564 -18.207 -20.857  0.00  0.00    -0.126 OA
ATOM     22  N   UNL     1      35.030 -18.253 -22.003  0.00  0.00    +0.065 N 
ENDBRANCH   7  22
TORSDOF 4
ENDMDL
MODEL 6
REMARK VINA RESULT:      -8.6      5.754      9.138
REMARK  Name = 41684
REMARK  4 active torsions:
REMARK  status: ('A' for Active; 'I' for Inactive)
REMARK    1  A    between atoms: C_5  and  C_10
REMARK    2  A    between atoms: C_7  and  N_22
REMARK    3  A    between atoms: C_11  and  O_16
REMARK    4  A    between atoms: O_16  and  C_18
REMARK                            x       y       z     vdW  Elec       q    Type
REMARK                         _______ _______ _______ _____ _____    ______ ____
ROOT
ATOM      1  S   UNL     1      34.557  -9.643 -24.194  0.00  0.00    -0.027 S 
ATOM      2  O   UNL     1      31.951 -13.296 -23.020  0.00  0.00    -0.270 OA
ATOM      3  N   UNL     1      33.807 -12.134 -23.875  0.00  0.00    -0.260 N 
ATOM      4  N   UNL     1      32.310 -10.389 -23.154  0.00  0.00    -0.221 NA
ATOM      5  C   UNL     1      33.075 -13.281 -23.545  0.00  0.00    +0.254 C 
ATOM      6  C   UNL     1      33.422 -10.805 -23.679  0.00  0.00    +0.167 C 
ATOM      7  C   UNL     1      33.470  -8.424 -23.671  0.00  0.00    +0.194 C 
ATOM      8  C   UNL     1      32.336  -9.008 -23.148  0.00  0.00    +0.132 C 
ATOM      9  H   UNL     1      34.688 -12.280 -24.289  0.00  0.00    +0.157 HD
ENDROOT
BRANCH   5  10
ATOM     10  C   UNL     1      33.704 -14.548 -23.889  0.00  0.00    +0.088 C 
ATOM     11  C   UNL     1      34.560 -15.189 -22.993  0.00  0.00    +0.153 C 
ATOM     12  C   UNL     1      33.440 -15.122 -25.133  0.00  0.00    +0.008 C 
ATOM     13  C   UNL     1      35.153 -16.403 -23.342  0.00  0.00    +0.038 C 
ATOM     14  C   UNL     1      34.033 -16.335 -25.482  0.00  0.00    +0.000 C 
ATOM     15  C   UNL     1      34.889 -16.976 -24.586  0.00  0.00    +0.003 C 
BRANCH  11  16
ATOM     16  O   UNL     1      34.830 -14.646 -21.773  0.00  0.00    -0.424 OA
BRANCH  16  18
ATOM     17  O   UNL     1      35.099 -16.249 -20.088  0.00  0.00    -0.250 OA
ATOM     18  C   UNL     1      34.411 -15.434 -20.690  0.00  0.00    +0.322 C 
ATOM     19  C   UNL     1      32.976 -15.140 -20.367  0.00  0.00    +0.122 C 
ENDBRANCH  16  18
ENDBRANCH  11  16
ENDBRANCH   5  10
BRANCH   7  22
ATOM     20  O   UNL     1      33.015  -6.186 -23.373  0.00  0.00    -0.126 OA
ATOM     21  O   UNL     1      34.891  -6.753 -24.373  0.00  0.00    -0.126 OA
ATOM     22  N   UNL     1      33.804  -7.072 -23.811  0.00  0.00    +0.065 N 
ENDBRANCH   7  22
TORSDOF 4
ENDMDL
MODEL 7
REMARK VINA RESULT:      -8.2      7.079      9.981
REMARK  Name = 41684
REMARK  4 active torsions:
REMARK  status: ('A' for Active; 'I' for Inactive)
REMARK    1  A    between atoms: C_5  and  C_10
REMARK    2  A    between atoms: C_7  and  N_22
REMARK    3  A    between atoms: C_11  and  O_16
REMARK    4  A    between atoms: O_16  and  C_18
REMARK                            x       y       z     vdW  Elec       q    Type
REMARK                         _______ _______ _______ _____ _____    ______ ____
ROOT
ATOM      1  S   UNL     1      36.321 -25.286 -14.810  0.00  0.00    -0.027 S 
ATOM      2  O   UNL     1      32.646 -23.352 -12.745  0.00  0.00    -0.270 OA
ATOM      3  N   UNL     1      33.858 -24.485 -14.411  0.00  0.00    -0.260 N 
ATOM      4  N   UNL     1      35.500 -24.025 -12.708  0.00  0.00    -0.221 NA
ATOM      5  C   UNL     1      32.707 -23.922 -13.845  0.00  0.00    +0.254 C 
ATOM      6  C   UNL     1      35.140 -24.516 -13.854  0.00  0.00    +0.167 C 
ATOM      7  C   UNL     1      37.467 -24.943 -13.581  0.00  0.00    +0.194 C 
ATOM      8  C   UNL     1      36.850 -24.272 -12.547  0.00  0.00    +0.132 C 
ATOM      9  H   UNL     1      33.752 -24.906 -15.295  0.00  0.00    +0.157 HD
ENDROOT
BRANCH   5  10
ATOM     10  C   UNL     1      31.503 -24.005 -14.659  0.00  0.00    +0.088 C 
ATOM     11  C   UNL     1      31.410 -23.324 -15.873  0.00  0.00    +0.153 C 
ATOM     12  C   UNL     1      30.433 -24.779 -14.210  0.00  0.00    +0.008 C 
ATOM     13  C   UNL     1      30.246 -23.416 -16.637  0.00  0.00    +0.038 C 
ATOM     14  C   UNL     1      29.269 -24.872 -14.974  0.00  0.00    +0.000 C 
ATOM     15  C   UNL     1      29.177 -24.191 -16.188  0.00  0.00    +0.003 C 
BRANCH  11  16
ATOM     16  O   UNL     1      32.444 -22.564 -16.329  0.00  0.00    -0.424 OA
BRANCH  16  18
ATOM     17  O   UNL     1      33.730 -24.237 -17.344  0.00  0.00    -0.250 OA
ATOM     18  C   UNL     1      33.166 -23.151 -17.381  0.00  0.00    +0.322 C 
ATOM     19  C   UNL     1      33.155 -22.247 -18.577  0.00  0.00    +0.122 C 
ENDBRANCH  16  18
ENDBRANCH  11  16
ENDBRANCH   5  10
BRANCH   7  22
ATOM     20  O   UNL     1      39.063 -26.486 -14.195  0.00  0.00    -0.126 OA
ATOM     21  O   UNL     1      39.728 -24.549 -13.389  0.00  0.00    -0.126 OA
ATOM     22  N   UNL     1      38.801 -25.341 -13.727  0.00  0.00    +0.065 N 
ENDBRANCH   7  22
TORSDOF 4
ENDMDL
MODEL 8
REMARK VINA RESULT:      -8.0      8.583     11.075
REMARK  Name = 41684
REMARK  4 active torsions:
REMARK  status: ('A' for Active; 'I' for Inactive)
REMARK    1  A    between atoms: C_5  and  C_10
REMARK    2  A    between atoms: C_7  and  N_22
REMARK    3  A    between atoms: C_11  and  O_16
REMARK    4  A    between atoms: O_16  and  C_18
REMARK                            x       y       z     vdW  Elec       q    Type
REMARK                         _______ _______ _______ _____ _____    ______ ____
ROOT
ATOM      1  S   UNL     1      31.827 -24.838 -14.143  0.00  0.00    -0.027 S 
ATOM      2  O   UNL     1      35.843 -23.478 -16.024  0.00  0.00    -0.270 OA
ATOM      3  N   UNL     1      34.406 -24.615 -14.551  0.00  0.00    -0.260 N 
ATOM      4  N   UNL     1      32.912 -23.383 -15.985  0.00  0.00    -0.221 NA
ATOM      5  C   UNL     1      35.654 -24.247 -15.069  0.00  0.00    +0.254 C 
ATOM      6  C   UNL     1      33.152 -24.195 -15.001  0.00  0.00    +0.167 C 
ATOM      7  C   UNL     1      30.789 -23.949 -15.180  0.00  0.00    +0.194 C 
ATOM      8  C   UNL     1      31.543 -23.239 -16.091  0.00  0.00    +0.132 C 
ATOM      9  H   UNL     1      34.414 -25.237 -13.787  0.00  0.00    +0.157 HD
ENDROOT
BRANCH   5  10
ATOM     10  C   UNL     1      36.809 -24.813 -14.387  0.00  0.00    +0.088 C 
ATOM     11  C   UNL     1      36.733 -25.197 -13.047  0.00  0.00    +0.153 C 
ATOM     12  C   UNL     1      38.003 -24.969 -15.090  0.00  0.00    +0.008 C 
ATOM     13  C   UNL     1      37.851 -25.736 -12.412  0.00  0.00    +0.038 C 
ATOM     14  C   UNL     1      39.122 -25.509 -14.455  0.00  0.00    +0.000 C 
ATOM     15  C   UNL     1      39.046 -25.892 -13.116  0.00  0.00    +0.003 C 
BRANCH  11  16
ATOM     16  O   UNL     1      35.576 -25.053 -12.344  0.00  0.00    -0.424 OA
BRANCH  16  18
ATOM     17  O   UNL     1      35.318 -24.842 -10.026  0.00  0.00    -0.250 OA
ATOM     18  C   UNL     1      35.737 -24.425 -11.098  0.00  0.00    +0.322 C 
ATOM     19  C   UNL     1      36.506 -23.148 -11.264  0.00  0.00    +0.122 C 
ENDBRANCH  16  18
ENDBRANCH  11  16
ENDBRANCH   5  10
BRANCH   7  22
ATOM     20  O   UNL     1      28.689 -23.011 -15.297  0.00  0.00    -0.126 OA
ATOM     21  O   UNL     1      28.875 -25.091 -14.603  0.00  0.00    -0.126 OA
ATOM     22  N   UNL     1      29.401 -24.019 -15.021  0.00  0.00    +0.065 N 
ENDBRANCH   7  22
TORSDOF 4
ENDMDL
MODEL 9
REMARK VINA RESULT:      -8.0      5.847      9.040
REMARK  Name = 41684
REMARK  4 active torsions:
REMARK  status: ('A' for Active; 'I' for Inactive)
REMARK    1  A    between atoms: C_5  and  C_10
REMARK    2  A    between atoms: C_7  and  N_22
REMARK    3  A    between atoms: C_11  and  O_16
REMARK    4  A    between atoms: O_16  and  C_18
REMARK                            x       y       z     vdW  Elec       q    Type
REMARK                         _______ _______ _______ _____ _____    ______ ____
ROOT
ATOM      1  S   UNL     1      33.098  -9.900 -23.506  0.00  0.00    -0.027 S 
ATOM      2  O   UNL     1      32.009 -14.120 -21.918  0.00  0.00    -0.270 OA
ATOM      3  N   UNL     1      33.084 -12.508 -23.250  0.00  0.00    -0.260 N 
ATOM      4  N   UNL     1      31.657 -11.211 -21.806  0.00  0.00    -0.221 NA
ATOM      5  C   UNL     1      32.804 -13.811 -22.819  0.00  0.00    +0.254 C 
ATOM      6  C   UNL     1      32.534 -11.322 -22.756  0.00  0.00    +0.167 C 
ATOM      7  C   UNL     1      32.071  -9.004 -22.464  0.00  0.00    +0.194 C 
ATOM      8  C   UNL     1      31.388  -9.867 -21.634  0.00  0.00    +0.132 C 
ATOM      9  H   UNL     1      33.741 -12.419 -23.978  0.00  0.00    +0.157 HD
ENDROOT
BRANCH   5  10
ATOM     10  C   UNL     1      33.501 -14.872 -23.531  0.00  0.00    +0.088 C 
ATOM     11  C   UNL     1      33.395 -14.995 -24.917  0.00  0.00    +0.153 C 
ATOM     12  C   UNL     1      34.285 -15.772 -22.809  0.00  0.00    +0.008 C 
ATOM     13  C   UNL     1      34.071 -16.019 -25.580  0.00  0.00    +0.038 C 
ATOM     14  C   UNL     1      34.961 -16.797 -23.472  0.00  0.00    +0.000 C 
ATOM     15  C   UNL     1      34.854 -16.919 -24.857  0.00  0.00    +0.003 C 
BRANCH  11  16
ATOM     16  O   UNL     1      32.636 -14.125 -25.640  0.00  0.00    -0.424 OA
BRANCH  16  18
ATOM     17  O   UNL     1      33.525 -14.006 -27.803  0.00  0.00    -0.250 OA
ATOM     18  C   UNL     1      33.322 -13.512 -26.701  0.00  0.00    +0.322 C 
ATOM     19  C   UNL     1      33.783 -12.145 -26.291  0.00  0.00    +0.122 C 
ENDBRANCH  16  18
ENDBRANCH  11  16
ENDBRANCH   5  10
BRANCH   7  22
ATOM     20  O   UNL     1      30.920  -7.029 -22.744  0.00  0.00    -0.126 OA
ATOM     21  O   UNL     1      33.095  -6.942 -22.419  0.00  0.00    -0.126 OA
ATOM     22  N   UNL     1      32.027  -7.608 -22.545  0.00  0.00    +0.065 N 
ENDBRANCH   7  22
TORSDOF 4
ENDMDL
