MODEL 1
REMARK VINA RESULT:      -4.6      0.000      0.000
REMARK  Name = 774
REMARK  3 active torsions:
REMARK  status: ('A' for Active; 'I' for Inactive)
REMARK    1  A    between atoms: C_3  and  C_8
REMARK    2  A    between atoms: C_8  and  C_9
REMARK    3  A    between atoms: C_9  and  N_10
REMARK                            x       y       z     vdW  Elec       q    Type
REMARK                         _______ _______ _______ _____ _____    ______ ____
ROOT
ATOM      1  N   UNL     1      35.531 -19.384 -20.502  0.00  0.00    -0.319 N 
ATOM      2  N   UNL     1      35.685 -18.541 -22.551  0.00  0.00    -0.315 N 
ATOM      3  C   UNL     1      34.367 -19.641 -21.127  0.00  0.00    +0.035 C 
ATOM      4  C   UNL     1      34.458 -19.130 -22.373  0.00  0.00    +0.069 C 
ATOM      5  C   UNL     1      36.306 -18.711 -21.406  0.00  0.00    +0.182 C 
ATOM      6  H   UNL     1      35.775 -19.630 -19.580  0.00  0.00    +0.148 HD
ATOM      7  H   UNL     1      36.024 -18.092 -23.358  0.00  0.00    +0.148 HD
ENDROOT
BRANCH   3   8
ATOM      8  C   UNL     1      33.250 -20.379 -20.435  0.00  0.00    +0.018 C 
BRANCH   8   9
ATOM      9  C   UNL     1      33.786 -21.478 -19.517  0.00  0.00    -0.080 C 
BRANCH   9  10
ATOM     10  N   UNL     1      32.698 -22.151 -18.815  0.00  0.00    +0.381 N 
ATOM     11  H   UNL     1      32.916 -23.143 -18.722  0.00  0.00    -0.089 HD
ATOM     12  H   UNL     1      31.833 -22.040 -19.344  0.00  0.00    -0.089 HD
ATOM     13  H   UNL     1      32.585 -21.740 -17.888  0.00  0.00    -0.089 HD
ENDBRANCH   9  10
ENDBRANCH   8   9
ENDBRANCH   3   8
TORSDOF 3
ENDMDL
MODEL 2
REMARK VINA RESULT:      -4.6      2.169      3.506
REMARK  Name = 774
REMARK  3 active torsions:
REMARK  status: ('A' for Active; 'I' for Inactive)
REMARK    1  A    between atoms: C_3  and  C_8
REMARK    2  A    between atoms: C_8  and  C_9
REMARK    3  A    between atoms: C_9  and  N_10
REMARK                            x       y       z     vdW  Elec       q    Type
REMARK                         _______ _______ _______ _____ _____    ______ ____
ROOT
ATOM      1  N   UNL     1      34.551 -19.943 -20.653  0.00  0.00    -0.319 N 
ATOM      2  N   UNL     1      32.684 -20.949 -19.994  0.00  0.00    -0.315 N 
ATOM      3  C   UNL     1      34.908 -20.950 -19.835  0.00  0.00    +0.035 C 
ATOM      4  C   UNL     1      33.775 -21.564 -19.434  0.00  0.00    +0.069 C 
ATOM      5  C   UNL     1      33.186 -19.977 -20.722  0.00  0.00    +0.182 C 
ATOM      6  H   UNL     1      35.151 -19.308 -21.109  0.00  0.00    +0.148 HD
ATOM      7  H   UNL     1      31.736 -21.185 -19.877  0.00  0.00    +0.148 HD
ENDROOT
BRANCH   3   8
ATOM      8  C   UNL     1      36.356 -21.227 -19.517  0.00  0.00    +0.018 C 
BRANCH   8   9
ATOM      9  C   UNL     1      36.525 -21.768 -18.097  0.00  0.00    -0.080 C 
BRANCH   9  10
ATOM     10  N   UNL     1      37.172 -20.784 -17.235  0.00  0.00    +0.381 N 
ATOM     11  H   UNL     1      37.592 -20.053 -17.809  0.00  0.00    -0.089 HD
ATOM     12  H   UNL     1      37.896 -21.242 -16.681  0.00  0.00    -0.089 HD
ATOM     13  H   UNL     1      36.478 -20.370 -16.612  0.00  0.00    -0.089 HD
ENDBRANCH   9  10
ENDBRANCH   8   9
ENDBRANCH   3   8
TORSDOF 3
ENDMDL
MODEL 3
REMARK VINA RESULT:      -4.6      1.459      1.902
REMARK  Name = 774
REMARK  3 active torsions:
REMARK  status: ('A' for Active; 'I' for Inactive)
REMARK    1  A    between atoms: C_3  and  C_8
REMARK    2  A    between atoms: C_8  and  C_9
REMARK    3  A    between atoms: C_9  and  N_10
REMARK                            x       y       z     vdW  Elec       q    Type
REMARK                         _______ _______ _______ _____ _____    ______ ____
ROOT
ATOM      1  N   UNL     1      34.629 -19.312 -23.125  0.00  0.00    -0.319 N 
ATOM      2  N   UNL     1      35.881 -17.478 -23.121  0.00  0.00    -0.315 N 
ATOM      3  C   UNL     1      35.002 -19.087 -21.852  0.00  0.00    +0.035 C 
ATOM      4  C   UNL     1      35.763 -17.972 -21.846  0.00  0.00    +0.069 C 
ATOM      5  C   UNL     1      35.187 -18.308 -23.867  0.00  0.00    +0.182 C 
ATOM      6  H   UNL     1      34.068 -20.052 -23.456  0.00  0.00    +0.148 HD
ATOM      7  H   UNL     1      36.376 -16.679 -23.412  0.00  0.00    +0.148 HD
ENDROOT
BRANCH   3   8
ATOM      8  C   UNL     1      34.570 -20.001 -20.733  0.00  0.00    +0.018 C 
BRANCH   8   9
ATOM      9  C   UNL     1      33.047 -20.083 -20.631  0.00  0.00    -0.080 C 
BRANCH   9  10
ATOM     10  N   UNL     1      32.642 -20.915 -19.502  0.00  0.00    +0.381 N 
ATOM     11  H   UNL     1      32.356 -20.318 -18.726  0.00  0.00    -0.089 HD
ATOM     12  H   UNL     1      33.426 -21.499 -19.212  0.00  0.00    -0.089 HD
ATOM     13  H   UNL     1      31.860 -21.509 -19.780  0.00  0.00    -0.089 HD
ENDBRANCH   9  10
ENDBRANCH   8   9
ENDBRANCH   3   8
TORSDOF 3
ENDMDL
MODEL 4
REMARK VINA RESULT:      -4.4      1.073      3.987
REMARK  Name = 774
REMARK  3 active torsions:
REMARK  status: ('A' for Active; 'I' for Inactive)
REMARK    1  A    between atoms: C_3  and  C_8
REMARK    2  A    between atoms: C_8  and  C_9
REMARK    3  A    between atoms: C_9  and  N_10
REMARK                            x       y       z     vdW  Elec       q    Type
REMARK                         _______ _______ _______ _____ _____    ______ ____
ROOT
ATOM      1  N   UNL     1      34.869 -20.903 -20.001  0.00  0.00    -0.319 N 
ATOM      2  N   UNL     1      32.667 -21.055 -19.757  0.00  0.00    -0.315 N 
ATOM      3  C   UNL     1      34.319 -19.906 -20.718  0.00  0.00    +0.035 C 
ATOM      4  C   UNL     1      32.980 -19.995 -20.571  0.00  0.00    +0.069 C 
ATOM      5  C   UNL     1      33.827 -21.580 -19.432  0.00  0.00    +0.182 C 
ATOM      6  H   UNL     1      35.829 -21.105 -19.907  0.00  0.00    +0.148 HD
ATOM      7  H   UNL     1      31.772 -21.354 -19.479  0.00  0.00    +0.148 HD
ENDROOT
BRANCH   3   8
ATOM      8  C   UNL     1      35.171 -18.935 -21.496  0.00  0.00    +0.018 C 
BRANCH   8   9
ATOM      9  C   UNL     1      34.908 -19.035 -22.999  0.00  0.00    -0.080 C 
BRANCH   9  10
ATOM     10  N   UNL     1      35.639 -18.003 -23.728  0.00  0.00    +0.381 N 
ATOM     11  H   UNL     1      36.225 -17.478 -23.078  0.00  0.00    -0.089 HD
ATOM     12  H   UNL     1      34.976 -17.371 -24.176  0.00  0.00    -0.089 HD
ATOM     13  H   UNL     1      36.226 -18.440 -24.439  0.00  0.00    -0.089 HD
ENDBRANCH   9  10
ENDBRANCH   8   9
ENDBRANCH   3   8
TORSDOF 3
ENDMDL
MODEL 5
REMARK VINA RESULT:      -4.4      8.412      9.992
REMARK  Name = 774
REMARK  3 active torsions:
REMARK  status: ('A' for Active; 'I' for Inactive)
REMARK    1  A    between atoms: C_3  and  C_8
REMARK    2  A    between atoms: C_8  and  C_9
REMARK    3  A    between atoms: C_9  and  N_10
REMARK                            x       y       z     vdW  Elec       q    Type
REMARK                         _______ _______ _______ _____ _____    ______ ____
ROOT
ATOM      1  N   UNL     1      36.818 -24.745 -14.456  0.00  0.00    -0.319 N 
ATOM      2  N   UNL     1      36.041 -26.698 -15.173  0.00  0.00    -0.315 N 
ATOM      3  C   UNL     1      37.738 -25.677 -14.148  0.00  0.00    +0.035 C 
ATOM      4  C   UNL     1      37.269 -26.865 -14.583  0.00  0.00    +0.069 C 
ATOM      5  C   UNL     1      35.799 -25.410 -15.080  0.00  0.00    +0.182 C 
ATOM      6  H   UNL     1      36.867 -23.779 -14.269  0.00  0.00    +0.148 HD
ATOM      7  H   UNL     1      35.470 -27.390 -15.577  0.00  0.00    +0.148 HD
ENDROOT
BRANCH   3   8
ATOM      8  C   UNL     1      39.020 -25.312 -13.443  0.00  0.00    +0.018 C 
BRANCH   8   9
ATOM      9  C   UNL     1      40.232 -25.471 -14.361  0.00  0.00    -0.080 C 
BRANCH   9  10
ATOM     10  N   UNL     1      40.887 -26.757 -14.145  0.00  0.00    +0.381 N 
ATOM     11  H   UNL     1      40.578 -27.420 -14.856  0.00  0.00    -0.089 HD
ATOM     12  H   UNL     1      40.643 -27.111 -13.220  0.00  0.00    -0.089 HD
ATOM     13  H   UNL     1      41.898 -26.638 -14.207  0.00  0.00    -0.089 HD
ENDBRANCH   9  10
ENDBRANCH   8   9
ENDBRANCH   3   8
TORSDOF 3
ENDMDL
MODEL 6
REMARK VINA RESULT:      -4.4      8.956     10.012
REMARK  Name = 774
REMARK  3 active torsions:
REMARK  status: ('A' for Active; 'I' for Inactive)
REMARK    1  A    between atoms: C_3  and  C_8
REMARK    2  A    between atoms: C_8  and  C_9
REMARK    3  A    between atoms: C_9  and  N_10
REMARK                            x       y       z     vdW  Elec       q    Type
REMARK                         _______ _______ _______ _____ _____    ______ ____
ROOT
ATOM      1  N   UNL     1      39.678 -26.077 -13.666  0.00  0.00    -0.319 N 
ATOM      2  N   UNL     1      39.425 -24.832 -15.487  0.00  0.00    -0.315 N 
ATOM      3  C   UNL     1      38.412 -25.619 -13.663  0.00  0.00    +0.035 C 
ATOM      4  C   UNL     1      38.256 -24.863 -14.770  0.00  0.00    +0.069 C 
ATOM      5  C   UNL     1      40.261 -25.573 -14.795  0.00  0.00    +0.182 C 
ATOM      6  H   UNL     1      40.100 -26.657 -12.990  0.00  0.00    +0.148 HD
ATOM      7  H   UNL     1      39.598 -24.360 -16.333  0.00  0.00    +0.148 HD
ENDROOT
BRANCH   3   8
ATOM      8  C   UNL     1      37.452 -25.973 -12.556  0.00  0.00    +0.018 C 
BRANCH   8   9
ATOM      9  C   UNL     1      36.754 -24.732 -11.999  0.00  0.00    -0.080 C 
BRANCH   9  10
ATOM     10  N   UNL     1      37.712 -23.836 -11.360  0.00  0.00    +0.381 N 
ATOM     11  H   UNL     1      37.328 -23.503 -10.475  0.00  0.00    -0.089 HD
ATOM     12  H   UNL     1      37.894 -23.041 -11.973  0.00  0.00    -0.089 HD
ATOM     13  H   UNL     1      38.583 -24.337 -11.185  0.00  0.00    -0.089 HD
ENDBRANCH   9  10
ENDBRANCH   8   9
ENDBRANCH   3   8
TORSDOF 3
ENDMDL
MODEL 7
REMARK VINA RESULT:      -4.4      3.024      5.175
REMARK  Name = 774
REMARK  3 active torsions:
REMARK  status: ('A' for Active; 'I' for Inactive)
REMARK    1  A    between atoms: C_3  and  C_8
REMARK    2  A    between atoms: C_8  and  C_9
REMARK    3  A    between atoms: C_9  and  N_10
REMARK                            x       y       z     vdW  Elec       q    Type
REMARK                         _______ _______ _______ _____ _____    ______ ____
ROOT
ATOM      1  N   UNL     1      36.054 -17.931 -22.878  0.00  0.00    -0.319 N 
ATOM      2  N   UNL     1      35.504 -17.936 -20.726  0.00  0.00    -0.315 N 
ATOM      3  C   UNL     1      35.247 -16.874 -22.671  0.00  0.00    +0.035 C 
ATOM      4  C   UNL     1      34.911 -16.874 -21.363  0.00  0.00    +0.069 C 
ATOM      5  C   UNL     1      36.184 -18.552 -21.667  0.00  0.00    +0.182 C 
ATOM      6  H   UNL     1      36.466 -18.203 -23.730  0.00  0.00    +0.148 HD
ATOM      7  H   UNL     1      35.435 -18.180 -19.776  0.00  0.00    +0.148 HD
ENDROOT
BRANCH   3   8
ATOM      8  C   UNL     1      34.871 -15.941 -23.794  0.00  0.00    +0.018 C 
BRANCH   8   9
ATOM      9  C   UNL     1      33.763 -14.974 -23.375  0.00  0.00    -0.080 C 
BRANCH   9  10
ATOM     10  N   UNL     1      34.285 -13.623 -23.200  0.00  0.00    +0.381 N 
ATOM     11  H   UNL     1      34.407 -13.185 -24.114  0.00  0.00    -0.089 HD
ATOM     12  H   UNL     1      35.184 -13.666 -22.721  0.00  0.00    -0.089 HD
ATOM     13  H   UNL     1      33.629 -13.074 -22.644  0.00  0.00    -0.089 HD
ENDBRANCH   9  10
ENDBRANCH   8   9
ENDBRANCH   3   8
TORSDOF 3
ENDMDL
MODEL 8
REMARK VINA RESULT:      -4.3      3.198      4.434
REMARK  Name = 774
REMARK  3 active torsions:
REMARK  status: ('A' for Active; 'I' for Inactive)
REMARK    1  A    between atoms: C_3  and  C_8
REMARK    2  A    between atoms: C_8  and  C_9
REMARK    3  A    between atoms: C_9  and  N_10
REMARK                            x       y       z     vdW  Elec       q    Type
REMARK                         _______ _______ _______ _____ _____    ______ ____
ROOT
ATOM      1  N   UNL     1      35.368 -17.627 -20.810  0.00  0.00    -0.319 N 
ATOM      2  N   UNL     1      35.884 -17.785 -22.965  0.00  0.00    -0.315 N 
ATOM      3  C   UNL     1      34.906 -16.516 -21.413  0.00  0.00    +0.035 C 
ATOM      4  C   UNL     1      35.218 -16.610 -22.723  0.00  0.00    +0.069 C 
ATOM      5  C   UNL     1      35.959 -18.374 -21.792  0.00  0.00    +0.182 C 
ATOM      6  H   UNL     1      35.297 -17.856 -19.855  0.00  0.00    +0.148 HD
ATOM      7  H   UNL     1      36.229 -18.114 -23.825  0.00  0.00    +0.148 HD
ENDROOT
BRANCH   3   8
ATOM      8  C   UNL     1      34.185 -15.444 -20.637  0.00  0.00    +0.018 C 
BRANCH   8   9
ATOM      9  C   UNL     1      32.691 -15.423 -20.962  0.00  0.00    -0.080 C 
BRANCH   9  10
ATOM     10  N   UNL     1      32.373 -14.348 -21.896  0.00  0.00    +0.381 N 
ATOM     11  H   UNL     1      31.377 -14.134 -21.843  0.00  0.00    -0.089 HD
ATOM     12  H   UNL     1      32.609 -14.641 -22.844  0.00  0.00    -0.089 HD
ATOM     13  H   UNL     1      32.913 -13.516 -21.654  0.00  0.00    -0.089 HD
ENDBRANCH   9  10
ENDBRANCH   8   9
ENDBRANCH   3   8
TORSDOF 3
ENDMDL
MODEL 9
REMARK VINA RESULT:      -4.3      2.287      3.377
REMARK  Name = 774
REMARK  3 active torsions:
REMARK  status: ('A' for Active; 'I' for Inactive)
REMARK    1  A    between atoms: C_3  and  C_8
REMARK    2  A    between atoms: C_8  and  C_9
REMARK    3  A    between atoms: C_9  and  N_10
REMARK                            x       y       z     vdW  Elec       q    Type
REMARK                         _______ _______ _______ _____ _____    ______ ____
ROOT
ATOM      1  N   UNL     1      35.516 -16.918 -23.639  0.00  0.00    -0.319 N 
ATOM      2  N   UNL     1      34.389 -18.231 -25.031  0.00  0.00    -0.315 N 
ATOM      3  C   UNL     1      35.479 -18.145 -23.087  0.00  0.00    +0.035 C 
ATOM      4  C   UNL     1      34.795 -18.946 -23.932  0.00  0.00    +0.069 C 
ATOM      5  C   UNL     1      34.839 -17.014 -24.823  0.00  0.00    +0.182 C 
ATOM      6  H   UNL     1      35.943 -16.113 -23.264  0.00  0.00    +0.148 HD
ATOM      7  H   UNL     1      33.876 -18.558 -25.804  0.00  0.00    +0.148 HD
ENDROOT
BRANCH   3   8
ATOM      8  C   UNL     1      36.131 -18.429 -21.758  0.00  0.00    +0.018 C 
BRANCH   8   9
ATOM      9  C   UNL     1      35.428 -19.568 -21.019  0.00  0.00    -0.080 C 
BRANCH   9  10
ATOM     10  N   UNL     1      36.289 -20.128 -19.981  0.00  0.00    +0.381 N 
ATOM     11  H   UNL     1      36.716 -20.989 -20.323  0.00  0.00    -0.089 HD
ATOM     12  H   UNL     1      35.732 -20.330 -19.151  0.00  0.00    -0.089 HD
ATOM     13  H   UNL     1      37.019 -19.456 -19.746  0.00  0.00    -0.089 HD
ENDBRANCH   9  10
ENDBRANCH   8   9
ENDBRANCH   3   8
TORSDOF 3
ENDMDL
