MODEL 1
REMARK VINA RESULT:     -10.5      0.000      0.000
REMARK  Name = 150610
REMARK  10 active torsions:
REMARK  status: ('A' for Active; 'I' for Inactive)
REMARK    1  A    between atoms: C_2  and  S_22
REMARK    2  A    between atoms: C_5  and  C_10
REMARK    3  A    between atoms: N_9  and  C_12
REMARK    4  A    between atoms: C_15  and  C_19
REMARK    5  A    between atoms: C_19  and  O_20
REMARK    6  A    between atoms: S_22  and  C_29
REMARK    7  A    between atoms: C_26  and  C_36
REMARK    8  A    between atoms: C_30  and  C_33
REMARK    9  A    between atoms: C_33  and  O_34
REMARK   10  A    between atoms: C_36  and  O_38
REMARK                            x       y       z     vdW  Elec       q    Type
REMARK                         _______ _______ _______ _____ _____    ______ ____
ROOT
ATOM      1  N   UNL     1      34.154 -15.215 -24.793  0.00  0.00    +0.391 N 
ATOM      2  C   UNL     1      33.544 -13.708 -23.113  0.00  0.00    +0.029 C 
ATOM      3  C   UNL     1      34.543 -14.669 -22.477  0.00  0.00    -0.003 C 
ATOM      4  C   UNL     1      32.977 -14.501 -24.275  0.00  0.00    -0.070 C 
ATOM      5  C   UNL     1      34.924 -15.622 -23.609  0.00  0.00    +0.018 C 
ATOM      6  H   UNL     1      34.712 -14.599 -25.385  0.00  0.00    -0.084 HD
ATOM      7  H   UNL     1      33.888 -16.017 -25.364  0.00  0.00    -0.084 HD
ENDROOT
BRANCH   5  10
ATOM      8  O   UNL     1      34.286 -17.825 -24.214  0.00  0.00    -0.277 OA
ATOM      9  N   UNL     1      34.511 -17.268 -21.939  0.00  0.00    -0.286 N 
ATOM     10  C   UNL     1      34.537 -17.036 -23.308  0.00  0.00    +0.206 C 
ATOM     11  H   UNL     1      34.742 -16.503 -21.363  0.00  0.00    +0.155 HD
BRANCH   9  12
ATOM     12  C   UNL     1      34.192 -18.476 -21.276  0.00  0.00    +0.050 C 
ATOM     13  C   UNL     1      35.216 -19.309 -20.854  0.00  0.00    +0.021 C 
ATOM     14  C   UNL     1      32.863 -18.800 -21.061  0.00  0.00    +0.015 C 
ATOM     15  C   UNL     1      34.899 -20.500 -20.199  0.00  0.00    +0.077 C 
ATOM     16  C   UNL     1      32.548 -19.990 -20.406  0.00  0.00    +0.001 C 
ATOM     17  C   UNL     1      33.566 -20.841 -19.975  0.00  0.00    +0.007 C 
BRANCH  15  19
ATOM     18  O   UNL     1      37.148 -21.312 -20.086  0.00  0.00    -0.245 OA
ATOM     19  C   UNL     1      35.961 -21.388 -19.751  0.00  0.00    +0.338 C 
BRANCH  19  20
ATOM     20  O   UNL     1      35.512 -22.345 -18.894  0.00  0.00    -0.477 OA
ATOM     21  H   UNL     1      35.142 -23.138 -19.229  0.00  0.00    +0.295 HD
ENDBRANCH  19  20
ENDBRANCH  15  19
ENDBRANCH   9  12
ENDBRANCH   5  10
BRANCH   2  22
ATOM     22  S   UNL     1      32.258 -13.148 -21.964  0.00  0.00    -0.120 S 
BRANCH  22  29
ATOM     23  O   UNL     1      33.092  -7.727 -20.674  0.00  0.00    -0.274 OA
ATOM     24  N   UNL     1      31.971  -9.259 -22.073  0.00  0.00    -0.254 N 
ATOM     25  C   UNL     1      32.413  -9.390 -23.476  0.00  0.00    +0.095 C 
ATOM     26  C   UNL     1      33.379  -8.202 -23.168  0.00  0.00    +0.123 C 
ATOM     27  C   UNL     1      32.751 -10.889 -23.620  0.00  0.00    +0.049 C 
ATOM     28  C   UNL     1      32.825  -8.256 -21.728  0.00  0.00    +0.233 C 
ATOM     29  C   UNL     1      32.265 -11.463 -22.300  0.00  0.00    +0.024 C 
ATOM     30  C   UNL     1      31.873 -10.482 -21.477  0.00  0.00    +0.132 C 
ATOM     31  C   UNL     1      34.211 -11.175 -23.927  0.00  0.00    +0.007 C 
BRANCH  30  33
ATOM     32  O   UNL     1      30.330 -11.024 -19.753  0.00  0.00    -0.244 OA
ATOM     33  C   UNL     1      31.420 -10.593 -20.094  0.00  0.00    +0.352 C 
BRANCH  33  34
ATOM     34  O   UNL     1      32.384 -10.148 -19.258  0.00  0.00    -0.476 OA
ATOM     35  H   UNL     1      32.834 -10.752 -18.699  0.00  0.00    +0.295 HD
ENDBRANCH  33  34
ENDBRANCH  30  33
BRANCH  26  36
ATOM     36  C   UNL     1      33.250  -6.857 -23.836  0.00  0.00    +0.121 C 
ATOM     37  C   UNL     1      34.356  -6.641 -24.865  0.00  0.00    +0.032 C 
BRANCH  36  38
ATOM     38  O   UNL     1      31.985  -6.768 -24.492  0.00  0.00    -0.384 OA
ATOM     39  H   UNL     1      31.753  -7.632 -24.866  0.00  0.00    +0.210 HD
ENDBRANCH  36  38
ENDBRANCH  26  36
ENDBRANCH  22  29
ENDBRANCH   2  22
TORSDOF 10
ENDMDL
MODEL 2
REMARK VINA RESULT:     -10.2      4.060      6.615
REMARK  Name = 150610
REMARK  10 active torsions:
REMARK  status: ('A' for Active; 'I' for Inactive)
REMARK    1  A    between atoms: C_2  and  S_22
REMARK    2  A    between atoms: C_5  and  C_10
REMARK    3  A    between atoms: N_9  and  C_12
REMARK    4  A    between atoms: C_15  and  C_19
REMARK    5  A    between atoms: C_19  and  O_20
REMARK    6  A    between atoms: S_22  and  C_29
REMARK    7  A    between atoms: C_26  and  C_36
REMARK    8  A    between atoms: C_30  and  C_33
REMARK    9  A    between atoms: C_33  and  O_34
REMARK   10  A    between atoms: C_36  and  O_38
REMARK                            x       y       z     vdW  Elec       q    Type
REMARK                         _______ _______ _______ _____ _____    ______ ____
ROOT
ATOM      1  N   UNL     1      32.739 -21.080 -20.502  0.00  0.00    +0.391 N 
ATOM      2  C   UNL     1      34.385 -19.605 -21.264  0.00  0.00    +0.029 C 
ATOM      3  C   UNL     1      35.126 -20.829 -20.732  0.00  0.00    -0.003 C 
ATOM      4  C   UNL     1      33.059 -19.644 -20.528  0.00  0.00    -0.070 C 
ATOM      5  C   UNL     1      34.016 -21.767 -20.260  0.00  0.00    +0.018 C 
ATOM      6  H   UNL     1      32.341 -21.372 -21.394  0.00  0.00    -0.084 HD
ATOM      7  H   UNL     1      32.051 -21.300 -19.782  0.00  0.00    -0.084 HD
ENDROOT
BRANCH   5  10
ATOM      8  O   UNL     1      35.116 -21.794 -18.160  0.00  0.00    -0.277 OA
ATOM      9  N   UNL     1      32.897 -22.560 -18.315  0.00  0.00    -0.286 N 
ATOM     10  C   UNL     1      34.091 -22.034 -18.790  0.00  0.00    +0.206 C 
ATOM     11  H   UNL     1      32.181 -22.685 -18.980  0.00  0.00    +0.155 HD
BRANCH   9  12
ATOM     12  C   UNL     1      32.589 -22.936 -16.987  0.00  0.00    +0.050 C 
ATOM     13  C   UNL     1      33.599 -23.411 -16.165  0.00  0.00    +0.021 C 
ATOM     14  C   UNL     1      31.285 -22.822 -16.535  0.00  0.00    +0.015 C 
ATOM     15  C   UNL     1      33.294 -23.781 -14.854  0.00  0.00    +0.077 C 
ATOM     16  C   UNL     1      30.981 -23.192 -15.225  0.00  0.00    +0.001 C 
ATOM     17  C   UNL     1      31.986 -23.672 -14.385  0.00  0.00    +0.007 C 
BRANCH  15  19
ATOM     18  O   UNL     1      35.543 -24.344 -14.260  0.00  0.00    -0.245 OA
ATOM     19  C   UNL     1      34.341 -24.283 -13.978  0.00  0.00    +0.338 C 
BRANCH  19  20
ATOM     20  O   UNL     1      33.860 -24.692 -12.773  0.00  0.00    -0.477 OA
ATOM     21  H   UNL     1      32.997 -25.051 -12.711  0.00  0.00    +0.295 HD
ENDBRANCH  19  20
ENDBRANCH  15  19
ENDBRANCH   9  12
ENDBRANCH   5  10
BRANCH   2  22
ATOM     22  S   UNL     1      35.282 -18.053 -20.993  0.00  0.00    -0.120 S 
BRANCH  22  29
ATOM     23  O   UNL     1      34.102 -13.100 -23.408  0.00  0.00    -0.274 OA
ATOM     24  N   UNL     1      33.351 -15.289 -22.957  0.00  0.00    -0.254 N 
ATOM     25  C   UNL     1      33.323 -16.269 -24.062  0.00  0.00    +0.095 C 
ATOM     26  C   UNL     1      33.735 -15.078 -24.984  0.00  0.00    +0.123 C 
ATOM     27  C   UNL     1      34.199 -17.432 -23.548  0.00  0.00    +0.049 C 
ATOM     28  C   UNL     1      33.759 -14.223 -23.698  0.00  0.00    +0.233 C 
ATOM     29  C   UNL     1      34.462 -17.033 -22.106  0.00  0.00    +0.024 C 
ATOM     30  C   UNL     1      33.982 -15.806 -21.863  0.00  0.00    +0.132 C 
ATOM     31  C   UNL     1      35.453 -17.680 -24.368  0.00  0.00    +0.007 C 
BRANCH  30  33
ATOM     32  O   UNL     1      35.135 -14.532 -20.223  0.00  0.00    -0.244 OA
ATOM     33  C   UNL     1      34.097 -15.020 -20.640  0.00  0.00    +0.352 C 
BRANCH  33  34
ATOM     34  O   UNL     1      32.888 -14.918 -20.044  0.00  0.00    -0.476 OA
ATOM     35  H   UNL     1      32.291 -14.245 -20.308  0.00  0.00    +0.295 HD
ENDBRANCH  33  34
ENDBRANCH  30  33
BRANCH  26  36
ATOM     36  C   UNL     1      32.836 -14.545 -26.071  0.00  0.00    +0.121 C 
ATOM     37  C   UNL     1      33.579 -13.562 -26.971  0.00  0.00    +0.032 C 
BRANCH  36  38
ATOM     38  O   UNL     1      32.354 -15.628 -26.866  0.00  0.00    -0.384 OA
ATOM     39  H   UNL     1      31.513 -15.377 -27.279  0.00  0.00    +0.210 HD
ENDBRANCH  36  38
ENDBRANCH  26  36
ENDBRANCH  22  29
ENDBRANCH   2  22
TORSDOF 10
ENDMDL
MODEL 3
REMARK VINA RESULT:     -10.1      4.235      6.770
REMARK  Name = 150610
REMARK  10 active torsions:
REMARK  status: ('A' for Active; 'I' for Inactive)
REMARK    1  A    between atoms: C_2  and  S_22
REMARK    2  A    between atoms: C_5  and  C_10
REMARK    3  A    between atoms: N_9  and  C_12
REMARK    4  A    between atoms: C_15  and  C_19
REMARK    5  A    between atoms: C_19  and  O_20
REMARK    6  A    between atoms: S_22  and  C_29
REMARK    7  A    between atoms: C_26  and  C_36
REMARK    8  A    between atoms: C_30  and  C_33
REMARK    9  A    between atoms: C_33  and  O_34
REMARK   10  A    between atoms: C_36  and  O_38
REMARK                            x       y       z     vdW  Elec       q    Type
REMARK                         _______ _______ _______ _____ _____    ______ ____
ROOT
ATOM      1  N   UNL     1      32.553 -20.565 -20.661  0.00  0.00    +0.391 N 
ATOM      2  C   UNL     1      33.977 -18.820 -21.289  0.00  0.00    +0.029 C 
ATOM      3  C   UNL     1      34.874 -20.026 -21.028  0.00  0.00    -0.003 C 
ATOM      4  C   UNL     1      32.734 -19.117 -20.471  0.00  0.00    -0.070 C 
ATOM      5  C   UNL     1      33.905 -21.140 -20.637  0.00  0.00    +0.018 C 
ATOM      6  H   UNL     1      32.102 -20.752 -21.557  0.00  0.00    -0.084 HD
ATOM      7  H   UNL     1      31.958 -20.968 -19.937  0.00  0.00    -0.084 HD
ENDROOT
BRANCH   5  10
ATOM      8  O   UNL     1      35.235 -21.489 -18.705  0.00  0.00    -0.277 OA
ATOM      9  N   UNL     1      32.998 -22.217 -18.717  0.00  0.00    -0.286 N 
ATOM     10  C   UNL     1      34.142 -21.628 -19.242  0.00  0.00    +0.206 C 
ATOM     11  H   UNL     1      32.209 -22.238 -19.306  0.00  0.00    +0.155 HD
BRANCH   9  12
ATOM     12  C   UNL     1      32.836 -22.790 -17.434  0.00  0.00    +0.050 C 
ATOM     13  C   UNL     1      33.921 -23.392 -16.818  0.00  0.00    +0.021 C 
ATOM     14  C   UNL     1      31.596 -22.737 -16.820  0.00  0.00    +0.015 C 
ATOM     15  C   UNL     1      33.760 -23.957 -15.552  0.00  0.00    +0.077 C 
ATOM     16  C   UNL     1      31.435 -23.301 -15.555  0.00  0.00    +0.001 C 
ATOM     17  C   UNL     1      32.518 -23.911 -14.921  0.00  0.00    +0.007 C 
BRANCH  15  19
ATOM     18  O   UNL     1      35.964 -24.879 -15.427  0.00  0.00    -0.245 OA
ATOM     19  C   UNL     1      34.888 -24.594 -14.891  0.00  0.00    +0.338 C 
BRANCH  19  20
ATOM     20  O   UNL     1      34.642 -24.856 -13.579  0.00  0.00    -0.477 OA
ATOM     21  H   UNL     1      35.037 -24.327 -12.913  0.00  0.00    +0.295 HD
ENDBRANCH  19  20
ENDBRANCH  15  19
ENDBRANCH   9  12
ENDBRANCH   5  10
BRANCH   2  22
ATOM     22  S   UNL     1      34.746 -17.244 -20.831  0.00  0.00    -0.120 S 
BRANCH  22  29
ATOM     23  O   UNL     1      33.228 -16.684 -26.229  0.00  0.00    -0.274 OA
ATOM     24  N   UNL     1      34.558 -15.849 -24.471  0.00  0.00    -0.254 N 
ATOM     25  C   UNL     1      34.167 -14.577 -23.830  0.00  0.00    +0.095 C 
ATOM     26  C   UNL     1      33.056 -14.494 -24.925  0.00  0.00    +0.123 C 
ATOM     27  C   UNL     1      34.018 -14.944 -22.338  0.00  0.00    +0.049 C 
ATOM     28  C   UNL     1      33.581 -15.860 -25.418  0.00  0.00    +0.233 C 
ATOM     29  C   UNL     1      34.541 -16.370 -22.296  0.00  0.00    +0.024 C 
ATOM     30  C   UNL     1      34.792 -16.814 -23.535  0.00  0.00    +0.132 C 
ATOM     31  C   UNL     1      32.611 -14.777 -21.790  0.00  0.00    +0.007 C 
BRANCH  30  33
ATOM     32  O   UNL     1      34.543 -18.932 -24.584  0.00  0.00    -0.244 OA
ATOM     33  C   UNL     1      35.224 -18.147 -23.943  0.00  0.00    +0.352 C 
BRANCH  33  34
ATOM     34  O   UNL     1      36.482 -18.375 -23.506  0.00  0.00    -0.476 OA
ATOM     35  H   UNL     1      37.148 -17.728 -23.637  0.00  0.00    +0.295 HD
ENDBRANCH  33  34
ENDBRANCH  30  33
BRANCH  26  36
ATOM     36  C   UNL     1      33.035 -13.416 -25.978  0.00  0.00    +0.121 C 
ATOM     37  C   UNL     1      33.756 -12.159 -25.500  0.00  0.00    +0.032 C 
BRANCH  36  38
ATOM     38  O   UNL     1      33.673 -13.893 -27.164  0.00  0.00    -0.384 OA
ATOM     39  H   UNL     1      33.407 -14.812 -27.326  0.00  0.00    +0.210 HD
ENDBRANCH  36  38
ENDBRANCH  26  36
ENDBRANCH  22  29
ENDBRANCH   2  22
TORSDOF 10
ENDMDL
MODEL 4
REMARK VINA RESULT:     -10.0      4.255      7.124
REMARK  Name = 150610
REMARK  10 active torsions:
REMARK  status: ('A' for Active; 'I' for Inactive)
REMARK    1  A    between atoms: C_2  and  S_22
REMARK    2  A    between atoms: C_5  and  C_10
REMARK    3  A    between atoms: N_9  and  C_12
REMARK    4  A    between atoms: C_15  and  C_19
REMARK    5  A    between atoms: C_19  and  O_20
REMARK    6  A    between atoms: S_22  and  C_29
REMARK    7  A    between atoms: C_26  and  C_36
REMARK    8  A    between atoms: C_30  and  C_33
REMARK    9  A    between atoms: C_33  and  O_34
REMARK   10  A    between atoms: C_36  and  O_38
REMARK                            x       y       z     vdW  Elec       q    Type
REMARK                         _______ _______ _______ _____ _____    ______ ____
ROOT
ATOM      1  N   UNL     1      32.586 -20.630 -20.634  0.00  0.00    +0.391 N 
ATOM      2  C   UNL     1      34.034 -18.901 -21.251  0.00  0.00    +0.029 C 
ATOM      3  C   UNL     1      34.918 -20.109 -20.959  0.00  0.00    -0.003 C 
ATOM      4  C   UNL     1      32.772 -19.182 -20.456  0.00  0.00    -0.070 C 
ATOM      5  C   UNL     1      33.934 -21.214 -20.576  0.00  0.00    +0.018 C 
ATOM      6  H   UNL     1      32.153 -20.824 -21.537  0.00  0.00    -0.084 HD
ATOM      7  H   UNL     1      31.974 -21.022 -19.919  0.00  0.00    -0.084 HD
ENDROOT
BRANCH   5  10
ATOM      8  O   UNL     1      35.223 -21.557 -18.615  0.00  0.00    -0.277 OA
ATOM      9  N   UNL     1      32.977 -22.256 -18.661  0.00  0.00    -0.286 N 
ATOM     10  C   UNL     1      34.138 -21.688 -19.171  0.00  0.00    +0.206 C 
ATOM     11  H   UNL     1      32.199 -22.274 -19.265  0.00  0.00    +0.155 HD
BRANCH   9  12
ATOM     12  C   UNL     1      32.784 -22.812 -17.375  0.00  0.00    +0.050 C 
ATOM     13  C   UNL     1      31.501 -22.898 -16.859  0.00  0.00    +0.021 C 
ATOM     14  C   UNL     1      33.881 -23.261 -16.659  0.00  0.00    +0.015 C 
ATOM     15  C   UNL     1      31.312 -23.448 -15.590  0.00  0.00    +0.077 C 
ATOM     16  C   UNL     1      33.692 -23.811 -15.392  0.00  0.00    +0.001 C 
ATOM     17  C   UNL     1      32.406 -23.904 -14.857  0.00  0.00    +0.007 C 
BRANCH  15  19
ATOM     18  O   UNL     1      29.436 -24.583 -14.631  0.00  0.00    -0.245 OA
ATOM     19  C   UNL     1      29.973 -23.545 -15.032  0.00  0.00    +0.338 C 
BRANCH  19  20
ATOM     20  O   UNL     1      29.339 -22.341 -14.986  0.00  0.00    -0.477 OA
ATOM     21  H   UNL     1      28.459 -22.287 -14.671  0.00  0.00    +0.295 HD
ENDBRANCH  19  20
ENDBRANCH  15  19
ENDBRANCH   9  12
ENDBRANCH   5  10
BRANCH   2  22
ATOM     22  S   UNL     1      34.803 -17.325 -20.794  0.00  0.00    -0.120 S 
BRANCH  22  29
ATOM     23  O   UNL     1      33.292 -16.765 -26.194  0.00  0.00    -0.274 OA
ATOM     24  N   UNL     1      34.603 -15.916 -24.427  0.00  0.00    -0.254 N 
ATOM     25  C   UNL     1      34.187 -14.654 -23.781  0.00  0.00    +0.095 C 
ATOM     26  C   UNL     1      33.079 -14.584 -24.879  0.00  0.00    +0.123 C 
ATOM     27  C   UNL     1      34.040 -15.031 -22.292  0.00  0.00    +0.049 C 
ATOM     28  C   UNL     1      33.628 -15.939 -25.377  0.00  0.00    +0.233 C 
ATOM     29  C   UNL     1      34.587 -16.448 -22.255  0.00  0.00    +0.024 C 
ATOM     30  C   UNL     1      34.850 -16.882 -23.495  0.00  0.00    +0.132 C 
ATOM     31  C   UNL     1      32.629 -14.891 -21.747  0.00  0.00    +0.007 C 
BRANCH  30  33
ATOM     32  O   UNL     1      34.641 -18.998 -24.554  0.00  0.00    -0.244 OA
ATOM     33  C   UNL     1      35.306 -18.204 -23.909  0.00  0.00    +0.352 C 
BRANCH  33  34
ATOM     34  O   UNL     1      36.567 -18.413 -23.470  0.00  0.00    -0.476 OA
ATOM     35  H   UNL     1      37.150 -17.687 -23.359  0.00  0.00    +0.295 HD
ENDBRANCH  33  34
ENDBRANCH  30  33
BRANCH  26  36
ATOM     36  C   UNL     1      33.042 -13.502 -25.928  0.00  0.00    +0.121 C 
ATOM     37  C   UNL     1      33.706 -12.223 -25.427  0.00  0.00    +0.032 C 
BRANCH  36  38
ATOM     38  O   UNL     1      33.723 -13.949 -27.100  0.00  0.00    -0.384 OA
ATOM     39  H   UNL     1      33.362 -13.494 -27.877  0.00  0.00    +0.210 HD
ENDBRANCH  36  38
ENDBRANCH  26  36
ENDBRANCH  22  29
ENDBRANCH   2  22
TORSDOF 10
ENDMDL
MODEL 5
REMARK VINA RESULT:      -9.8      3.188      5.113
REMARK  Name = 150610
REMARK  10 active torsions:
REMARK  status: ('A' for Active; 'I' for Inactive)
REMARK    1  A    between atoms: C_2  and  S_22
REMARK    2  A    between atoms: C_5  and  C_10
REMARK    3  A    between atoms: N_9  and  C_12
REMARK    4  A    between atoms: C_15  and  C_19
REMARK    5  A    between atoms: C_19  and  O_20
REMARK    6  A    between atoms: S_22  and  C_29
REMARK    7  A    between atoms: C_26  and  C_36
REMARK    8  A    between atoms: C_30  and  C_33
REMARK    9  A    between atoms: C_33  and  O_34
REMARK   10  A    between atoms: C_36  and  O_38
REMARK                            x       y       z     vdW  Elec       q    Type
REMARK                         _______ _______ _______ _____ _____    ______ ____
ROOT
ATOM      1  N   UNL     1      31.277 -11.489 -21.436  0.00  0.00    +0.391 N 
ATOM      2  C   UNL     1      31.834  -9.266 -21.900  0.00  0.00    +0.029 C 
ATOM      3  C   UNL     1      32.042 -10.035 -23.201  0.00  0.00    -0.003 C 
ATOM      4  C   UNL     1      31.960 -10.334 -20.831  0.00  0.00    -0.070 C 
ATOM      5  C   UNL     1      31.654 -11.472 -22.857  0.00  0.00    +0.018 C 
ATOM      6  H   UNL     1      30.266 -11.396 -21.335  0.00  0.00    -0.084 HD
ATOM      7  H   UNL     1      31.544 -12.363 -20.985  0.00  0.00    -0.084 HD
ENDROOT
BRANCH   5  10
ATOM      8  O   UNL     1      33.816 -12.084 -23.615  0.00  0.00    -0.277 OA
ATOM      9  N   UNL     1      32.535 -13.635 -22.396  0.00  0.00    -0.286 N 
ATOM     10  C   UNL     1      32.803 -12.418 -23.009  0.00  0.00    +0.206 C 
ATOM     11  H   UNL     1      31.657 -13.718 -21.957  0.00  0.00    +0.155 HD
BRANCH   9  12
ATOM     12  C   UNL     1      33.376 -14.770 -22.330  0.00  0.00    +0.050 C 
ATOM     13  C   UNL     1      33.664 -15.470 -23.491  0.00  0.00    +0.021 C 
ATOM     14  C   UNL     1      33.896 -15.158 -21.106  0.00  0.00    +0.015 C 
ATOM     15  C   UNL     1      34.495 -16.589 -23.424  0.00  0.00    +0.077 C 
ATOM     16  C   UNL     1      34.726 -16.276 -21.040  0.00  0.00    +0.001 C 
ATOM     17  C   UNL     1      35.025 -16.992 -22.199  0.00  0.00    +0.007 C 
BRANCH  15  19
ATOM     18  O   UNL     1      34.930 -16.853 -25.762  0.00  0.00    -0.245 OA
ATOM     19  C   UNL     1      34.807 -17.337 -24.632  0.00  0.00    +0.338 C 
BRANCH  19  20
ATOM     20  O   UNL     1      34.958 -18.668 -24.396  0.00  0.00    -0.477 OA
ATOM     21  H   UNL     1      35.079 -18.978 -23.519  0.00  0.00    +0.295 HD
ENDBRANCH  19  20
ENDBRANCH  15  19
ENDBRANCH   9  12
ENDBRANCH   5  10
BRANCH   2  22
ATOM     22  S   UNL     1      33.021  -7.915 -21.671  0.00  0.00    -0.120 S 
BRANCH  22  29
ATOM     23  O   UNL     1      31.593  -2.969 -23.965  0.00  0.00    -0.274 OA
ATOM     24  N   UNL     1      31.503  -5.318 -24.157  0.00  0.00    -0.254 N 
ATOM     25  C   UNL     1      32.352  -5.978 -25.169  0.00  0.00    +0.095 C 
ATOM     26  C   UNL     1      32.735  -4.536 -25.630  0.00  0.00    +0.123 C 
ATOM     27  C   UNL     1      33.195  -6.979 -24.352  0.00  0.00    +0.049 C 
ATOM     28  C   UNL     1      31.836  -4.038 -24.477  0.00  0.00    +0.233 C 
ATOM     29  C   UNL     1      32.565  -6.888 -22.972  0.00  0.00    +0.024 C 
ATOM     30  C   UNL     1      31.648  -5.913 -22.938  0.00  0.00    +0.132 C 
ATOM     31  C   UNL     1      34.689  -6.707 -24.377  0.00  0.00    +0.007 C 
BRANCH  30  33
ATOM     32  O   UNL     1      29.715  -5.068 -21.844  0.00  0.00    -0.244 OA
ATOM     33  C   UNL     1      30.876  -5.442 -21.793  0.00  0.00    +0.352 C 
BRANCH  33  34
ATOM     34  O   UNL     1      31.638  -5.483 -20.677  0.00  0.00    -0.476 OA
ATOM     35  H   UNL     1      32.164  -6.238 -20.497  0.00  0.00    +0.295 HD
ENDBRANCH  33  34
ENDBRANCH  30  33
BRANCH  26  36
ATOM     36  C   UNL     1      32.367  -3.993 -26.988  0.00  0.00    +0.121 C 
ATOM     37  C   UNL     1      32.920  -2.586 -27.190  0.00  0.00    +0.032 C 
BRANCH  36  38
ATOM     38  O   UNL     1      32.892  -4.848 -28.003  0.00  0.00    -0.384 OA
ATOM     39  H   UNL     1      33.593  -4.383 -28.486  0.00  0.00    +0.210 HD
ENDBRANCH  36  38
ENDBRANCH  26  36
ENDBRANCH  22  29
ENDBRANCH   2  22
TORSDOF 10
ENDMDL
MODEL 6
REMARK VINA RESULT:      -9.7      2.250      3.413
REMARK  Name = 150610
REMARK  10 active torsions:
REMARK  status: ('A' for Active; 'I' for Inactive)
REMARK    1  A    between atoms: C_2  and  S_22
REMARK    2  A    between atoms: C_5  and  C_10
REMARK    3  A    between atoms: N_9  and  C_12
REMARK    4  A    between atoms: C_15  and  C_19
REMARK    5  A    between atoms: C_19  and  O_20
REMARK    6  A    between atoms: S_22  and  C_29
REMARK    7  A    between atoms: C_26  and  C_36
REMARK    8  A    between atoms: C_30  and  C_33
REMARK    9  A    between atoms: C_33  and  O_34
REMARK   10  A    between atoms: C_36  and  O_38
REMARK                            x       y       z     vdW  Elec       q    Type
REMARK                         _______ _______ _______ _____ _____    ______ ____
ROOT
ATOM      1  N   UNL     1      32.004 -13.043 -23.677  0.00  0.00    +0.391 N 
ATOM      2  C   UNL     1      33.148 -11.040 -24.059  0.00  0.00    +0.029 C 
ATOM      3  C   UNL     1      33.861 -12.101 -24.892  0.00  0.00    -0.003 C 
ATOM      4  C   UNL     1      32.470 -11.843 -22.965  0.00  0.00    -0.070 C 
ATOM      5  C   UNL     1      33.075 -13.384 -24.624  0.00  0.00    +0.018 C 
ATOM      6  H   UNL     1      31.137 -12.845 -24.176  0.00  0.00    -0.084 HD
ATOM      7  H   UNL     1      31.810 -13.811 -23.034  0.00  0.00    -0.084 HD
ENDROOT
BRANCH   5  10
ATOM      8  O   UNL     1      34.719 -14.134 -23.089  0.00  0.00    -0.277 OA
ATOM      9  N   UNL     1      33.644 -15.691 -24.487  0.00  0.00    -0.286 N 
ATOM     10  C   UNL     1      33.915 -14.432 -23.965  0.00  0.00    +0.206 C 
ATOM     11  H   UNL     1      32.961 -15.731 -25.195  0.00  0.00    +0.155 HD
BRANCH   9  12
ATOM     12  C   UNL     1      34.236 -16.922 -24.118  0.00  0.00    +0.050 C 
ATOM     13  C   UNL     1      34.663 -17.106 -22.813  0.00  0.00    +0.021 C 
ATOM     14  C   UNL     1      34.376 -17.918 -25.070  0.00  0.00    +0.015 C 
ATOM     15  C   UNL     1      35.246 -18.321 -22.451  0.00  0.00    +0.077 C 
ATOM     16  C   UNL     1      34.958 -19.132 -24.707  0.00  0.00    +0.001 C 
ATOM     17  C   UNL     1      35.394 -19.333 -23.397  0.00  0.00    +0.007 C 
BRANCH  15  19
ATOM     18  O   UNL     1      36.113 -19.600 -20.624  0.00  0.00    -0.245 OA
ATOM     19  C   UNL     1      35.701 -18.530 -21.086  0.00  0.00    +0.338 C 
BRANCH  19  20
ATOM     20  O   UNL     1      35.632 -17.398 -20.334  0.00  0.00    -0.477 OA
ATOM     21  H   UNL     1      34.830 -16.918 -20.283  0.00  0.00    +0.295 HD
ENDBRANCH  19  20
ENDBRANCH  15  19
ENDBRANCH   9  12
ENDBRANCH   5  10
BRANCH   2  22
ATOM     22  S   UNL     1      34.268  -9.778 -23.399  0.00  0.00    -0.120 S 
BRANCH  22  29
ATOM     23  O   UNL     1      31.709  -5.552 -20.688  0.00  0.00    -0.274 OA
ATOM     24  N   UNL     1      31.620  -7.056 -22.502  0.00  0.00    -0.254 N 
ATOM     25  C   UNL     1      31.874  -6.540 -23.862  0.00  0.00    +0.095 C 
ATOM     26  C   UNL     1      31.923  -5.127 -23.199  0.00  0.00    +0.123 C 
ATOM     27  C   UNL     1      33.048  -7.401 -24.374  0.00  0.00    +0.049 C 
ATOM     28  C   UNL     1      31.703  -5.860 -21.857  0.00  0.00    +0.233 C 
ATOM     29  C   UNL     1      33.188  -8.447 -23.280  0.00  0.00    +0.024 C 
ATOM     30  C   UNL     1      32.376  -8.165 -22.253  0.00  0.00    +0.132 C 
ATOM     31  C   UNL     1      34.319  -6.620 -24.660  0.00  0.00    +0.007 C 
BRANCH  30  33
ATOM     32  O   UNL     1      31.563  -9.844 -20.782  0.00  0.00    -0.244 OA
ATOM     33  C   UNL     1      32.262  -8.862 -20.977  0.00  0.00    +0.352 C 
BRANCH  33  34
ATOM     34  O   UNL     1      33.041  -8.258 -20.053  0.00  0.00    -0.476 OA
ATOM     35  H   UNL     1      32.724  -8.141 -19.178  0.00  0.00    +0.295 HD
ENDBRANCH  33  34
ENDBRANCH  30  33
BRANCH  26  36
ATOM     36  C   UNL     1      30.908  -4.053 -23.498  0.00  0.00    +0.121 C 
ATOM     37  C   UNL     1      31.492  -2.661 -23.277  0.00  0.00    +0.032 C 
BRANCH  36  38
ATOM     38  O   UNL     1      30.478  -4.166 -24.855  0.00  0.00    -0.384 OA
ATOM     39  H   UNL     1      29.897  -3.421 -25.073  0.00  0.00    +0.210 HD
ENDBRANCH  36  38
ENDBRANCH  26  36
ENDBRANCH  22  29
ENDBRANCH   2  22
TORSDOF 10
ENDMDL
MODEL 7
REMARK VINA RESULT:      -9.6      1.878     10.767
REMARK  Name = 150610
REMARK  10 active torsions:
REMARK  status: ('A' for Active; 'I' for Inactive)
REMARK    1  A    between atoms: C_2  and  S_22
REMARK    2  A    between atoms: C_5  and  C_10
REMARK    3  A    between atoms: N_9  and  C_12
REMARK    4  A    between atoms: C_15  and  C_19
REMARK    5  A    between atoms: C_19  and  O_20
REMARK    6  A    between atoms: S_22  and  C_29
REMARK    7  A    between atoms: C_26  and  C_36
REMARK    8  A    between atoms: C_30  and  C_33
REMARK    9  A    between atoms: C_33  and  O_34
REMARK   10  A    between atoms: C_36  and  O_38
REMARK                            x       y       z     vdW  Elec       q    Type
REMARK                         _______ _______ _______ _____ _____    ______ ____
ROOT
ATOM      1  N   UNL     1      30.652 -11.812 -21.850  0.00  0.00    +0.391 N 
ATOM      2  C   UNL     1      32.429 -13.328 -21.972  0.00  0.00    +0.029 C 
ATOM      3  C   UNL     1      32.692 -12.466 -20.741  0.00  0.00    -0.003 C 
ATOM      4  C   UNL     1      31.537 -12.455 -22.834  0.00  0.00    -0.070 C 
ATOM      5  C   UNL     1      31.505 -11.504 -20.693  0.00  0.00    +0.018 C 
ATOM      6  H   UNL     1      29.901 -12.447 -21.579  0.00  0.00    -0.084 HD
ATOM      7  H   UNL     1      30.214 -10.973 -22.228  0.00  0.00    -0.084 HD
ENDROOT
BRANCH   5  10
ATOM      8  O   UNL     1      32.209  -9.401 -19.854  0.00  0.00    -0.277 OA
ATOM      9  N   UNL     1      31.946  -9.693 -22.173  0.00  0.00    -0.286 N 
ATOM     10  C   UNL     1      31.931 -10.077 -20.838  0.00  0.00    +0.206 C 
ATOM     11  H   UNL     1      31.685 -10.381 -22.828  0.00  0.00    +0.155 HD
BRANCH   9  12
ATOM     12  C   UNL     1      32.292  -8.427 -22.701  0.00  0.00    +0.050 C 
ATOM     13  C   UNL     1      31.439  -7.353 -22.505  0.00  0.00    +0.021 C 
ATOM     14  C   UNL     1      33.478  -8.287 -23.403  0.00  0.00    +0.015 C 
ATOM     15  C   UNL     1      31.782  -6.105 -23.025  0.00  0.00    +0.077 C 
ATOM     16  C   UNL     1      33.821  -7.039 -23.923  0.00  0.00    +0.001 C 
ATOM     17  C   UNL     1      32.972  -5.948 -23.734  0.00  0.00    +0.007 C 
BRANCH  15  19
ATOM     18  O   UNL     1      30.503  -4.206 -23.720  0.00  0.00    -0.245 OA
ATOM     19  C   UNL     1      30.898  -4.967 -22.830  0.00  0.00    +0.338 C 
BRANCH  19  20
ATOM     20  O   UNL     1      30.528  -4.812 -21.530  0.00  0.00    -0.477 OA
ATOM     21  H   UNL     1      31.040  -4.273 -20.958  0.00  0.00    +0.295 HD
ENDBRANCH  19  20
ENDBRANCH  15  19
ENDBRANCH   9  12
ENDBRANCH   5  10
BRANCH   2  22
ATOM     22  S   UNL     1      33.944 -13.831 -22.830  0.00  0.00    -0.120 S 
BRANCH  22  29
ATOM     23  O   UNL     1      35.641 -19.142 -23.648  0.00  0.00    -0.274 OA
ATOM     24  N   UNL     1      33.886 -17.731 -22.950  0.00  0.00    -0.254 N 
ATOM     25  C   UNL     1      33.577 -17.645 -21.508  0.00  0.00    +0.095 C 
ATOM     26  C   UNL     1      34.643 -18.772 -21.325  0.00  0.00    +0.123 C 
ATOM     27  C   UNL     1      33.707 -16.141 -21.188  0.00  0.00    +0.049 C 
ATOM     28  C   UNL     1      34.860 -18.675 -22.851  0.00  0.00    +0.233 C 
ATOM     29  C   UNL     1      33.892 -15.528 -22.566  0.00  0.00    +0.024 C 
ATOM     30  C   UNL     1      34.015 -16.486 -23.494  0.00  0.00    +0.132 C 
ATOM     31  C   UNL     1      34.809 -15.804 -20.200  0.00  0.00    +0.007 C 
BRANCH  30  33
ATOM     32  O   UNL     1      33.438 -16.141 -25.773  0.00  0.00    -0.244 OA
ATOM     33  C   UNL     1      34.289 -16.330 -24.918  0.00  0.00    +0.352 C 
BRANCH  33  34
ATOM     34  O   UNL     1      35.617 -16.429 -25.144  0.00  0.00    -0.476 OA
ATOM     35  H   UNL     1      36.223 -16.015 -24.560  0.00  0.00    +0.295 HD
ENDBRANCH  33  34
ENDBRANCH  30  33
BRANCH  26  36
ATOM     36  C   UNL     1      34.289 -20.152 -20.831  0.00  0.00    +0.121 C 
ATOM     37  C   UNL     1      35.404 -20.736 -19.969  0.00  0.00    +0.032 C 
BRANCH  36  38
ATOM     38  O   UNL     1      33.090 -20.090 -20.058  0.00  0.00    -0.384 OA
ATOM     39  H   UNL     1      33.253 -19.580 -19.249  0.00  0.00    +0.210 HD
ENDBRANCH  36  38
ENDBRANCH  26  36
ENDBRANCH  22  29
ENDBRANCH   2  22
TORSDOF 10
ENDMDL
MODEL 8
REMARK VINA RESULT:      -9.3      4.136      6.688
REMARK  Name = 150610
REMARK  10 active torsions:
REMARK  status: ('A' for Active; 'I' for Inactive)
REMARK    1  A    between atoms: C_2  and  S_22
REMARK    2  A    between atoms: C_5  and  C_10
REMARK    3  A    between atoms: N_9  and  C_12
REMARK    4  A    between atoms: C_15  and  C_19
REMARK    5  A    between atoms: C_19  and  O_20
REMARK    6  A    between atoms: S_22  and  C_29
REMARK    7  A    between atoms: C_26  and  C_36
REMARK    8  A    between atoms: C_30  and  C_33
REMARK    9  A    between atoms: C_33  and  O_34
REMARK   10  A    between atoms: C_36  and  O_38
REMARK                            x       y       z     vdW  Elec       q    Type
REMARK                         _______ _______ _______ _____ _____    ______ ____
ROOT
ATOM      1  N   UNL     1      32.686 -21.077 -20.742  0.00  0.00    +0.391 N 
ATOM      2  C   UNL     1      34.427 -19.619 -21.300  0.00  0.00    +0.029 C 
ATOM      3  C   UNL     1      35.079 -20.812 -20.607  0.00  0.00    -0.003 C 
ATOM      4  C   UNL     1      33.002 -19.640 -20.780  0.00  0.00    -0.070 C 
ATOM      5  C   UNL     1      33.912 -21.740 -20.274  0.00  0.00    +0.018 C 
ATOM      6  H   UNL     1      32.434 -21.410 -21.672  0.00  0.00    -0.084 HD
ATOM      7  H   UNL     1      31.895 -21.273 -20.129  0.00  0.00    -0.084 HD
ENDROOT
BRANCH   5  10
ATOM      8  O   UNL     1      32.688 -21.717 -18.243  0.00  0.00    -0.277 OA
ATOM      9  N   UNL     1      34.942 -22.392 -18.230  0.00  0.00    -0.286 N 
ATOM     10  C   UNL     1      33.757 -21.944 -18.800  0.00  0.00    +0.206 C 
ATOM     11  H   UNL     1      35.702 -22.514 -18.843  0.00  0.00    +0.155 HD
BRANCH   9  12
ATOM     12  C   UNL     1      35.182 -22.694 -16.868  0.00  0.00    +0.050 C 
ATOM     13  C   UNL     1      34.149 -23.192 -16.091  0.00  0.00    +0.021 C 
ATOM     14  C   UNL     1      36.446 -22.487 -16.342  0.00  0.00    +0.015 C 
ATOM     15  C   UNL     1      34.388 -23.490 -14.749  0.00  0.00    +0.077 C 
ATOM     16  C   UNL     1      36.684 -22.785 -15.000  0.00  0.00    +0.001 C 
ATOM     17  C   UNL     1      35.654 -23.287 -14.204  0.00  0.00    +0.007 C 
BRANCH  15  19
ATOM     18  O   UNL     1      32.716 -25.076 -14.105  0.00  0.00    -0.245 OA
ATOM     19  C   UNL     1      33.314 -24.012 -13.918  0.00  0.00    +0.338 C 
BRANCH  19  20
ATOM     20  O   UNL     1      33.019 -23.191 -12.873  0.00  0.00    -0.477 OA
ATOM     21  H   UNL     1      32.160 -23.202 -12.497  0.00  0.00    +0.295 HD
ENDBRANCH  19  20
ENDBRANCH  15  19
ENDBRANCH   9  12
ENDBRANCH   5  10
BRANCH   2  22
ATOM     22  S   UNL     1      35.265 -18.048 -20.960  0.00  0.00    -0.120 S 
BRANCH  22  29
ATOM     23  O   UNL     1      34.111 -13.091 -23.378  0.00  0.00    -0.274 OA
ATOM     24  N   UNL     1      33.353 -15.279 -22.935  0.00  0.00    -0.254 N 
ATOM     25  C   UNL     1      33.332 -16.258 -24.041  0.00  0.00    +0.095 C 
ATOM     26  C   UNL     1      33.752 -15.066 -24.959  0.00  0.00    +0.123 C 
ATOM     27  C   UNL     1      34.202 -17.423 -23.522  0.00  0.00    +0.049 C 
ATOM     28  C   UNL     1      33.768 -14.213 -23.672  0.00  0.00    +0.233 C 
ATOM     29  C   UNL     1      34.455 -17.025 -22.078  0.00  0.00    +0.024 C 
ATOM     30  C   UNL     1      33.975 -15.798 -21.837  0.00  0.00    +0.132 C 
ATOM     31  C   UNL     1      35.462 -17.672 -24.333  0.00  0.00    +0.007 C 
BRANCH  30  33
ATOM     32  O   UNL     1      35.116 -14.517 -20.193  0.00  0.00    -0.244 OA
ATOM     33  C   UNL     1      34.082 -15.014 -20.612  0.00  0.00    +0.352 C 
BRANCH  33  34
ATOM     34  O   UNL     1      32.872 -14.923 -20.018  0.00  0.00    -0.476 OA
ATOM     35  H   UNL     1      32.557 -15.628 -19.486  0.00  0.00    +0.295 HD
ENDBRANCH  33  34
ENDBRANCH  30  33
BRANCH  26  36
ATOM     36  C   UNL     1      32.863 -14.531 -26.052  0.00  0.00    +0.121 C 
ATOM     37  C   UNL     1      33.618 -13.560 -26.955  0.00  0.00    +0.032 C 
BRANCH  36  38
ATOM     38  O   UNL     1      32.373 -15.614 -26.843  0.00  0.00    -0.384 OA
ATOM     39  H   UNL     1      31.468 -15.832 -26.569  0.00  0.00    +0.210 HD
ENDBRANCH  36  38
ENDBRANCH  26  36
ENDBRANCH  22  29
ENDBRANCH   2  22
TORSDOF 10
ENDMDL
MODEL 9
REMARK VINA RESULT:      -9.3      2.896      5.156
REMARK  Name = 150610
REMARK  10 active torsions:
REMARK  status: ('A' for Active; 'I' for Inactive)
REMARK    1  A    between atoms: C_2  and  S_22
REMARK    2  A    between atoms: C_5  and  C_10
REMARK    3  A    between atoms: N_9  and  C_12
REMARK    4  A    between atoms: C_15  and  C_19
REMARK    5  A    between atoms: C_19  and  O_20
REMARK    6  A    between atoms: S_22  and  C_29
REMARK    7  A    between atoms: C_26  and  C_36
REMARK    8  A    between atoms: C_30  and  C_33
REMARK    9  A    between atoms: C_33  and  O_34
REMARK   10  A    between atoms: C_36  and  O_38
REMARK                            x       y       z     vdW  Elec       q    Type
REMARK                         _______ _______ _______ _____ _____    ______ ____
ROOT
ATOM      1  N   UNL     1      35.799 -19.443 -22.573  0.00  0.00    +0.391 N 
ATOM      2  C   UNL     1      34.672 -17.401 -22.396  0.00  0.00    +0.029 C 
ATOM      3  C   UNL     1      35.195 -17.719 -20.998  0.00  0.00    -0.003 C 
ATOM      4  C   UNL     1      34.590 -18.762 -23.063  0.00  0.00    -0.070 C 
ATOM      5  C   UNL     1      35.932 -19.046 -21.163  0.00  0.00    +0.018 C 
ATOM      6  H   UNL     1      36.615 -19.144 -23.105  0.00  0.00    -0.084 HD
ATOM      7  H   UNL     1      35.728 -20.455 -22.675  0.00  0.00    -0.084 HD
ENDROOT
BRANCH   5  10
ATOM      8  O   UNL     1      34.217 -20.597 -20.641  0.00  0.00    -0.277 OA
ATOM      9  N   UNL     1      36.141 -20.501 -19.291  0.00  0.00    -0.286 N 
ATOM     10  C   UNL     1      35.316 -20.138 -20.348  0.00  0.00    +0.206 C 
ATOM     11  H   UNL     1      36.993 -20.012 -19.215  0.00  0.00    +0.155 HD
BRANCH   9  12
ATOM     12  C   UNL     1      35.899 -21.491 -18.309  0.00  0.00    +0.050 C 
ATOM     13  C   UNL     1      36.875 -21.762 -17.364  0.00  0.00    +0.021 C 
ATOM     14  C   UNL     1      34.690 -22.166 -18.312  0.00  0.00    +0.015 C 
ATOM     15  C   UNL     1      36.635 -22.738 -16.396  0.00  0.00    +0.077 C 
ATOM     16  C   UNL     1      34.450 -23.142 -17.344  0.00  0.00    +0.001 C 
ATOM     17  C   UNL     1      35.423 -23.427 -16.387  0.00  0.00    +0.007 C 
BRANCH  15  19
ATOM     18  O   UNL     1      37.533 -22.853 -14.182  0.00  0.00    -0.245 OA
ATOM     19  C   UNL     1      37.649 -23.038 -15.398  0.00  0.00    +0.338 C 
BRANCH  19  20
ATOM     20  O   UNL     1      38.779 -23.562 -15.945  0.00  0.00    -0.477 OA
ATOM     21  H   UNL     1      39.618 -23.224 -15.700  0.00  0.00    +0.295 HD
ENDBRANCH  19  20
ENDBRANCH  15  19
ENDBRANCH   9  12
ENDBRANCH   5  10
BRANCH   2  22
ATOM     22  S   UNL     1      33.077 -16.540 -22.384  0.00  0.00    -0.120 S 
BRANCH  22  29
ATOM     23  O   UNL     1      33.146 -12.731 -26.537  0.00  0.00    -0.274 OA
ATOM     24  N   UNL     1      34.235 -13.555 -24.615  0.00  0.00    -0.254 N 
ATOM     25  C   UNL     1      34.170 -12.762 -23.370  0.00  0.00    +0.095 C 
ATOM     26  C   UNL     1      33.444 -11.678 -24.228  0.00  0.00    +0.123 C 
ATOM     27  C   UNL     1      33.561 -13.737 -22.341  0.00  0.00    +0.049 C 
ATOM     28  C   UNL     1      33.563 -12.672 -25.404  0.00  0.00    +0.233 C 
ATOM     29  C   UNL     1      33.533 -15.049 -23.107  0.00  0.00    +0.024 C 
ATOM     30  C   UNL     1      33.896 -14.856 -24.382  0.00  0.00    +0.132 C 
ATOM     31  C   UNL     1      32.212 -13.305 -21.791  0.00  0.00    +0.007 C 
BRANCH  30  33
ATOM     32  O   UNL     1      34.842 -16.604 -25.684  0.00  0.00    -0.244 OA
ATOM     33  C   UNL     1      33.923 -15.829 -25.468  0.00  0.00    +0.352 C 
BRANCH  33  34
ATOM     34  O   UNL     1      32.785 -15.742 -26.192  0.00  0.00    -0.476 OA
ATOM     35  H   UNL     1      32.805 -15.901 -27.116  0.00  0.00    +0.295 HD
ENDBRANCH  33  34
ENDBRANCH  30  33
BRANCH  26  36
ATOM     36  C   UNL     1      34.043 -10.320 -24.496  0.00  0.00    +0.121 C 
ATOM     37  C   UNL     1      33.322  -9.231 -23.707  0.00  0.00    +0.032 C 
BRANCH  36  38
ATOM     38  O   UNL     1      35.422 -10.324 -24.126  0.00  0.00    -0.384 OA
ATOM     39  H   UNL     1      35.739  -9.411 -24.050  0.00  0.00    +0.210 HD
ENDBRANCH  36  38
ENDBRANCH  26  36
ENDBRANCH  22  29
ENDBRANCH   2  22
TORSDOF 10
ENDMDL
