MODEL 1
REMARK VINA RESULT:      -8.5      0.000      0.000
REMARK  Name = 5959
REMARK  8 active torsions:
REMARK  status: ('A' for Active; 'I' for Inactive)
REMARK    1  A    between atoms: C_1  and  C_2
REMARK    2  A    between atoms: C_1  and  O_11
REMARK    3  A    between atoms: C_1  and  CA_13
REMARK    4  A    between atoms: C_7  and  N_10
REMARK    5  A    between atoms: CA_13  and  N_15
REMARK    6  A    between atoms: CA_13  and  C_21
REMARK    7  A    between atoms: C_16  and  C_20
REMARK    8  A    between atoms: C_21  and  O_22
REMARK                            x       y       z     vdW  Elec       q    Type
REMARK                         _______ _______ _______ _____ _____    ______ ____
ROOT
ATOM      1  C   UNL     1      35.436 -17.640 -21.877  0.00  0.00    +0.153 C 
ENDROOT
BRANCH   1   2
ATOM      2  C   UNL     1      34.935 -18.887 -21.184  0.00  0.00    +0.006 C 
ATOM      3  C   UNL     1      33.572 -19.096 -21.069  0.00  0.00    -0.000 C 
ATOM      4  C   UNL     1      35.851 -19.794 -20.678  0.00  0.00    -0.000 C 
ATOM      5  C   UNL     1      33.110 -20.247 -20.430  0.00  0.00    +0.024 C 
ATOM      6  C   UNL     1      35.389 -20.944 -20.039  0.00  0.00    +0.024 C 
ATOM      7  C   UNL     1      34.019 -21.171 -19.915  0.00  0.00    +0.143 C 
BRANCH   7  10
ATOM      8  O   UNL     1      32.581 -22.252 -18.472  0.00  0.00    -0.126 OA
ATOM      9  O   UNL     1      34.114 -23.438 -19.503  0.00  0.00    -0.126 OA
ATOM     10  N   UNL     1      33.548 -22.343 -19.266  0.00  0.00    +0.058 N 
ENDBRANCH   7  10
ENDBRANCH   1   2
BRANCH   1  11
ATOM     11  O   UNL     1      35.710 -17.997 -23.235  0.00  0.00    -0.378 OA
ATOM     12  H   UNL     1      36.056 -17.224 -23.709  0.00  0.00    +0.211 HD
ENDBRANCH   1  11
BRANCH   1  13
ATOM     13  CA  UNL     1      34.436 -16.464 -21.848  0.00  0.00    +0.132 C 
BRANCH  13  15
ATOM     14  O   UNL     1      32.523 -14.589 -22.872  0.00  0.00    -0.272 OA
ATOM     15  N   UNL     1      34.548 -15.700 -23.076  0.00  0.00    -0.299 N 
ATOM     16  C   UNL     1      33.565 -14.817 -23.484  0.00  0.00    +0.253 C 
ATOM     17  H   UNL     1      35.349 -15.814 -23.636  0.00  0.00    +0.150 HD
BRANCH  16  20
ATOM     18 CL   UNL     1      32.778 -14.721 -26.025  0.00  0.00    -0.087 Cl
ATOM     19 CL   UNL     1      33.753 -12.390 -24.559  0.00  0.00    -0.087 Cl
ATOM     20  C   UNL     1      33.907 -14.139 -24.791  0.00  0.00    +0.234 C 
ENDBRANCH  16  20
ENDBRANCH  13  15
BRANCH  13  21
ATOM     21  C   UNL     1      34.606 -15.524 -20.647  0.00  0.00    +0.159 C 
BRANCH  21  22
ATOM     22  O   UNL     1      33.350 -15.111 -20.124  0.00  0.00    -0.380 OA
ATOM     23  H   UNL     1      32.641 -15.621 -20.547  0.00  0.00    +0.211 HD
ENDBRANCH  21  22
ENDBRANCH  13  21
ENDBRANCH   1  13
TORSDOF 8
ENDMDL
MODEL 2
REMARK VINA RESULT:      -8.4      9.507     11.249
REMARK  Name = 5959
REMARK  8 active torsions:
REMARK  status: ('A' for Active; 'I' for Inactive)
REMARK    1  A    between atoms: C_1  and  C_2
REMARK    2  A    between atoms: C_1  and  O_11
REMARK    3  A    between atoms: C_1  and  CA_13
REMARK    4  A    between atoms: C_7  and  N_10
REMARK    5  A    between atoms: CA_13  and  N_15
REMARK    6  A    between atoms: CA_13  and  C_21
REMARK    7  A    between atoms: C_16  and  C_20
REMARK    8  A    between atoms: C_21  and  O_22
REMARK                            x       y       z     vdW  Elec       q    Type
REMARK                         _______ _______ _______ _____ _____    ______ ____
ROOT
ATOM      1  C   UNL     1      33.292 -24.010 -14.023  0.00  0.00    +0.153 C 
ENDROOT
BRANCH   1   2
ATOM      2  C   UNL     1      31.918 -23.952 -14.651  0.00  0.00    +0.006 C 
ATOM      3  C   UNL     1      31.023 -24.981 -14.416  0.00  0.00    -0.000 C 
ATOM      4  C   UNL     1      31.583 -22.872 -15.450  0.00  0.00    -0.000 C 
ATOM      5  C   UNL     1      29.754 -24.928 -14.995  0.00  0.00    +0.024 C 
ATOM      6  C   UNL     1      30.316 -22.819 -16.030  0.00  0.00    +0.024 C 
ATOM      7  C   UNL     1      29.401 -23.847 -15.802  0.00  0.00    +0.143 C 
BRANCH   7  10
ATOM      8  O   UNL     1      27.249 -23.026 -15.896  0.00  0.00    -0.126 OA
ATOM      9  O   UNL     1      27.866 -24.513 -17.388  0.00  0.00    -0.126 OA
ATOM     10  N   UNL     1      28.110 -23.792 -16.390  0.00  0.00    +0.058 N 
ENDBRANCH   7  10
ENDBRANCH   1   2
BRANCH   1  11
ATOM     11  O   UNL     1      33.228 -24.970 -12.964  0.00  0.00    -0.378 OA
ATOM     12  H   UNL     1      32.300 -25.173 -12.767  0.00  0.00    +0.211 HD
ENDBRANCH   1  11
BRANCH   1  13
ATOM     13  CA  UNL     1      34.413 -24.406 -15.007  0.00  0.00    +0.132 C 
BRANCH  13  15
ATOM     14  O   UNL     1      36.110 -26.511 -15.964  0.00  0.00    -0.272 OA
ATOM     15  N   UNL     1      35.497 -25.040 -14.280  0.00  0.00    -0.299 N 
ATOM     16  C   UNL     1      36.261 -26.052 -14.833  0.00  0.00    +0.253 C 
ATOM     17  H   UNL     1      35.695 -24.740 -13.364  0.00  0.00    +0.150 HD
BRANCH  16  20
ATOM     18 CL   UNL     1      38.905 -26.068 -14.531  0.00  0.00    -0.087 Cl
ATOM     19 CL   UNL     1      37.037 -25.822 -12.299  0.00  0.00    -0.087 Cl
ATOM     20  C   UNL     1      37.328 -26.551 -13.887  0.00  0.00    +0.234 C 
ENDBRANCH  16  20
ENDBRANCH  13  15
BRANCH  13  21
ATOM     21  C   UNL     1      34.969 -23.236 -15.830  0.00  0.00    +0.159 C 
BRANCH  21  22
ATOM     22  O   UNL     1      34.648 -23.368 -17.209  0.00  0.00    -0.380 OA
ATOM     23  H   UNL     1      35.451 -23.582 -17.709  0.00  0.00    +0.211 HD
ENDBRANCH  21  22
ENDBRANCH  13  21
ENDBRANCH   1  13
TORSDOF 8
ENDMDL
MODEL 3
REMARK VINA RESULT:      -8.4      1.995      2.641
REMARK  Name = 5959
REMARK  8 active torsions:
REMARK  status: ('A' for Active; 'I' for Inactive)
REMARK    1  A    between atoms: C_1  and  C_2
REMARK    2  A    between atoms: C_1  and  O_11
REMARK    3  A    between atoms: C_1  and  CA_13
REMARK    4  A    between atoms: C_7  and  N_10
REMARK    5  A    between atoms: CA_13  and  N_15
REMARK    6  A    between atoms: CA_13  and  C_21
REMARK    7  A    between atoms: C_16  and  C_20
REMARK    8  A    between atoms: C_21  and  O_22
REMARK                            x       y       z     vdW  Elec       q    Type
REMARK                         _______ _______ _______ _____ _____    ______ ____
ROOT
ATOM      1  C   UNL     1      35.807 -18.279 -21.857  0.00  0.00    +0.153 C 
ENDROOT
BRANCH   1   2
ATOM      2  C   UNL     1      35.149 -19.390 -21.071  0.00  0.00    +0.006 C 
ATOM      3  C   UNL     1      33.771 -19.399 -20.936  0.00  0.00    -0.000 C 
ATOM      4  C   UNL     1      35.937 -20.376 -20.502  0.00  0.00    -0.000 C 
ATOM      5  C   UNL     1      33.163 -20.425 -20.212  0.00  0.00    +0.024 C 
ATOM      6  C   UNL     1      35.330 -21.401 -19.777  0.00  0.00    +0.024 C 
ATOM      7  C   UNL     1      33.943 -21.425 -19.632  0.00  0.00    +0.143 C 
BRANCH   7  10
ATOM      8  O   UNL     1      33.834 -23.616 -18.920  0.00  0.00    -0.126 OA
ATOM      9  O   UNL     1      32.283 -22.218 -18.241  0.00  0.00    -0.126 OA
ATOM     10  N   UNL     1      33.324 -22.470 -18.896  0.00  0.00    +0.058 N 
ENDBRANCH   7  10
ENDBRANCH   1   2
BRANCH   1  11
ATOM     11  O   UNL     1      37.216 -18.528 -21.834  0.00  0.00    -0.378 OA
ATOM     12  H   UNL     1      37.493 -18.732 -20.928  0.00  0.00    +0.211 HD
ENDBRANCH   1  11
BRANCH   1  13
ATOM     13  CA  UNL     1      35.328 -18.179 -23.321  0.00  0.00    +0.132 C 
BRANCH  13  15
ATOM     14  O   UNL     1      34.861 -16.749 -25.763  0.00  0.00    -0.272 OA
ATOM     15  N   UNL     1      34.506 -16.994 -23.485  0.00  0.00    -0.299 N 
ATOM     16  C   UNL     1      34.344 -16.376 -24.711  0.00  0.00    +0.253 C 
ATOM     17  H   UNL     1      34.050 -16.619 -22.697  0.00  0.00    +0.150 HD
BRANCH  16  20
ATOM     18 CL   UNL     1      34.198 -13.990 -23.540  0.00  0.00    -0.087 Cl
ATOM     19 CL   UNL     1      33.271 -14.500 -26.263  0.00  0.00    -0.087 Cl
ATOM     20  C   UNL     1      33.444 -15.165 -24.630  0.00  0.00    +0.234 C 
ENDBRANCH  16  20
ENDBRANCH  13  15
BRANCH  13  21
ATOM     21  C   UNL     1      34.551 -19.408 -23.813  0.00  0.00    +0.159 C 
BRANCH  21  22
ATOM     22  O   UNL     1      34.936 -19.777 -25.131  0.00  0.00    -0.380 OA
ATOM     23  H   UNL     1      34.163 -20.112 -25.611  0.00  0.00    +0.211 HD
ENDBRANCH  21  22
ENDBRANCH  13  21
ENDBRANCH   1  13
TORSDOF 8
ENDMDL
MODEL 4
REMARK VINA RESULT:      -8.3      1.368      2.301
REMARK  Name = 5959
REMARK  8 active torsions:
REMARK  status: ('A' for Active; 'I' for Inactive)
REMARK    1  A    between atoms: C_1  and  C_2
REMARK    2  A    between atoms: C_1  and  O_11
REMARK    3  A    between atoms: C_1  and  CA_13
REMARK    4  A    between atoms: C_7  and  N_10
REMARK    5  A    between atoms: CA_13  and  N_15
REMARK    6  A    between atoms: CA_13  and  C_21
REMARK    7  A    between atoms: C_16  and  C_20
REMARK    8  A    between atoms: C_21  and  O_22
REMARK                            x       y       z     vdW  Elec       q    Type
REMARK                         _______ _______ _______ _____ _____    ______ ____
ROOT
ATOM      1  C   UNL     1      34.413 -17.646 -21.495  0.00  0.00    +0.153 C 
ENDROOT
BRANCH   1   2
ATOM      2  C   UNL     1      34.365 -19.024 -20.875  0.00  0.00    +0.006 C 
ATOM      3  C   UNL     1      33.137 -19.607 -20.615  0.00  0.00    -0.000 C 
ATOM      4  C   UNL     1      35.552 -19.676 -20.581  0.00  0.00    -0.000 C 
ATOM      5  C   UNL     1      33.093 -20.879 -20.044  0.00  0.00    +0.024 C 
ATOM      6  C   UNL     1      35.507 -20.947 -20.009  0.00  0.00    +0.024 C 
ATOM      7  C   UNL     1      34.278 -21.549 -19.741  0.00  0.00    +0.143 C 
BRANCH   7  10
ATOM      8  O   UNL     1      34.427 -22.965 -17.927  0.00  0.00    -0.126 OA
ATOM      9  O   UNL     1      34.002 -23.833 -19.899  0.00  0.00    -0.126 OA
ATOM     10  N   UNL     1      34.233 -22.844 -19.161  0.00  0.00    +0.058 N 
ENDBRANCH   7  10
ENDBRANCH   1   2
BRANCH   1  11
ATOM     11  O   UNL     1      35.275 -16.849 -20.677  0.00  0.00    -0.378 OA
ATOM     12  H   UNL     1      35.801 -17.427 -20.102  0.00  0.00    +0.211 HD
ENDBRANCH   1  11
BRANCH   1  13
ATOM     13  CA  UNL     1      34.929 -17.632 -22.949  0.00  0.00    +0.132 C 
BRANCH  13  15
ATOM     14  O   UNL     1      34.898 -14.773 -22.720  0.00  0.00    -0.272 OA
ATOM     15  N   UNL     1      34.134 -16.710 -23.739  0.00  0.00    -0.299 N 
ATOM     16  C   UNL     1      34.191 -15.341 -23.550  0.00  0.00    +0.253 C 
ATOM     17  H   UNL     1      33.536 -17.071 -24.432  0.00  0.00    +0.150 HD
BRANCH  16  20
ATOM     18 CL   UNL     1      33.765 -12.890 -24.496  0.00  0.00    -0.087 Cl
ATOM     19 CL   UNL     1      33.441 -15.308 -26.103  0.00  0.00    -0.087 Cl
ATOM     20  C   UNL     1      33.276 -14.592 -24.491  0.00  0.00    +0.234 C 
ENDBRANCH  16  20
ENDBRANCH  13  15
BRANCH  13  21
ATOM     21  C   UNL     1      34.935 -19.008 -23.628  0.00  0.00    +0.159 C 
BRANCH  21  22
ATOM     22  O   UNL     1      34.408 -18.943 -24.947  0.00  0.00    -0.380 OA
ATOM     23  H   UNL     1      35.085 -18.595 -25.548  0.00  0.00    +0.211 HD
ENDBRANCH  21  22
ENDBRANCH  13  21
ENDBRANCH   1  13
TORSDOF 8
ENDMDL
MODEL 5
REMARK VINA RESULT:      -8.1      1.718      2.780
REMARK  Name = 5959
REMARK  8 active torsions:
REMARK  status: ('A' for Active; 'I' for Inactive)
REMARK    1  A    between atoms: C_1  and  C_2
REMARK    2  A    between atoms: C_1  and  O_11
REMARK    3  A    between atoms: C_1  and  CA_13
REMARK    4  A    between atoms: C_7  and  N_10
REMARK    5  A    between atoms: CA_13  and  N_15
REMARK    6  A    between atoms: CA_13  and  C_21
REMARK    7  A    between atoms: C_16  and  C_20
REMARK    8  A    between atoms: C_21  and  O_22
REMARK                            x       y       z     vdW  Elec       q    Type
REMARK                         _______ _______ _______ _____ _____    ______ ____
ROOT
ATOM      1  C   UNL     1      35.938 -17.964 -21.899  0.00  0.00    +0.153 C 
ENDROOT
BRANCH   1   2
ATOM      2  C   UNL     1      35.282 -19.118 -21.176  0.00  0.00    +0.006 C 
ATOM      3  C   UNL     1      36.076 -20.100 -20.608  0.00  0.00    -0.000 C 
ATOM      4  C   UNL     1      33.900 -19.170 -21.096  0.00  0.00    -0.000 C 
ATOM      5  C   UNL     1      35.470 -21.165 -19.940  0.00  0.00    +0.024 C 
ATOM      6  C   UNL     1      33.295 -20.235 -20.429  0.00  0.00    +0.024 C 
ATOM      7  C   UNL     1      34.080 -21.232 -19.851  0.00  0.00    +0.143 C 
BRANCH   7  10
ATOM      8  O   UNL     1      33.984 -23.455 -19.245  0.00  0.00    -0.126 OA
ATOM      9  O   UNL     1      32.417 -22.103 -18.512  0.00  0.00    -0.126 OA
ATOM     10  N   UNL     1      33.465 -22.315 -19.170  0.00  0.00    +0.058 N 
ENDBRANCH   7  10
ENDBRANCH   1   2
BRANCH   1  11
ATOM     11  O   UNL     1      37.213 -18.426 -22.355  0.00  0.00    -0.378 OA
ATOM     12  H   UNL     1      37.343 -18.157 -23.278  0.00  0.00    +0.211 HD
ENDBRANCH   1  11
BRANCH   1  13
ATOM     13  CA  UNL     1      35.125 -17.436 -23.100  0.00  0.00    +0.132 C 
BRANCH  13  15
ATOM     14  O   UNL     1      34.842 -14.585 -22.966  0.00  0.00    -0.272 OA
ATOM     15  N   UNL     1      33.967 -16.704 -22.620  0.00  0.00    -0.299 N 
ATOM     16  C   UNL     1      33.929 -15.322 -22.596  0.00  0.00    +0.253 C 
ATOM     17  H   UNL     1      33.184 -17.208 -22.303  0.00  0.00    +0.150 HD
BRANCH  16  20
ATOM     18 CL   UNL     1      32.782 -14.604 -20.304  0.00  0.00    -0.087 Cl
ATOM     19 CL   UNL     1      32.296 -13.235 -22.839  0.00  0.00    -0.087 Cl
ATOM     20  C   UNL     1      32.621 -14.792 -22.058  0.00  0.00    +0.234 C 
ENDBRANCH  16  20
ENDBRANCH  13  15
BRANCH  13  21
ATOM     21  C   UNL     1      34.668 -18.526 -24.078  0.00  0.00    +0.159 C 
BRANCH  21  22
ATOM     22  O   UNL     1      34.513 -18.015 -25.396  0.00  0.00    -0.380 OA
ATOM     23  H   UNL     1      33.923 -17.246 -25.377  0.00  0.00    +0.211 HD
ENDBRANCH  21  22
ENDBRANCH  13  21
ENDBRANCH   1  13
TORSDOF 8
ENDMDL
MODEL 6
REMARK VINA RESULT:      -8.1      8.257     11.215
REMARK  Name = 5959
REMARK  8 active torsions:
REMARK  status: ('A' for Active; 'I' for Inactive)
REMARK    1  A    between atoms: C_1  and  C_2
REMARK    2  A    between atoms: C_1  and  O_11
REMARK    3  A    between atoms: C_1  and  CA_13
REMARK    4  A    between atoms: C_7  and  N_10
REMARK    5  A    between atoms: CA_13  and  N_15
REMARK    6  A    between atoms: CA_13  and  C_21
REMARK    7  A    between atoms: C_16  and  C_20
REMARK    8  A    between atoms: C_21  and  O_22
REMARK                            x       y       z     vdW  Elec       q    Type
REMARK                         _______ _______ _______ _____ _____    ______ ____
ROOT
ATOM      1  C   UNL     1      34.032 -23.812 -13.116  0.00  0.00    +0.153 C 
ENDROOT
BRANCH   1   2
ATOM      2  C   UNL     1      33.873 -23.541 -14.595  0.00  0.00    +0.006 C 
ATOM      3  C   UNL     1      34.981 -23.171 -15.338  0.00  0.00    -0.000 C 
ATOM      4  C   UNL     1      32.623 -23.669 -15.177  0.00  0.00    -0.000 C 
ATOM      5  C   UNL     1      34.834 -22.922 -16.703  0.00  0.00    +0.024 C 
ATOM      6  C   UNL     1      32.476 -23.419 -16.541  0.00  0.00    +0.024 C 
ATOM      7  C   UNL     1      33.582 -23.046 -17.304  0.00  0.00    +0.143 C 
BRANCH   7  10
ATOM      8  O   UNL     1      34.002 -23.553 -19.514  0.00  0.00    -0.126 OA
ATOM      9  O   UNL     1      32.739 -21.815 -19.063  0.00  0.00    -0.126 OA
ATOM     10  N   UNL     1      33.434 -22.793 -18.693  0.00  0.00    +0.058 N 
ENDBRANCH   7  10
ENDBRANCH   1   2
BRANCH   1  11
ATOM     11  O   UNL     1      33.396 -25.066 -12.849  0.00  0.00    -0.378 OA
ATOM     12  H   UNL     1      33.893 -25.541 -12.165  0.00  0.00    +0.211 HD
ENDBRANCH   1  11
BRANCH   1  13
ATOM     13  CA  UNL     1      35.501 -23.873 -12.646  0.00  0.00    +0.132 C 
BRANCH  13  15
ATOM     14  O   UNL     1      38.269 -24.099 -13.360  0.00  0.00    -0.272 OA
ATOM     15  N   UNL     1      36.152 -25.032 -13.228  0.00  0.00    -0.299 N 
ATOM     16  C   UNL     1      37.499 -25.041 -13.538  0.00  0.00    +0.253 C 
ATOM     17  H   UNL     1      35.615 -25.838 -13.407  0.00  0.00    +0.150 HD
BRANCH  16  20
ATOM     18 CL   UNL     1      36.807 -26.797 -15.414  0.00  0.00    -0.087 Cl
ATOM     19 CL   UNL     1      39.581 -26.144 -14.773  0.00  0.00    -0.087 Cl
ATOM     20  C   UNL     1      37.945 -26.358 -14.130  0.00  0.00    +0.234 C 
ENDBRANCH  16  20
ENDBRANCH  13  15
BRANCH  13  21
ATOM     21  C   UNL     1      35.672 -23.906 -11.122  0.00  0.00    +0.159 C 
BRANCH  21  22
ATOM     22  O   UNL     1      35.230 -25.141 -10.573  0.00  0.00    -0.380 OA
ATOM     23  H   UNL     1      34.794 -25.664 -11.264  0.00  0.00    +0.211 HD
ENDBRANCH  21  22
ENDBRANCH  13  21
ENDBRANCH   1  13
TORSDOF 8
ENDMDL
MODEL 7
REMARK VINA RESULT:      -7.8      7.558     10.340
REMARK  Name = 5959
REMARK  8 active torsions:
REMARK  status: ('A' for Active; 'I' for Inactive)
REMARK    1  A    between atoms: C_1  and  C_2
REMARK    2  A    between atoms: C_1  and  O_11
REMARK    3  A    between atoms: C_1  and  CA_13
REMARK    4  A    between atoms: C_7  and  N_10
REMARK    5  A    between atoms: CA_13  and  N_15
REMARK    6  A    between atoms: CA_13  and  C_21
REMARK    7  A    between atoms: C_16  and  C_20
REMARK    8  A    between atoms: C_21  and  O_22
REMARK                            x       y       z     vdW  Elec       q    Type
REMARK                         _______ _______ _______ _____ _____    ______ ____
ROOT
ATOM      1  C   UNL     1      34.588 -24.514 -13.337  0.00  0.00    +0.153 C 
ENDROOT
BRANCH   1   2
ATOM      2  C   UNL     1      36.049 -24.813 -13.586  0.00  0.00    +0.006 C 
ATOM      3  C   UNL     1      37.009 -24.195 -12.804  0.00  0.00    -0.000 C 
ATOM      4  C   UNL     1      36.396 -25.700 -14.592  0.00  0.00    -0.000 C 
ATOM      5  C   UNL     1      38.358 -24.473 -13.034  0.00  0.00    +0.024 C 
ATOM      6  C   UNL     1      37.743 -25.976 -14.822  0.00  0.00    +0.024 C 
ATOM      7  C   UNL     1      38.724 -25.363 -14.043  0.00  0.00    +0.143 C 
BRANCH   7  10
ATOM      8  O   UNL     1      40.937 -24.724 -14.148  0.00  0.00    -0.126 OA
ATOM      9  O   UNL     1      40.429 -26.810 -14.605  0.00  0.00    -0.126 OA
ATOM     10  N   UNL     1      40.096 -25.645 -14.276  0.00  0.00    +0.058 N 
ENDBRANCH   7  10
ENDBRANCH   1   2
BRANCH   1  11
ATOM     11  O   UNL     1      34.530 -23.600 -12.237  0.00  0.00    -0.378 OA
ATOM     12  H   UNL     1      35.429 -23.330 -11.993  0.00  0.00    +0.211 HD
ENDBRANCH   1  11
BRANCH   1  13
ATOM     13  CA  UNL     1      33.860 -23.900 -14.551  0.00  0.00    +0.132 C 
BRANCH  13  15
ATOM     14  O   UNL     1      34.284 -23.749 -17.383  0.00  0.00    -0.272 OA
ATOM     15  N   UNL     1      34.751 -22.988 -15.244  0.00  0.00    -0.299 N 
ATOM     16  C   UNL     1      34.885 -22.995 -16.620  0.00  0.00    +0.253 C 
ATOM     17  H   UNL     1      35.276 -22.344 -14.716  0.00  0.00    +0.150 HD
BRANCH  16  20
ATOM     18 CL   UNL     1      37.477 -22.400 -16.517  0.00  0.00    -0.087 Cl
ATOM     19 CL   UNL     1      35.819 -21.941 -18.878  0.00  0.00    -0.087 Cl
ATOM     20  C   UNL     1      35.868 -21.955 -17.108  0.00  0.00    +0.234 C 
ENDBRANCH  16  20
ENDBRANCH  13  15
BRANCH  13  21
ATOM     21  C   UNL     1      32.558 -23.168 -14.199  0.00  0.00    +0.159 C 
BRANCH  21  22
ATOM     22  O   UNL     1      31.842 -23.839 -13.169  0.00  0.00    -0.380 OA
ATOM     23  H   UNL     1      31.824 -24.791 -13.356  0.00  0.00    +0.211 HD
ENDBRANCH  21  22
ENDBRANCH  13  21
ENDBRANCH   1  13
TORSDOF 8
ENDMDL
MODEL 8
REMARK VINA RESULT:      -7.8      9.132     10.843
REMARK  Name = 5959
REMARK  8 active torsions:
REMARK  status: ('A' for Active; 'I' for Inactive)
REMARK    1  A    between atoms: C_1  and  C_2
REMARK    2  A    between atoms: C_1  and  O_11
REMARK    3  A    between atoms: C_1  and  CA_13
REMARK    4  A    between atoms: C_7  and  N_10
REMARK    5  A    between atoms: CA_13  and  N_15
REMARK    6  A    between atoms: CA_13  and  C_21
REMARK    7  A    between atoms: C_16  and  C_20
REMARK    8  A    between atoms: C_21  and  O_22
REMARK                            x       y       z     vdW  Elec       q    Type
REMARK                         _______ _______ _______ _____ _____    ______ ____
ROOT
ATOM      1  C   UNL     1      34.885 -23.649 -15.436  0.00  0.00    +0.153 C 
ENDROOT
BRANCH   1   2
ATOM      2  C   UNL     1      36.287 -24.181 -15.247  0.00  0.00    +0.006 C 
ATOM      3  C   UNL     1      37.362 -23.320 -15.382  0.00  0.00    -0.000 C 
ATOM      4  C   UNL     1      36.468 -25.521 -14.943  0.00  0.00    -0.000 C 
ATOM      5  C   UNL     1      38.656 -23.811 -15.207  0.00  0.00    +0.024 C 
ATOM      6  C   UNL     1      37.762 -26.011 -14.769  0.00  0.00    +0.024 C 
ATOM      7  C   UNL     1      38.856 -25.156 -14.901  0.00  0.00    +0.143 C 
BRANCH   7  10
ATOM      8  O   UNL     1      40.347 -26.895 -14.633  0.00  0.00    -0.126 OA
ATOM      9  O   UNL     1      41.128 -24.843 -14.656  0.00  0.00    -0.126 OA
ATOM     10  N   UNL     1      40.173 -25.655 -14.722  0.00  0.00    +0.058 N 
ENDBRANCH   7  10
ENDBRANCH   1   2
BRANCH   1  11
ATOM     11  O   UNL     1      34.459 -24.045 -16.743  0.00  0.00    -0.378 OA
ATOM     12  H   UNL     1      33.650 -24.575 -16.673  0.00  0.00    +0.211 HD
ENDBRANCH   1  11
BRANCH   1  13
ATOM     13  CA  UNL     1      33.874 -24.165 -14.390  0.00  0.00    +0.132 C 
BRANCH  13  15
ATOM     14  O   UNL     1      31.384 -25.530 -13.991  0.00  0.00    -0.272 OA
ATOM     15  N   UNL     1      32.550 -23.657 -14.699  0.00  0.00    -0.299 N 
ATOM     16  C   UNL     1      31.406 -24.397 -14.468  0.00  0.00    +0.253 C 
ATOM     17  H   UNL     1      32.466 -22.756 -15.086  0.00  0.00    +0.150 HD
BRANCH  16  20
ATOM     18 CL   UNL     1      30.470 -22.818 -16.396  0.00  0.00    -0.087 Cl
ATOM     19 CL   UNL     1      28.849 -24.844 -15.053  0.00  0.00    -0.087 Cl
ATOM     20  C   UNL     1      30.151 -23.657 -14.869  0.00  0.00    +0.234 C 
ENDBRANCH  16  20
ENDBRANCH  13  15
BRANCH  13  21
ATOM     21  C   UNL     1      34.230 -23.806 -12.941  0.00  0.00    +0.159 C 
BRANCH  21  22
ATOM     22  O   UNL     1      34.450 -24.968 -12.153  0.00  0.00    -0.380 OA
ATOM     23  H   UNL     1      34.143 -24.807 -11.247  0.00  0.00    +0.211 HD
ENDBRANCH  21  22
ENDBRANCH  13  21
ENDBRANCH   1  13
TORSDOF 8
ENDMDL
MODEL 9
REMARK VINA RESULT:      -7.8      2.741      3.865
REMARK  Name = 5959
REMARK  8 active torsions:
REMARK  status: ('A' for Active; 'I' for Inactive)
REMARK    1  A    between atoms: C_1  and  C_2
REMARK    2  A    between atoms: C_1  and  O_11
REMARK    3  A    between atoms: C_1  and  CA_13
REMARK    4  A    between atoms: C_7  and  N_10
REMARK    5  A    between atoms: CA_13  and  N_15
REMARK    6  A    between atoms: CA_13  and  C_21
REMARK    7  A    between atoms: C_16  and  C_20
REMARK    8  A    between atoms: C_21  and  O_22
REMARK                            x       y       z     vdW  Elec       q    Type
REMARK                         _______ _______ _______ _____ _____    ______ ____
ROOT
ATOM      1  C   UNL     1      34.595 -16.695 -25.123  0.00  0.00    +0.153 C 
ENDROOT
BRANCH   1   2
ATOM      2  C   UNL     1      34.871 -17.536 -23.897  0.00  0.00    +0.006 C 
ATOM      3  C   UNL     1      35.621 -17.000 -22.864  0.00  0.00    -0.000 C 
ATOM      4  C   UNL     1      34.369 -18.825 -23.833  0.00  0.00    -0.000 C 
ATOM      5  C   UNL     1      35.875 -17.776 -21.733  0.00  0.00    +0.024 C 
ATOM      6  C   UNL     1      34.624 -19.601 -22.703  0.00  0.00    +0.024 C 
ATOM      7  C   UNL     1      35.377 -19.076 -21.652  0.00  0.00    +0.143 C 
BRANCH   7  10
ATOM      8  O   UNL     1      36.703 -19.685 -19.867  0.00  0.00    -0.126 OA
ATOM      9  O   UNL     1      34.788 -20.721 -20.148  0.00  0.00    -0.126 OA
ATOM     10  N   UNL     1      35.635 -19.865 -20.501  0.00  0.00    +0.058 N 
ENDBRANCH   7  10
ENDBRANCH   1   2
BRANCH   1  11
ATOM     11  O   UNL     1      33.653 -17.417 -25.923  0.00  0.00    -0.378 OA
ATOM     12  H   UNL     1      33.384 -16.871 -26.678  0.00  0.00    +0.211 HD
ENDBRANCH   1  11
BRANCH   1  13
ATOM     13  CA  UNL     1      34.030 -15.294 -24.806  0.00  0.00    +0.132 C 
BRANCH  13  15
ATOM     14  O   UNL     1      33.662 -13.052 -23.056  0.00  0.00    -0.272 OA
ATOM     15  N   UNL     1      33.391 -15.310 -23.503  0.00  0.00    -0.299 N 
ATOM     16  C   UNL     1      33.263 -14.169 -22.733  0.00  0.00    +0.253 C 
ATOM     17  H   UNL     1      33.038 -16.162 -23.157  0.00  0.00    +0.150 HD
BRANCH  16  20
ATOM     18 CL   UNL     1      33.697 -15.281 -20.354  0.00  0.00    -0.087 Cl
ATOM     19 CL   UNL     1      32.078 -12.879 -20.730  0.00  0.00    -0.087 Cl
ATOM     20  C   UNL     1      32.563 -14.436 -21.420  0.00  0.00    +0.234 C 
ENDBRANCH  16  20
ENDBRANCH  13  15
BRANCH  13  21
ATOM     21  C   UNL     1      33.039 -14.765 -25.851  0.00  0.00    +0.159 C 
BRANCH  21  22
ATOM     22  O   UNL     1      33.612 -14.742 -27.152  0.00  0.00    -0.380 OA
ATOM     23  H   UNL     1      33.005 -14.300 -27.765  0.00  0.00    +0.211 HD
ENDBRANCH  21  22
ENDBRANCH  13  21
ENDBRANCH   1  13
TORSDOF 8
ENDMDL
