MODEL 1
REMARK VINA RESULT:      -9.7      0.000      0.000
REMARK  Name = 17754203
REMARK  4 active torsions:
REMARK  status: ('A' for Active; 'I' for Inactive)
REMARK    1  A    between atoms: C_3  and  C_23
REMARK    2  A    between atoms: C_9  and  N_15
REMARK    3  A    between atoms: C_10  and  N_19
REMARK    4  A    between atoms: C_23  and  N_24
REMARK                            x       y       z     vdW  Elec       q    Type
REMARK                         _______ _______ _______ _____ _____    ______ ____
ROOT
ATOM      1  N   UNL     1      33.434 -23.323 -18.534  0.00  0.00    +0.363 N 
ATOM      2  N   UNL     1      35.149 -22.765 -16.907  0.00  0.00    +0.351 N 
ATOM      3  C   UNL     1      35.242 -19.822 -20.342  0.00  0.00    -0.021 C 
ATOM      4  C   UNL     1      35.499 -22.139 -19.260  0.00  0.00    -0.059 C 
ATOM      5  C   UNL     1      36.048 -21.126 -20.285  0.00  0.00    -0.008 C 
ATOM      6  C   UNL     1      33.993 -22.386 -19.522  0.00  0.00    -0.071 C 
ATOM      7  C   UNL     1      33.764 -20.115 -20.621  0.00  0.00    -0.004 C 
ATOM      8  C   UNL     1      33.177 -21.085 -19.597  0.00  0.00    -0.022 C 
ATOM      9  C   UNL     1      35.740 -21.745 -17.781  0.00  0.00    -0.142 C 
ATOM     10  C   UNL     1      33.714 -22.918 -17.154  0.00  0.00    -0.214 C 
ATOM     11  H   UNL     1      33.839 -24.245 -18.693  0.00  0.00    -0.090 HD
ATOM     12  H   UNL     1      32.421 -23.330 -18.654  0.00  0.00    -0.090 HD
ATOM     13  H   UNL     1      35.291 -22.491 -15.935  0.00  0.00    -0.093 HD
ATOM     14  H   UNL     1      35.602 -23.657 -17.104  0.00  0.00    -0.093 HD
ENDROOT
BRANCH   9  15
ATOM     15  N   UNL     1      37.168 -21.641 -17.490  0.00  0.00    +0.370 N 
ATOM     16  H   UNL     1      37.703 -21.854 -18.332  0.00  0.00    -0.092 HD
ATOM     17  H   UNL     1      37.414 -22.303 -16.755  0.00  0.00    -0.092 HD
ATOM     18  H   UNL     1      37.384 -20.693 -17.181  0.00  0.00    -0.092 HD
ENDBRANCH   9  15
BRANCH  10  19
ATOM     19  N   UNL     1      33.192 -23.940 -16.249  0.00  0.00    +0.359 N 
ATOM     20  H   UNL     1      33.588 -24.847 -16.497  0.00  0.00    -0.095 HD
ATOM     21  H   UNL     1      32.176 -23.979 -16.331  0.00  0.00    -0.095 HD
ATOM     22  H   UNL     1      33.447 -23.708 -15.290  0.00  0.00    -0.095 HD
ENDBRANCH  10  19
BRANCH   3  23
ATOM     23  C   UNL     1      35.812 -18.886 -21.406  0.00  0.00    -0.077 C 
BRANCH  23  24
ATOM     24  N   UNL     1      34.842 -17.839 -21.694  0.00  0.00    +0.388 N 
ATOM     25  C   UNL     1      35.000 -17.245 -23.024  0.00  0.00    -0.058 C 
ATOM     26  C   UNL     1      34.084 -16.033 -22.885  0.00  0.00    -0.021 C 
ATOM     27  C   UNL     1      34.497 -15.468 -21.538  0.00  0.00    -0.025 C 
ATOM     28  C   UNL     1      34.947 -16.708 -20.752  0.00  0.00    -0.077 C 
ATOM     29  C   UNL     1      34.568 -18.078 -24.226  0.00  0.00    -0.021 C 
ATOM     30  C   UNL     1      34.214 -15.119 -24.095  0.00  0.00    -0.002 C 
ATOM     31  C   UNL     1      34.636 -17.217 -25.495  0.00  0.00    -0.002 C 
ATOM     32  C   UNL     1      33.857 -15.900 -25.365  0.00  0.00    -0.000 C 
ATOM     33  H   UNL     1      33.945 -18.319 -21.619  0.00  0.00    -0.080 HD
ENDBRANCH  23  24
ENDBRANCH   3  23
TORSDOF 4
ENDMDL
MODEL 2
REMARK VINA RESULT:      -9.5      5.403      9.753
REMARK  Name = 17754203
REMARK  4 active torsions:
REMARK  status: ('A' for Active; 'I' for Inactive)
REMARK    1  A    between atoms: C_3  and  C_23
REMARK    2  A    between atoms: C_9  and  N_15
REMARK    3  A    between atoms: C_10  and  N_19
REMARK    4  A    between atoms: C_23  and  N_24
REMARK                            x       y       z     vdW  Elec       q    Type
REMARK                         _______ _______ _______ _____ _____    ______ ____
ROOT
ATOM      1  N   UNL     1      31.846  -8.308 -22.277  0.00  0.00    +0.363 N 
ATOM      2  N   UNL     1      31.926  -9.227 -20.030  0.00  0.00    +0.351 N 
ATOM      3  C   UNL     1      33.049 -12.399 -23.053  0.00  0.00    -0.021 C 
ATOM      4  C   UNL     1      31.454 -10.738 -21.913  0.00  0.00    -0.059 C 
ATOM      5  C   UNL     1      31.623 -12.128 -22.558  0.00  0.00    -0.008 C 
ATOM      6  C   UNL     1      31.962  -9.644 -22.883  0.00  0.00    -0.071 C 
ATOM      7  C   UNL     1      33.501 -11.303 -24.023  0.00  0.00    -0.004 C 
ATOM      8  C   UNL     1      33.385  -9.914 -23.399  0.00  0.00    -0.022 C 
ATOM      9  C   UNL     1      32.127 -10.593 -20.525  0.00  0.00    -0.142 C 
ATOM     10  C   UNL     1      32.475  -8.234 -20.955  0.00  0.00    -0.214 C 
ATOM     11  H   UNL     1      30.857  -8.076 -22.183  0.00  0.00    -0.090 HD
ATOM     12  H   UNL     1      32.331  -7.649 -22.887  0.00  0.00    -0.090 HD
ATOM     13  H   UNL     1      32.388  -9.129 -19.127  0.00  0.00    -0.093 HD
ATOM     14  H   UNL     1      30.923  -9.062 -19.945  0.00  0.00    -0.093 HD
ENDROOT
BRANCH   9  15
ATOM     15  N   UNL     1      31.559 -11.534 -19.563  0.00  0.00    +0.370 N 
ATOM     16  H   UNL     1      31.128 -12.312 -20.063  0.00  0.00    -0.092 HD
ATOM     17  H   UNL     1      30.853 -11.060 -18.999  0.00  0.00    -0.092 HD
ATOM     18  H   UNL     1      32.298 -11.888 -18.956  0.00  0.00    -0.092 HD
ENDBRANCH   9  15
BRANCH  10  19
ATOM     19  N   UNL     1      32.245  -6.901 -20.400  0.00  0.00    +0.359 N 
ATOM     20  H   UNL     1      33.128  -6.516 -20.068  0.00  0.00    -0.095 HD
ATOM     21  H   UNL     1      31.588  -6.966 -19.622  0.00  0.00    -0.095 HD
ATOM     22  H   UNL     1      31.858  -6.294 -21.122  0.00  0.00    -0.095 HD
ENDBRANCH  10  19
BRANCH   3  23
ATOM     23  C   UNL     1      33.134 -13.772 -23.720  0.00  0.00    -0.077 C 
BRANCH  23  24
ATOM     24  N   UNL     1      34.172 -14.559 -23.069  0.00  0.00    +0.388 N 
ATOM     25  C   UNL     1      34.096 -15.990 -23.371  0.00  0.00    -0.058 C 
ATOM     26  C   UNL     1      35.074 -16.534 -22.334  0.00  0.00    -0.021 C 
ATOM     27  C   UNL     1      34.644 -15.806 -21.073  0.00  0.00    -0.025 C 
ATOM     28  C   UNL     1      34.096 -14.471 -21.598  0.00  0.00    -0.077 C 
ATOM     29  C   UNL     1      34.524 -16.442 -24.764  0.00  0.00    -0.021 C 
ATOM     30  C   UNL     1      35.041 -18.055 -22.308  0.00  0.00    -0.002 C 
ATOM     31  C   UNL     1      34.552 -17.975 -24.817  0.00  0.00    -0.002 C 
ATOM     32  C   UNL     1      35.399 -18.596 -23.697  0.00  0.00    -0.000 C 
ATOM     33  H   UNL     1      35.037 -14.159 -23.433  0.00  0.00    -0.080 HD
ENDBRANCH  23  24
ENDBRANCH   3  23
TORSDOF 4
ENDMDL
MODEL 3
REMARK VINA RESULT:      -9.2      4.089      7.525
REMARK  Name = 17754203
REMARK  4 active torsions:
REMARK  status: ('A' for Active; 'I' for Inactive)
REMARK    1  A    between atoms: C_3  and  C_23
REMARK    2  A    between atoms: C_9  and  N_15
REMARK    3  A    between atoms: C_10  and  N_19
REMARK    4  A    between atoms: C_23  and  N_24
REMARK                            x       y       z     vdW  Elec       q    Type
REMARK                         _______ _______ _______ _____ _____    ______ ____
ROOT
ATOM      1  N   UNL     1      35.552 -17.449 -23.208  0.00  0.00    +0.363 N 
ATOM      2  N   UNL     1      34.220 -17.267 -21.185  0.00  0.00    +0.351 N 
ATOM      3  C   UNL     1      33.107 -13.979 -24.086  0.00  0.00    -0.021 C 
ATOM      4  C   UNL     1      34.682 -15.232 -22.488  0.00  0.00    -0.059 C 
ATOM      5  C   UNL     1      34.195 -13.866 -23.010  0.00  0.00    -0.008 C 
ATOM      6  C   UNL     1      35.116 -16.124 -23.676  0.00  0.00    -0.071 C 
ATOM      7  C   UNL     1      33.588 -14.854 -25.249  0.00  0.00    -0.004 C 
ATOM      8  C   UNL     1      34.040 -16.232 -24.769  0.00  0.00    -0.022 C 
ATOM      9  C   UNL     1      33.658 -15.975 -21.593  0.00  0.00    -0.142 C 
ATOM     10  C   UNL     1      34.559 -18.094 -22.344  0.00  0.00    -0.214 C 
ATOM     11  H   UNL     1      36.421 -17.341 -22.685  0.00  0.00    -0.090 HD
ATOM     12  H   UNL     1      35.678 -18.041 -24.029  0.00  0.00    -0.090 HD
ATOM     13  H   UNL     1      33.535 -17.761 -20.614  0.00  0.00    -0.093 HD
ATOM     14  H   UNL     1      35.075 -17.092 -20.658  0.00  0.00    -0.093 HD
ENDROOT
BRANCH   9  15
ATOM     15  N   UNL     1      33.342 -15.197 -20.397  0.00  0.00    +0.370 N 
ATOM     16  H   UNL     1      33.979 -14.402 -20.330  0.00  0.00    -0.092 HD
ATOM     17  H   UNL     1      33.446 -15.785 -19.570  0.00  0.00    -0.092 HD
ATOM     18  H   UNL     1      32.382 -14.858 -20.455  0.00  0.00    -0.092 HD
ENDBRANCH   9  15
BRANCH  10  19
ATOM     19  N   UNL     1      35.106 -19.363 -21.867  0.00  0.00    +0.359 N 
ATOM     20  H   UNL     1      35.769 -19.726 -22.552  0.00  0.00    -0.095 HD
ATOM     21  H   UNL     1      34.348 -20.033 -21.739  0.00  0.00    -0.095 HD
ATOM     22  H   UNL     1      35.583 -19.216 -20.978  0.00  0.00    -0.095 HD
ENDBRANCH  10  19
BRANCH   3  23
ATOM     23  C   UNL     1      32.704 -12.594 -24.590  0.00  0.00    -0.077 C 
BRANCH  23  24
ATOM     24  N   UNL     1      33.801 -11.663 -24.363  0.00  0.00    +0.388 N 
ATOM     25  C   UNL     1      33.357 -10.310 -24.021  0.00  0.00    -0.058 C 
ATOM     26  C   UNL     1      34.675  -9.554 -24.157  0.00  0.00    -0.021 C 
ATOM     27  C   UNL     1      35.209 -10.072 -25.480  0.00  0.00    -0.025 C 
ATOM     28  C   UNL     1      34.649 -11.500 -25.559  0.00  0.00    -0.077 C 
ATOM     29  C   UNL     1      32.781 -10.086 -22.626  0.00  0.00    -0.021 C 
ATOM     30  C   UNL     1      34.452  -8.054 -24.032  0.00  0.00    -0.002 C 
ATOM     31  C   UNL     1      32.555  -8.585 -22.402  0.00  0.00    -0.002 C 
ATOM     32  C   UNL     1      33.811  -7.745 -22.675  0.00  0.00    -0.000 C 
ATOM     33  H   UNL     1      34.311 -12.082 -23.585  0.00  0.00    -0.080 HD
ENDBRANCH  23  24
ENDBRANCH   3  23
TORSDOF 4
ENDMDL
MODEL 4
REMARK VINA RESULT:      -9.1      3.546      6.773
REMARK  Name = 17754203
REMARK  4 active torsions:
REMARK  status: ('A' for Active; 'I' for Inactive)
REMARK    1  A    between atoms: C_3  and  C_23
REMARK    2  A    between atoms: C_9  and  N_15
REMARK    3  A    between atoms: C_10  and  N_19
REMARK    4  A    between atoms: C_23  and  N_24
REMARK                            x       y       z     vdW  Elec       q    Type
REMARK                         _______ _______ _______ _____ _____    ______ ____
ROOT
ATOM      1  N   UNL     1      35.804 -18.227 -23.020  0.00  0.00    +0.363 N 
ATOM      2  N   UNL     1      34.483 -17.754 -21.037  0.00  0.00    +0.351 N 
ATOM      3  C   UNL     1      33.409 -14.870 -24.353  0.00  0.00    -0.021 C 
ATOM      4  C   UNL     1      34.971 -15.921 -22.603  0.00  0.00    -0.059 C 
ATOM      5  C   UNL     1      34.503 -14.629 -23.304  0.00  0.00    -0.008 C 
ATOM      6  C   UNL     1      35.387 -16.971 -23.661  0.00  0.00    -0.071 C 
ATOM      7  C   UNL     1      33.873 -15.900 -25.388  0.00  0.00    -0.004 C 
ATOM      8  C   UNL     1      34.305 -17.208 -24.728  0.00  0.00    -0.022 C 
ATOM      9  C   UNL     1      33.939 -16.520 -21.614  0.00  0.00    -0.142 C 
ATOM     10  C   UNL     1      34.805 -18.735 -22.074  0.00  0.00    -0.214 C 
ATOM     11  H   UNL     1      36.677 -18.064 -22.517  0.00  0.00    -0.090 HD
ATOM     12  H   UNL     1      35.918 -18.927 -23.753  0.00  0.00    -0.090 HD
ATOM     13  H   UNL     1      33.793 -18.156 -20.404  0.00  0.00    -0.093 HD
ATOM     14  H   UNL     1      35.343 -17.523 -20.540  0.00  0.00    -0.093 HD
ENDROOT
BRANCH   9  15
ATOM     15  N   UNL     1      33.640 -15.583 -20.534  0.00  0.00    +0.370 N 
ATOM     16  H   UNL     1      33.017 -14.852 -20.879  0.00  0.00    -0.092 HD
ATOM     17  H   UNL     1      34.506 -15.161 -20.199  0.00  0.00    -0.092 HD
ATOM     18  H   UNL     1      33.187 -16.081 -19.767  0.00  0.00    -0.092 HD
ENDBRANCH   9  15
BRANCH  10  19
ATOM     19  N   UNL     1      35.335 -19.937 -21.432  0.00  0.00    +0.359 N 
ATOM     20  H   UNL     1      34.583 -20.613 -21.306  0.00  0.00    -0.095 HD
ATOM     21  H   UNL     1      35.726 -19.691 -20.523  0.00  0.00    -0.095 HD
ATOM     22  H   UNL     1      36.064 -20.342 -22.018  0.00  0.00    -0.095 HD
ENDBRANCH  10  19
BRANCH   3  23
ATOM     23  C   UNL     1      33.026 -13.559 -25.038  0.00  0.00    -0.077 C 
BRANCH  23  24
ATOM     24  N   UNL     1      33.568 -12.442 -24.276  0.00  0.00    +0.388 N 
ATOM     25  C   UNL     1      32.549 -11.680 -23.552  0.00  0.00    -0.058 C 
ATOM     26  C   UNL     1      33.368 -10.460 -23.142  0.00  0.00    -0.021 C 
ATOM     27  C   UNL     1      34.083 -10.103 -24.433  0.00  0.00    -0.025 C 
ATOM     28  C   UNL     1      34.246 -11.456 -25.140  0.00  0.00    -0.077 C 
ATOM     29  C   UNL     1      31.933 -12.322 -22.313  0.00  0.00    -0.021 C 
ATOM     30  C   UNL     1      32.477  -9.397 -22.519  0.00  0.00    -0.002 C 
ATOM     31  C   UNL     1      31.038 -11.300 -21.599  0.00  0.00    -0.002 C 
ATOM     32  C   UNL     1      31.764  -9.982 -21.294  0.00  0.00    -0.000 C 
ATOM     33  H   UNL     1      34.213 -12.890 -23.625  0.00  0.00    -0.080 HD
ENDBRANCH  23  24
ENDBRANCH   3  23
TORSDOF 4
ENDMDL
MODEL 5
REMARK VINA RESULT:      -9.0      2.639      8.047
REMARK  Name = 17754203
REMARK  4 active torsions:
REMARK  status: ('A' for Active; 'I' for Inactive)
REMARK    1  A    between atoms: C_3  and  C_23
REMARK    2  A    between atoms: C_9  and  N_15
REMARK    3  A    between atoms: C_10  and  N_19
REMARK    4  A    between atoms: C_23  and  N_24
REMARK                            x       y       z     vdW  Elec       q    Type
REMARK                         _______ _______ _______ _____ _____    ______ ____
ROOT
ATOM      1  N   UNL     1      34.245 -13.132 -22.523  0.00  0.00    +0.363 N 
ATOM      2  N   UNL     1      33.064 -13.557 -24.603  0.00  0.00    +0.351 N 
ATOM      3  C   UNL     1      34.128 -17.464 -22.586  0.00  0.00    -0.021 C 
ATOM      4  C   UNL     1      34.649 -15.245 -23.773  0.00  0.00    -0.059 C 
ATOM      5  C   UNL     1      35.017 -16.732 -23.600  0.00  0.00    -0.008 C 
ATOM      6  C   UNL     1      34.629 -14.546 -22.392  0.00  0.00    -0.071 C 
ATOM      7  C   UNL     1      34.155 -16.748 -21.231  0.00  0.00    -0.004 C 
ATOM      8  C   UNL     1      33.754 -15.279 -21.362  0.00  0.00    -0.022 C 
ATOM      9  C   UNL     1      33.319 -15.000 -24.529  0.00  0.00    -0.142 C 
ATOM     10  C   UNL     1      32.996 -12.955 -23.271  0.00  0.00    -0.214 C 
ATOM     11  H   UNL     1      34.990 -12.634 -23.010  0.00  0.00    -0.090 HD
ATOM     12  H   UNL     1      34.097 -12.762 -21.584  0.00  0.00    -0.090 HD
ATOM     13  H   UNL     1      32.178 -13.401 -25.082  0.00  0.00    -0.093 HD
ATOM     14  H   UNL     1      33.834 -13.121 -25.110  0.00  0.00    -0.093 HD
ENDROOT
BRANCH   9  15
ATOM     15  N   UNL     1      33.378 -15.541 -25.885  0.00  0.00    +0.370 N 
ATOM     16  H   UNL     1      32.471 -15.425 -26.337  0.00  0.00    -0.092 HD
ATOM     17  H   UNL     1      33.614 -16.532 -25.847  0.00  0.00    -0.092 HD
ATOM     18  H   UNL     1      34.090 -15.042 -26.420  0.00  0.00    -0.092 HD
ENDBRANCH   9  15
BRANCH  10  19
ATOM     19  N   UNL     1      32.735 -11.525 -23.417  0.00  0.00    +0.359 N 
ATOM     20  H   UNL     1      33.441 -10.996 -22.906  0.00  0.00    -0.095 HD
ATOM     21  H   UNL     1      31.811 -11.308 -23.043  0.00  0.00    -0.095 HD
ATOM     22  H   UNL     1      32.769 -11.272 -24.405  0.00  0.00    -0.095 HD
ENDBRANCH  10  19
BRANCH   3  23
ATOM     23  C   UNL     1      34.576 -18.917 -22.431  0.00  0.00    -0.077 C 
BRANCH  23  24
ATOM     24  N   UNL     1      34.176 -19.406 -21.119  0.00  0.00    +0.388 N 
ATOM     25  C   UNL     1      35.039 -20.470 -20.604  0.00  0.00    -0.058 C 
ATOM     26  C   UNL     1      34.199 -20.949 -19.424  0.00  0.00    -0.021 C 
ATOM     27  C   UNL     1      32.815 -21.062 -20.039  0.00  0.00    -0.025 C 
ATOM     28  C   UNL     1      32.818 -19.982 -21.131  0.00  0.00    -0.077 C 
ATOM     29  C   UNL     1      36.430 -20.079 -20.115  0.00  0.00    -0.021 C 
ATOM     30  C   UNL     1      34.797 -22.206 -18.812  0.00  0.00    -0.002 C 
ATOM     31  C   UNL     1      37.097 -21.289 -19.448  0.00  0.00    -0.002 C 
ATOM     32  C   UNL     1      36.229 -21.917 -18.348  0.00  0.00    -0.000 C 
ATOM     33  H   UNL     1      34.236 -18.576 -20.528  0.00  0.00    -0.080 HD
ENDBRANCH  23  24
ENDBRANCH   3  23
TORSDOF 4
ENDMDL
MODEL 6
REMARK VINA RESULT:      -9.0      4.448      7.785
REMARK  Name = 17754203
REMARK  4 active torsions:
REMARK  status: ('A' for Active; 'I' for Inactive)
REMARK    1  A    between atoms: C_3  and  C_23
REMARK    2  A    between atoms: C_9  and  N_15
REMARK    3  A    between atoms: C_10  and  N_19
REMARK    4  A    between atoms: C_23  and  N_24
REMARK                            x       y       z     vdW  Elec       q    Type
REMARK                         _______ _______ _______ _____ _____    ______ ____
ROOT
ATOM      1  N   UNL     1      34.017 -16.980 -21.128  0.00  0.00    +0.363 N 
ATOM      2  N   UNL     1      35.519 -17.606 -22.931  0.00  0.00    +0.351 N 
ATOM      3  C   UNL     1      33.887 -13.446 -23.635  0.00  0.00    -0.021 C 
ATOM      4  C   UNL     1      33.716 -15.999 -23.395  0.00  0.00    -0.059 C 
ATOM      5  C   UNL     1      33.236 -14.739 -24.143  0.00  0.00    -0.008 C 
ATOM      6  C   UNL     1      33.533 -15.805 -21.870  0.00  0.00    -0.071 C 
ATOM      7  C   UNL     1      33.665 -13.288 -22.127  0.00  0.00    -0.004 C 
ATOM      8  C   UNL     1      34.167 -14.504 -21.351  0.00  0.00    -0.022 C 
ATOM      9  C   UNL     1      35.170 -16.421 -23.722  0.00  0.00    -0.142 C 
ATOM     10  C   UNL     1      35.386 -17.353 -21.496  0.00  0.00    -0.214 C 
ATOM     11  H   UNL     1      33.399 -17.768 -21.325  0.00  0.00    -0.090 HD
ATOM     12  H   UNL     1      34.018 -16.741 -20.137  0.00  0.00    -0.090 HD
ATOM     13  H   UNL     1      36.483 -17.868 -23.134  0.00  0.00    -0.093 HD
ATOM     14  H   UNL     1      34.877 -18.359 -23.182  0.00  0.00    -0.093 HD
ENDROOT
BRANCH   9  15
ATOM     15  N   UNL     1      35.320 -16.737 -25.141  0.00  0.00    +0.370 N 
ATOM     16  H   UNL     1      34.403 -16.734 -25.589  0.00  0.00    -0.092 HD
ATOM     17  H   UNL     1      35.745 -17.658 -25.242  0.00  0.00    -0.092 HD
ATOM     18  H   UNL     1      35.916 -16.037 -25.584  0.00  0.00    -0.092 HD
ENDBRANCH   9  15
BRANCH  10  19
ATOM     19  N   UNL     1      35.753 -18.568 -20.772  0.00  0.00    +0.359 N 
ATOM     20  H   UNL     1      35.660 -18.406 -19.769  0.00  0.00    -0.095 HD
ATOM     21  H   UNL     1      36.719 -18.814 -20.988  0.00  0.00    -0.095 HD
ATOM     22  H   UNL     1      35.137 -19.330 -21.052  0.00  0.00    -0.095 HD
ENDBRANCH  10  19
BRANCH   3  23
ATOM     23  C   UNL     1      33.335 -12.236 -24.387  0.00  0.00    -0.077 C 
BRANCH  23  24
ATOM     24  N   UNL     1      34.131 -11.062 -24.058  0.00  0.00    +0.388 N 
ATOM     25  C   UNL     1      33.328  -9.866 -23.794  0.00  0.00    -0.058 C 
ATOM     26  C   UNL     1      34.422  -8.803 -23.798  0.00  0.00    -0.021 C 
ATOM     27  C   UNL     1      35.213  -9.159 -25.045  0.00  0.00    -0.025 C 
ATOM     28  C   UNL     1      35.040 -10.681 -25.157  0.00  0.00    -0.077 C 
ATOM     29  C   UNL     1      32.562  -9.806 -22.476  0.00  0.00    -0.021 C 
ATOM     30  C   UNL     1      33.818  -7.408 -23.729  0.00  0.00    -0.002 C 
ATOM     31  C   UNL     1      31.944  -8.412 -22.307  0.00  0.00    -0.002 C 
ATOM     32  C   UNL     1      32.972  -7.281 -22.457  0.00  0.00    -0.000 C 
ATOM     33  H   UNL     1      34.640 -11.346 -23.221  0.00  0.00    -0.080 HD
ENDBRANCH  23  24
ENDBRANCH   3  23
TORSDOF 4
ENDMDL
MODEL 7
REMARK VINA RESULT:      -8.8      7.455     12.114
REMARK  Name = 17754203
REMARK  4 active torsions:
REMARK  status: ('A' for Active; 'I' for Inactive)
REMARK    1  A    between atoms: C_3  and  C_23
REMARK    2  A    between atoms: C_9  and  N_15
REMARK    3  A    between atoms: C_10  and  N_19
REMARK    4  A    between atoms: C_23  and  N_24
REMARK                            x       y       z     vdW  Elec       q    Type
REMARK                         _______ _______ _______ _____ _____    ______ ____
ROOT
ATOM      1  N   UNL     1      31.823  -6.778 -21.364  0.00  0.00    +0.363 N 
ATOM      2  N   UNL     1      31.938  -5.525 -23.440  0.00  0.00    +0.351 N 
ATOM      3  C   UNL     1      33.520  -9.717 -24.061  0.00  0.00    -0.021 C 
ATOM      4  C   UNL     1      33.546  -7.348 -23.066  0.00  0.00    -0.059 C 
ATOM      5  C   UNL     1      34.374  -8.512 -23.646  0.00  0.00    -0.008 C 
ATOM      6  C   UNL     1      32.652  -7.863 -21.913  0.00  0.00    -0.071 C 
ATOM      7  C   UNL     1      32.667 -10.204 -22.884  0.00  0.00    -0.004 C 
ATOM      8  C   UNL     1      31.803  -9.082 -22.311  0.00  0.00    -0.022 C 
ATOM      9  C   UNL     1      32.700  -6.582 -24.114  0.00  0.00    -0.142 C 
ATOM     10  C   UNL     1      31.066  -6.070 -22.400  0.00  0.00    -0.214 C 
ATOM     11  H   UNL     1      32.431  -6.111 -20.889  0.00  0.00    -0.090 HD
ATOM     12  H   UNL     1      31.150  -7.197 -20.722  0.00  0.00    -0.090 HD
ATOM     13  H   UNL     1      31.367  -5.037 -24.130  0.00  0.00    -0.093 HD
ATOM     14  H   UNL     1      32.600  -4.886 -22.999  0.00  0.00    -0.093 HD
ENDROOT
BRANCH   9  15
ATOM     15  N   UNL     1      33.550  -5.977 -25.136  0.00  0.00    +0.370 N 
ATOM     16  H   UNL     1      34.481  -5.813 -24.752  0.00  0.00    -0.092 HD
ATOM     17  H   UNL     1      33.145  -5.090 -25.435  0.00  0.00    -0.092 HD
ATOM     18  H   UNL     1      33.619  -6.605 -25.937  0.00  0.00    -0.092 HD
ENDBRANCH   9  15
BRANCH  10  19
ATOM     19  N   UNL     1      30.336  -4.967 -21.777  0.00  0.00    +0.359 N 
ATOM     20  H   UNL     1      30.408  -4.138 -22.365  0.00  0.00    -0.095 HD
ATOM     21  H   UNL     1      30.737  -4.770 -20.860  0.00  0.00    -0.095 HD
ATOM     22  H   UNL     1      29.356  -5.225 -21.671  0.00  0.00    -0.095 HD
ENDBRANCH  10  19
BRANCH   3  23
ATOM     23  C   UNL     1      34.405 -10.848 -24.583  0.00  0.00    -0.077 C 
BRANCH  23  24
ATOM     24  N   UNL     1      33.573 -11.998 -24.907  0.00  0.00    +0.388 N 
ATOM     25  C   UNL     1      34.125 -13.270 -24.435  0.00  0.00    -0.058 C 
ATOM     26  C   UNL     1      33.220 -14.247 -25.179  0.00  0.00    -0.021 C 
ATOM     27  C   UNL     1      33.217 -13.677 -26.586  0.00  0.00    -0.025 C 
ATOM     28  C   UNL     1      33.402 -12.169 -26.363  0.00  0.00    -0.077 C 
ATOM     29  C   UNL     1      34.065 -13.556 -22.938  0.00  0.00    -0.021 C 
ATOM     30  C   UNL     1      33.712 -15.676 -25.005  0.00  0.00    -0.002 C 
ATOM     31  C   UNL     1      34.515 -14.999 -22.674  0.00  0.00    -0.002 C 
ATOM     32  C   UNL     1      33.743 -16.027 -23.513  0.00  0.00    -0.000 C 
ATOM     33  H   UNL     1      32.691 -11.793 -24.438  0.00  0.00    -0.080 HD
ENDBRANCH  23  24
ENDBRANCH   3  23
TORSDOF 4
ENDMDL
MODEL 8
REMARK VINA RESULT:      -8.5      7.551      9.176
REMARK  Name = 17754203
REMARK  4 active torsions:
REMARK  status: ('A' for Active; 'I' for Inactive)
REMARK    1  A    between atoms: C_3  and  C_23
REMARK    2  A    between atoms: C_9  and  N_15
REMARK    3  A    between atoms: C_10  and  N_19
REMARK    4  A    between atoms: C_23  and  N_24
REMARK                            x       y       z     vdW  Elec       q    Type
REMARK                         _______ _______ _______ _____ _____    ______ ____
ROOT
ATOM      1  N   UNL     1      38.707 -25.205 -15.123  0.00  0.00    +0.363 N 
ATOM      2  N   UNL     1      38.870 -24.762 -12.741  0.00  0.00    +0.351 N 
ATOM      3  C   UNL     1      34.684 -23.876 -14.209  0.00  0.00    -0.021 C 
ATOM      4  C   UNL     1      37.224 -23.508 -14.070  0.00  0.00    -0.059 C 
ATOM      5  C   UNL     1      35.829 -22.856 -14.162  0.00  0.00    -0.008 C 
ATOM      6  C   UNL     1      37.397 -24.540 -15.210  0.00  0.00    -0.071 C 
ATOM      7  C   UNL     1      34.889 -24.864 -15.363  0.00  0.00    -0.004 C 
ATOM      8  C   UNL     1      36.247 -25.558 -15.277  0.00  0.00    -0.022 C 
ATOM      9  C   UNL     1      37.537 -24.152 -12.696  0.00  0.00    -0.142 C 
ATOM     10  C   UNL     1      38.964 -25.772 -13.796  0.00  0.00    -0.214 C 
ATOM     11  H   UNL     1      39.435 -24.521 -15.333  0.00  0.00    -0.090 HD
ATOM     12  H   UNL     1      38.709 -25.974 -15.793  0.00  0.00    -0.090 HD
ATOM     13  H   UNL     1      39.064 -25.203 -11.842  0.00  0.00    -0.093 HD
ATOM     14  H   UNL     1      39.551 -24.029 -12.940  0.00  0.00    -0.093 HD
ENDROOT
BRANCH   9  15
ATOM     15  N   UNL     1      37.507 -23.156 -11.628  0.00  0.00    +0.370 N 
ATOM     16  H   UNL     1      37.259 -23.608 -10.748  0.00  0.00    -0.092 HD
ATOM     17  H   UNL     1      36.815 -22.440 -11.849  0.00  0.00    -0.092 HD
ATOM     18  H   UNL     1      38.426 -22.724 -11.540  0.00  0.00    -0.092 HD
ENDBRANCH   9  15
BRANCH  10  19
ATOM     19  N   UNL     1      40.311 -26.340 -13.781  0.00  0.00    +0.359 N 
ATOM     20  H   UNL     1      40.260 -27.338 -13.981  0.00  0.00    -0.095 HD
ATOM     21  H   UNL     1      40.728 -26.198 -12.861  0.00  0.00    -0.095 HD
ATOM     22  H   UNL     1      40.882 -25.879 -14.488  0.00  0.00    -0.095 HD
ENDBRANCH  10  19
BRANCH   3  23
ATOM     23  C   UNL     1      33.338 -23.165 -14.346  0.00  0.00    -0.077 C 
BRANCH  23  24
ATOM     24  N   UNL     1      32.308 -24.145 -14.661  0.00  0.00    +0.388 N 
ATOM     25  C   UNL     1      31.044 -23.545 -15.095  0.00  0.00    -0.058 C 
ATOM     26  C   UNL     1      30.134 -24.768 -15.039  0.00  0.00    -0.021 C 
ATOM     27  C   UNL     1      30.486 -25.370 -13.690  0.00  0.00    -0.025 C 
ATOM     28  C   UNL     1      31.958 -24.979 -13.495  0.00  0.00    -0.077 C 
ATOM     29  C   UNL     1      30.994 -22.934 -16.492  0.00  0.00    -0.021 C 
ATOM     30  C   UNL     1      28.684 -24.372 -15.270  0.00  0.00    -0.002 C 
ATOM     31  C   UNL     1      29.551 -22.535 -16.824  0.00  0.00    -0.002 C 
ATOM     32  C   UNL     1      28.554 -23.687 -16.636  0.00  0.00    -0.000 C 
ATOM     33  H   UNL     1      32.723 -24.693 -15.414  0.00  0.00    -0.080 HD
ENDBRANCH  23  24
ENDBRANCH   3  23
TORSDOF 4
ENDMDL
MODEL 9
REMARK VINA RESULT:      -8.4      8.166     11.830
REMARK  Name = 17754203
REMARK  4 active torsions:
REMARK  status: ('A' for Active; 'I' for Inactive)
REMARK    1  A    between atoms: C_3  and  C_23
REMARK    2  A    between atoms: C_9  and  N_15
REMARK    3  A    between atoms: C_10  and  N_19
REMARK    4  A    between atoms: C_23  and  N_24
REMARK                            x       y       z     vdW  Elec       q    Type
REMARK                         _______ _______ _______ _____ _____    ______ ____
ROOT
ATOM      1  N   UNL     1      31.167 -12.370 -21.396  0.00  0.00    +0.363 N 
ATOM      2  N   UNL     1      32.902 -12.618 -23.078  0.00  0.00    +0.351 N 
ATOM      3  C   UNL     1      32.605  -8.298 -21.771  0.00  0.00    -0.021 C 
ATOM      4  C   UNL     1      31.749 -10.455 -22.875  0.00  0.00    -0.059 C 
ATOM      5  C   UNL     1      31.819  -8.916 -22.935  0.00  0.00    -0.008 C 
ATOM      6  C   UNL     1      31.210 -10.902 -21.495  0.00  0.00    -0.071 C 
ATOM      7  C   UNL     1      32.024  -8.753 -20.427  0.00  0.00    -0.004 C 
ATOM      8  C   UNL     1      31.979 -10.276 -20.319  0.00  0.00    -0.022 C 
ATOM      9  C   UNL     1      33.087 -11.168 -23.197  0.00  0.00    -0.142 C 
ATOM     10  C   UNL     1      32.448 -12.994 -21.738  0.00  0.00    -0.214 C 
ATOM     11  H   UNL     1      30.452 -12.719 -22.035  0.00  0.00    -0.090 HD
ATOM     12  H   UNL     1      30.956 -12.609 -20.428  0.00  0.00    -0.090 HD
ATOM     13  H   UNL     1      33.789 -13.083 -23.270  0.00  0.00    -0.093 HD
ATOM     14  H   UNL     1      32.188 -12.906 -23.748  0.00  0.00    -0.093 HD
ENDROOT
BRANCH   9  15
ATOM     15  N   UNL     1      33.536 -10.857 -24.552  0.00  0.00    +0.370 N 
ATOM     16  H   UNL     1      34.491 -11.193 -24.679  0.00  0.00    -0.092 HD
ATOM     17  H   UNL     1      33.509  -9.847 -24.696  0.00  0.00    -0.092 HD
ATOM     18  H   UNL     1      32.922 -11.313 -25.227  0.00  0.00    -0.092 HD
ENDBRANCH   9  15
BRANCH  10  19
ATOM     19  N   UNL     1      32.291 -14.447 -21.689  0.00  0.00    +0.359 N 
ATOM     20  H   UNL     1      31.300 -14.679 -21.625  0.00  0.00    -0.095 HD
ATOM     21  H   UNL     1      32.779 -14.813 -20.872  0.00  0.00    -0.095 HD
ATOM     22  H   UNL     1      32.684 -14.860 -22.534  0.00  0.00    -0.095 HD
ENDBRANCH  10  19
BRANCH   3  23
ATOM     23  C   UNL     1      32.596  -6.773 -21.868  0.00  0.00    -0.077 C 
BRANCH  23  24
ATOM     24  N   UNL     1      31.957  -6.375 -23.115  0.00  0.00    +0.388 N 
ATOM     25  C   UNL     1      32.875  -5.746 -24.067  0.00  0.00    -0.058 C 
ATOM     26  C   UNL     1      31.875  -5.191 -25.076  0.00  0.00    -0.021 C 
ATOM     27  C   UNL     1      30.841  -4.535 -24.178  0.00  0.00    -0.025 C 
ATOM     28  C   UNL     1      30.886  -5.383 -22.899  0.00  0.00    -0.077 C 
ATOM     29  C   UNL     1      33.878  -6.645 -24.782  0.00  0.00    -0.021 C 
ATOM     30  C   UNL     1      32.574  -4.307 -26.098  0.00  0.00    -0.002 C 
ATOM     31  C   UNL     1      34.610  -5.837 -25.862  0.00  0.00    -0.002 C 
ATOM     32  C   UNL     1      33.651  -5.121 -26.825  0.00  0.00    -0.000 C 
ATOM     33  H   UNL     1      31.598  -7.253 -23.489  0.00  0.00    -0.080 HD
ENDBRANCH  23  24
ENDBRANCH   3  23
TORSDOF 4
ENDMDL
