MODEL 1
REMARK VINA RESULT:     -11.6      0.000      0.000
REMARK  Name = 17753851
REMARK  6 active torsions:
REMARK  status: ('A' for Active; 'I' for Inactive)
REMARK    1  A    between atoms: C_2  and  C_9
REMARK    2  A    between atoms: C_3  and  C_22
REMARK    3  A    between atoms: C_9  and  C_10
REMARK    4  A    between atoms: C_15  and  C_18
REMARK    5  A    between atoms: C_22  and  C_23
REMARK    6  A    between atoms: C_28  and  C_31
REMARK                            x       y       z     vdW  Elec       q    Type
REMARK                         _______ _______ _______ _____ _____    ______ ____
ROOT
ATOM      1  O   UNL     1      37.097 -21.660 -20.623  0.00  0.00    -0.296 OA
ATOM      2  C   UNL     1      35.743 -21.381 -18.647  0.00  0.00    +0.062 C 
ATOM      3  C   UNL     1      35.265 -20.157 -20.917  0.00  0.00    +0.062 C 
ATOM      4  C   UNL     1      34.668 -22.469 -18.587  0.00  0.00    +0.008 C 
ATOM      5  C   UNL     1      33.813 -20.015 -20.453  0.00  0.00    +0.008 C 
ATOM      6  C   UNL     1      33.258 -21.970 -18.904  0.00  0.00    +0.000 C 
ATOM      7  C   UNL     1      33.082 -21.349 -20.289  0.00  0.00    +0.000 C 
ATOM      8  C   UNL     1      36.115 -21.123 -20.102  0.00  0.00    +0.150 C 
ENDROOT
BRANCH   2   9
ATOM      9  C   UNL     1      36.984 -21.811 -17.861  0.00  0.00    +0.034 C 
BRANCH   9  10
ATOM     10  C   UNL     1      36.612 -22.437 -16.546  0.00  0.00    -0.022 C 
ATOM     11  C   UNL     1      37.599 -22.999 -15.738  0.00  0.00    -0.004 C 
ATOM     12  C   UNL     1      35.279 -22.456 -16.135  0.00  0.00    -0.004 C 
ATOM     13  C   UNL     1      37.256 -23.581 -14.518  0.00  0.00    +0.002 C 
ATOM     14  C   UNL     1      34.934 -23.038 -14.915  0.00  0.00    +0.002 C 
ATOM     15  C   UNL     1      35.923 -23.600 -14.107  0.00  0.00    +0.031 C 
BRANCH  15  18
ATOM     16  N   UNL     1      36.185 -25.370 -12.384  0.00  0.00    -0.343 N 
ATOM     17  N   UNL     1      34.627 -23.654 -12.083  0.00  0.00    -0.285 NA
ATOM     18  C   UNL     1      35.563 -24.206 -12.834  0.00  0.00    +0.117 C 
ATOM     19  H   UNL     1      35.927 -25.763 -11.519  0.00  0.00    +0.144 HD
ATOM     20  H   UNL     1      36.883 -25.798 -12.931  0.00  0.00    +0.144 HD
ATOM     21  H   UNL     1      34.382 -24.063 -11.221  0.00  0.00    +0.188 HD
ENDBRANCH  15  18
ENDBRANCH   9  10
ENDBRANCH   2   9
BRANCH   3  22
ATOM     22  C   UNL     1      35.959 -18.797 -20.938  0.00  0.00    +0.034 C 
BRANCH  22  23
ATOM     23  C   UNL     1      35.372 -17.892 -21.986  0.00  0.00    -0.022 C 
ATOM     24  C   UNL     1      35.316 -18.312 -23.316  0.00  0.00    -0.004 C 
ATOM     25  C   UNL     1      34.887 -16.634 -21.630  0.00  0.00    -0.004 C 
ATOM     26  C   UNL     1      34.773 -17.472 -24.289  0.00  0.00    +0.002 C 
ATOM     27  C   UNL     1      34.344 -15.795 -22.603  0.00  0.00    +0.002 C 
ATOM     28  C   UNL     1      34.287 -16.214 -23.932  0.00  0.00    +0.031 C 
BRANCH  28  31
ATOM     29  N   UNL     1      33.099 -14.139 -24.606  0.00  0.00    -0.343 N 
ATOM     30  N   UNL     1      33.789 -15.680 -26.222  0.00  0.00    -0.285 NA
ATOM     31  C   UNL     1      33.721 -15.339 -24.947  0.00  0.00    +0.117 C 
ATOM     32  H   UNL     1      32.724 -13.562 -25.309  0.00  0.00    +0.144 HD
ATOM     33  H   UNL     1      33.036 -13.868 -23.661  0.00  0.00    +0.144 HD
ATOM     34  H   UNL     1      33.407 -15.089 -26.911  0.00  0.00    +0.188 HD
ENDBRANCH  28  31
ENDBRANCH  22  23
ENDBRANCH   3  22
TORSDOF 6
ENDMDL
MODEL 2
REMARK VINA RESULT:     -11.5      7.669     11.775
REMARK  Name = 17753851
REMARK  6 active torsions:
REMARK  status: ('A' for Active; 'I' for Inactive)
REMARK    1  A    between atoms: C_2  and  C_9
REMARK    2  A    between atoms: C_3  and  C_22
REMARK    3  A    between atoms: C_9  and  C_10
REMARK    4  A    between atoms: C_15  and  C_18
REMARK    5  A    between atoms: C_22  and  C_23
REMARK    6  A    between atoms: C_28  and  C_31
REMARK                            x       y       z     vdW  Elec       q    Type
REMARK                         _______ _______ _______ _____ _____    ______ ____
ROOT
ATOM      1  O   UNL     1      30.804  -9.658 -23.082  0.00  0.00    -0.296 OA
ATOM      2  C   UNL     1      32.065 -11.186 -21.708  0.00  0.00    +0.062 C 
ATOM      3  C   UNL     1      32.087  -8.584 -21.379  0.00  0.00    +0.062 C 
ATOM      4  C   UNL     1      31.200 -11.691 -20.551  0.00  0.00    +0.008 C 
ATOM      5  C   UNL     1      32.514  -8.841 -19.932  0.00  0.00    +0.008 C 
ATOM      6  C   UNL     1      31.567 -11.096 -19.192  0.00  0.00    +0.000 C 
ATOM      7  C   UNL     1      31.463  -9.575 -19.097  0.00  0.00    +0.000 C 
ATOM      8  C   UNL     1      31.578  -9.806 -22.133  0.00  0.00    +0.150 C 
ENDROOT
BRANCH   2   9
ATOM      9  C   UNL     1      31.991 -12.152 -22.893  0.00  0.00    +0.034 C 
BRANCH   9  10
ATOM     10  C   UNL     1      32.816 -13.384 -22.650  0.00  0.00    -0.022 C 
ATOM     11  C   UNL     1      32.625 -14.135 -21.491  0.00  0.00    -0.004 C 
ATOM     12  C   UNL     1      33.774 -13.777 -23.585  0.00  0.00    -0.004 C 
ATOM     13  C   UNL     1      33.390 -15.278 -21.265  0.00  0.00    +0.002 C 
ATOM     14  C   UNL     1      34.540 -14.921 -23.360  0.00  0.00    +0.002 C 
ATOM     15  C   UNL     1      34.348 -15.671 -22.200  0.00  0.00    +0.031 C 
BRANCH  15  18
ATOM     16  N   UNL     1      35.874 -17.464 -22.991  0.00  0.00    -0.343 N 
ATOM     17  N   UNL     1      35.187 -17.402 -20.758  0.00  0.00    -0.285 NA
ATOM     18  C   UNL     1      35.147 -16.864 -21.965  0.00  0.00    +0.117 C 
ATOM     19  H   UNL     1      36.408 -18.270 -22.810  0.00  0.00    +0.144 HD
ATOM     20  H   UNL     1      35.854 -17.080 -23.898  0.00  0.00    +0.144 HD
ATOM     21  H   UNL     1      35.727 -18.209 -20.597  0.00  0.00    +0.188 HD
ENDBRANCH  15  18
ENDBRANCH   9  10
ENDBRANCH   2   9
BRANCH   3  22
ATOM     22  C   UNL     1      33.231  -7.963 -22.175  0.00  0.00    +0.034 C 
BRANCH  22  23
ATOM     23  C   UNL     1      32.757  -6.814 -23.023  0.00  0.00    -0.022 C 
ATOM     24  C   UNL     1      33.248  -6.656 -24.320  0.00  0.00    -0.004 C 
ATOM     25  C   UNL     1      31.828  -5.907 -22.514  0.00  0.00    -0.004 C 
ATOM     26  C   UNL     1      32.809  -5.590 -25.106  0.00  0.00    +0.002 C 
ATOM     27  C   UNL     1      31.390  -4.842 -23.300  0.00  0.00    +0.002 C 
ATOM     28  C   UNL     1      31.880  -4.684 -24.596  0.00  0.00    +0.031 C 
BRANCH  28  31
ATOM     29  N   UNL     1      30.282  -2.846 -25.081  0.00  0.00    -0.343 N 
ATOM     30  N   UNL     1      32.092  -3.241 -26.505  0.00  0.00    -0.285 NA
ATOM     31  C   UNL     1      31.423  -3.573 -25.417  0.00  0.00    +0.117 C 
ATOM     32  H   UNL     1      29.991  -2.097 -25.651  0.00  0.00    +0.144 HD
ATOM     33  H   UNL     1      29.767  -3.079 -24.276  0.00  0.00    +0.144 HD
ATOM     34  H   UNL     1      31.785  -2.488 -27.063  0.00  0.00    +0.188 HD
ENDBRANCH  28  31
ENDBRANCH  22  23
ENDBRANCH   3  22
TORSDOF 6
ENDMDL
MODEL 3
REMARK VINA RESULT:     -11.5      7.711     12.008
REMARK  Name = 17753851
REMARK  6 active torsions:
REMARK  status: ('A' for Active; 'I' for Inactive)
REMARK    1  A    between atoms: C_2  and  C_9
REMARK    2  A    between atoms: C_3  and  C_22
REMARK    3  A    between atoms: C_9  and  C_10
REMARK    4  A    between atoms: C_15  and  C_18
REMARK    5  A    between atoms: C_22  and  C_23
REMARK    6  A    between atoms: C_28  and  C_31
REMARK                            x       y       z     vdW  Elec       q    Type
REMARK                         _______ _______ _______ _____ _____    ______ ____
ROOT
ATOM      1  O   UNL     1      30.831  -9.248 -23.279  0.00  0.00    -0.296 OA
ATOM      2  C   UNL     1      31.894 -10.661 -21.639  0.00  0.00    +0.062 C 
ATOM      3  C   UNL     1      32.477  -8.125 -21.963  0.00  0.00    +0.062 C 
ATOM      4  C   UNL     1      31.070 -10.683 -20.349  0.00  0.00    +0.008 C 
ATOM      5  C   UNL     1      32.992  -8.132 -20.521  0.00  0.00    +0.008 C 
ATOM      6  C   UNL     1      31.691  -9.889 -19.200  0.00  0.00    +0.000 C 
ATOM      7  C   UNL     1      31.908  -8.403 -19.477  0.00  0.00    +0.000 C 
ATOM      8  C   UNL     1      31.655  -9.342 -22.364  0.00  0.00    +0.150 C 
ENDROOT
BRANCH   2   9
ATOM      9  C   UNL     1      31.502 -11.831 -22.544  0.00  0.00    +0.034 C 
BRANCH   9  10
ATOM     10  C   UNL     1      32.416 -13.008 -22.350  0.00  0.00    -0.022 C 
ATOM     11  C   UNL     1      32.289 -13.809 -21.216  0.00  0.00    -0.004 C 
ATOM     12  C   UNL     1      33.392 -13.299 -23.303  0.00  0.00    -0.004 C 
ATOM     13  C   UNL     1      33.138 -14.901 -21.034  0.00  0.00    +0.002 C 
ATOM     14  C   UNL     1      34.241 -14.391 -23.122  0.00  0.00    +0.002 C 
ATOM     15  C   UNL     1      34.113 -15.191 -21.988  0.00  0.00    +0.031 C 
BRANCH  15  18
ATOM     16  N   UNL     1      35.660 -16.921 -22.873  0.00  0.00    -0.343 N 
ATOM     17  N   UNL     1      35.182 -16.828 -20.588  0.00  0.00    -0.285 NA
ATOM     18  C   UNL     1      34.998 -16.330 -21.798  0.00  0.00    +0.117 C 
ATOM     19  H   UNL     1      36.255 -17.690 -22.723  0.00  0.00    +0.144 HD
ATOM     20  H   UNL     1      35.534 -16.567 -23.784  0.00  0.00    +0.144 HD
ATOM     21  H   UNL     1      35.781 -17.598 -20.458  0.00  0.00    +0.188 HD
ENDBRANCH  15  18
ENDBRANCH   9  10
ENDBRANCH   2   9
BRANCH   3  22
ATOM     22  C   UNL     1      33.634  -7.972 -22.947  0.00  0.00    +0.034 C 
BRANCH  22  23
ATOM     23  C   UNL     1      33.351  -6.910 -23.974  0.00  0.00    -0.022 C 
ATOM     24  C   UNL     1      34.286  -6.641 -24.973  0.00  0.00    -0.004 C 
ATOM     25  C   UNL     1      32.155  -6.193 -23.926  0.00  0.00    -0.004 C 
ATOM     26  C   UNL     1      34.024  -5.655 -25.925  0.00  0.00    +0.002 C 
ATOM     27  C   UNL     1      31.894  -5.208 -24.878  0.00  0.00    +0.002 C 
ATOM     28  C   UNL     1      32.828  -4.939 -25.878  0.00  0.00    +0.031 C 
BRANCH  28  31
ATOM     29  N   UNL     1      32.904  -4.086 -28.209  0.00  0.00    -0.343 N 
ATOM     30  N   UNL     1      31.971  -2.784 -26.508  0.00  0.00    -0.285 NA
ATOM     31  C   UNL     1      32.556  -3.911 -26.871  0.00  0.00    +0.117 C 
ATOM     32  H   UNL     1      32.710  -3.378 -28.864  0.00  0.00    +0.144 HD
ATOM     33  H   UNL     1      33.344  -4.918 -28.499  0.00  0.00    +0.144 HD
ATOM     34  H   UNL     1      31.786  -2.087 -27.178  0.00  0.00    +0.188 HD
ENDBRANCH  28  31
ENDBRANCH  22  23
ENDBRANCH   3  22
TORSDOF 6
ENDMDL
MODEL 4
REMARK VINA RESULT:     -11.5      7.738     12.006
REMARK  Name = 17753851
REMARK  6 active torsions:
REMARK  status: ('A' for Active; 'I' for Inactive)
REMARK    1  A    between atoms: C_2  and  C_9
REMARK    2  A    between atoms: C_3  and  C_22
REMARK    3  A    between atoms: C_9  and  C_10
REMARK    4  A    between atoms: C_15  and  C_18
REMARK    5  A    between atoms: C_22  and  C_23
REMARK    6  A    between atoms: C_28  and  C_31
REMARK                            x       y       z     vdW  Elec       q    Type
REMARK                         _______ _______ _______ _____ _____    ______ ____
ROOT
ATOM      1  O   UNL     1      30.844  -9.227 -23.275  0.00  0.00    -0.296 OA
ATOM      2  C   UNL     1      31.924 -10.637 -21.643  0.00  0.00    +0.062 C 
ATOM      3  C   UNL     1      32.501  -8.100 -21.976  0.00  0.00    +0.062 C 
ATOM      4  C   UNL     1      31.112 -10.658 -20.345  0.00  0.00    +0.008 C 
ATOM      5  C   UNL     1      33.030  -8.105 -20.540  0.00  0.00    +0.008 C 
ATOM      6  C   UNL     1      31.743  -9.861 -19.203  0.00  0.00    +0.000 C 
ATOM      7  C   UNL     1      31.956  -8.375 -19.484  0.00  0.00    +0.000 C 
ATOM      8  C   UNL     1      31.676  -9.319 -22.368  0.00  0.00    +0.150 C 
ENDROOT
BRANCH   2   9
ATOM      9  C   UNL     1      31.524 -11.809 -22.543  0.00  0.00    +0.034 C 
BRANCH   9  10
ATOM     10  C   UNL     1      32.432 -12.990 -22.344  0.00  0.00    -0.022 C 
ATOM     11  C   UNL     1      33.328 -13.356 -23.347  0.00  0.00    -0.004 C 
ATOM     12  C   UNL     1      32.379 -13.719 -21.156  0.00  0.00    -0.004 C 
ATOM     13  C   UNL     1      34.171 -14.452 -23.165  0.00  0.00    +0.002 C 
ATOM     14  C   UNL     1      33.221 -14.816 -20.973  0.00  0.00    +0.002 C 
ATOM     15  C   UNL     1      34.117 -15.182 -21.977  0.00  0.00    +0.031 C 
BRANCH  15  18
ATOM     16  N   UNL     1      35.642 -16.931 -22.862  0.00  0.00    -0.343 N 
ATOM     17  N   UNL     1      35.191 -16.810 -20.572  0.00  0.00    -0.285 NA
ATOM     18  C   UNL     1      34.997 -16.325 -21.786  0.00  0.00    +0.117 C 
ATOM     19  H   UNL     1      36.234 -17.703 -22.710  0.00  0.00    +0.144 HD
ATOM     20  H   UNL     1      35.508 -16.586 -23.774  0.00  0.00    +0.144 HD
ATOM     21  H   UNL     1      35.785 -17.583 -20.440  0.00  0.00    +0.188 HD
ENDBRANCH  15  18
ENDBRANCH   9  10
ENDBRANCH   2   9
BRANCH   3  22
ATOM     22  C   UNL     1      33.648  -7.948 -22.972  0.00  0.00    +0.034 C 
BRANCH  22  23
ATOM     23  C   UNL     1      33.362  -6.875 -23.987  0.00  0.00    -0.022 C 
ATOM     24  C   UNL     1      34.271  -6.631 -25.017  0.00  0.00    -0.004 C 
ATOM     25  C   UNL     1      32.190  -6.124 -23.898  0.00  0.00    -0.004 C 
ATOM     26  C   UNL     1      34.006  -5.635 -25.957  0.00  0.00    +0.002 C 
ATOM     27  C   UNL     1      31.926  -5.130 -24.838  0.00  0.00    +0.002 C 
ATOM     28  C   UNL     1      32.834  -4.885 -25.868  0.00  0.00    +0.031 C 
BRANCH  28  31
ATOM     29  N   UNL     1      31.956  -2.645 -26.484  0.00  0.00    -0.343 N 
ATOM     30  N   UNL     1      32.880  -4.038 -28.117  0.00  0.00    -0.285 NA
ATOM     31  C   UNL     1      32.559  -3.847 -26.850  0.00  0.00    +0.117 C 
ATOM     32  H   UNL     1      31.780  -1.956 -27.164  0.00  0.00    +0.144 HD
ATOM     33  H   UNL     1      31.707  -2.484 -25.545  0.00  0.00    +0.144 HD
ATOM     34  H   UNL     1      32.695  -3.336 -28.783  0.00  0.00    +0.188 HD
ENDBRANCH  28  31
ENDBRANCH  22  23
ENDBRANCH   3  22
TORSDOF 6
ENDMDL
MODEL 5
REMARK VINA RESULT:     -11.4      0.643      1.562
REMARK  Name = 17753851
REMARK  6 active torsions:
REMARK  status: ('A' for Active; 'I' for Inactive)
REMARK    1  A    between atoms: C_2  and  C_9
REMARK    2  A    between atoms: C_3  and  C_22
REMARK    3  A    between atoms: C_9  and  C_10
REMARK    4  A    between atoms: C_15  and  C_18
REMARK    5  A    between atoms: C_22  and  C_23
REMARK    6  A    between atoms: C_28  and  C_31
REMARK                            x       y       z     vdW  Elec       q    Type
REMARK                         _______ _______ _______ _____ _____    ______ ____
ROOT
ATOM      1  O   UNL     1      36.860 -21.458 -20.845  0.00  0.00    -0.296 OA
ATOM      2  C   UNL     1      35.516 -21.295 -18.849  0.00  0.00    +0.062 C 
ATOM      3  C   UNL     1      35.133 -19.814 -20.979  0.00  0.00    +0.062 C 
ATOM      4  C   UNL     1      34.371 -22.310 -18.901  0.00  0.00    +0.008 C 
ATOM      5  C   UNL     1      33.691 -19.625 -20.502  0.00  0.00    +0.008 C 
ATOM      6  C   UNL     1      32.999 -21.689 -19.163  0.00  0.00    +0.000 C 
ATOM      7  C   UNL     1      32.872 -20.917 -20.475  0.00  0.00    +0.000 C 
ATOM      8  C   UNL     1      35.913 -20.913 -20.270  0.00  0.00    +0.150 C 
ENDROOT
BRANCH   2   9
ATOM      9  C   UNL     1      36.721 -21.886 -18.113  0.00  0.00    +0.034 C 
BRANCH   9  10
ATOM     10  C   UNL     1      36.326 -22.457 -16.781  0.00  0.00    -0.022 C 
ATOM     11  C   UNL     1      34.999 -22.811 -16.539  0.00  0.00    -0.004 C 
ATOM     12  C   UNL     1      37.287 -22.633 -15.785  0.00  0.00    -0.004 C 
ATOM     13  C   UNL     1      34.632 -23.340 -15.302  0.00  0.00    +0.002 C 
ATOM     14  C   UNL     1      36.921 -23.162 -14.547  0.00  0.00    +0.002 C 
ATOM     15  C   UNL     1      35.593 -23.515 -14.306  0.00  0.00    +0.031 C 
BRANCH  15  18
ATOM     16  N   UNL     1      35.913 -25.126 -12.443  0.00  0.00    -0.343 N 
ATOM     17  N   UNL     1      34.173 -23.567 -12.367  0.00  0.00    -0.285 NA
ATOM     18  C   UNL     1      35.210 -24.068 -13.016  0.00  0.00    +0.117 C 
ATOM     19  H   UNL     1      35.637 -25.484 -11.569  0.00  0.00    +0.144 HD
ATOM     20  H   UNL     1      36.687 -25.515 -12.913  0.00  0.00    +0.144 HD
ATOM     21  H   UNL     1      33.913 -23.939 -11.494  0.00  0.00    +0.188 HD
ENDBRANCH  15  18
ENDBRANCH   9  10
ENDBRANCH   2   9
BRANCH   3  22
ATOM     22  C   UNL     1      35.915 -18.508 -20.859  0.00  0.00    +0.034 C 
BRANCH  22  23
ATOM     23  C   UNL     1      35.318 -17.425 -21.715  0.00  0.00    -0.022 C 
ATOM     24  C   UNL     1      34.811 -16.268 -21.122  0.00  0.00    -0.004 C 
ATOM     25  C   UNL     1      35.270 -17.577 -23.101  0.00  0.00    -0.004 C 
ATOM     26  C   UNL     1      34.256 -15.264 -21.915  0.00  0.00    +0.002 C 
ATOM     27  C   UNL     1      34.716 -16.572 -23.894  0.00  0.00    +0.002 C 
ATOM     28  C   UNL     1      34.209 -15.416 -23.301  0.00  0.00    +0.031 C 
BRANCH  28  31
ATOM     29  N   UNL     1      33.163 -14.634 -25.413  0.00  0.00    -0.343 N 
ATOM     30  N   UNL     1      33.545 -13.135 -23.662  0.00  0.00    -0.285 NA
ATOM     31  C   UNL     1      33.630 -14.368 -24.128  0.00  0.00    +0.117 C 
ATOM     32  H   UNL     1      32.775 -13.909 -25.955  0.00  0.00    +0.144 HD
ATOM     33  H   UNL     1      33.220 -15.545 -25.780  0.00  0.00    +0.144 HD
ATOM     34  H   UNL     1      33.153 -12.423 -24.219  0.00  0.00    +0.188 HD
ENDBRANCH  28  31
ENDBRANCH  22  23
ENDBRANCH   3  22
TORSDOF 6
ENDMDL
MODEL 6
REMARK VINA RESULT:     -11.3      4.018      6.368
REMARK  Name = 17753851
REMARK  6 active torsions:
REMARK  status: ('A' for Active; 'I' for Inactive)
REMARK    1  A    between atoms: C_2  and  C_9
REMARK    2  A    between atoms: C_3  and  C_22
REMARK    3  A    between atoms: C_9  and  C_10
REMARK    4  A    between atoms: C_15  and  C_18
REMARK    5  A    between atoms: C_22  and  C_23
REMARK    6  A    between atoms: C_28  and  C_31
REMARK                            x       y       z     vdW  Elec       q    Type
REMARK                         _______ _______ _______ _____ _____    ______ ____
ROOT
ATOM      1  O   UNL     1      35.599 -15.148 -22.583  0.00  0.00    -0.296 OA
ATOM      2  C   UNL     1      34.605 -17.340 -22.725  0.00  0.00    +0.062 C 
ATOM      3  C   UNL     1      33.819 -15.296 -24.168  0.00  0.00    +0.062 C 
ATOM      4  C   UNL     1      35.382 -18.208 -23.718  0.00  0.00    +0.008 C 
ATOM      5  C   UNL     1      33.257 -16.309 -25.168  0.00  0.00    +0.008 C 
ATOM      6  C   UNL     1      34.657 -18.442 -25.043  0.00  0.00    +0.000 C 
ATOM      7  C   UNL     1      34.323 -17.179 -25.835  0.00  0.00    +0.000 C 
ATOM      8  C   UNL     1      34.755 -15.875 -23.115  0.00  0.00    +0.150 C 
ENDROOT
BRANCH   2   9
ATOM      9  C   UNL     1      35.127 -17.557 -21.303  0.00  0.00    +0.034 C 
BRANCH   9  10
ATOM     10  C   UNL     1      34.726 -18.903 -20.768  0.00  0.00    -0.022 C 
ATOM     11  C   UNL     1      35.703 -19.811 -20.364  0.00  0.00    -0.004 C 
ATOM     12  C   UNL     1      33.377 -19.243 -20.677  0.00  0.00    -0.004 C 
ATOM     13  C   UNL     1      35.333 -21.061 -19.869  0.00  0.00    +0.002 C 
ATOM     14  C   UNL     1      33.005 -20.493 -20.181  0.00  0.00    +0.002 C 
ATOM     15  C   UNL     1      33.983 -21.402 -19.777  0.00  0.00    +0.031 C 
BRANCH  15  18
ATOM     16  N   UNL     1      32.722 -22.827 -18.181  0.00  0.00    -0.343 N 
ATOM     17  N   UNL     1      34.080 -23.803 -19.813  0.00  0.00    -0.285 NA
ATOM     18  C   UNL     1      33.595 -22.705 -19.260  0.00  0.00    +0.117 C 
ATOM     19  H   UNL     1      32.472 -23.718 -17.848  0.00  0.00    +0.144 HD
ATOM     20  H   UNL     1      32.353 -22.020 -17.753  0.00  0.00    +0.144 HD
ATOM     21  H   UNL     1      33.818 -24.686 -19.465  0.00  0.00    +0.188 HD
ENDBRANCH  15  18
ENDBRANCH   9  10
ENDBRANCH   2   9
BRANCH   3  22
ATOM     22  C   UNL     1      32.688 -14.555 -23.458  0.00  0.00    +0.034 C 
BRANCH  22  23
ATOM     23  C   UNL     1      32.895 -13.066 -23.491  0.00  0.00    -0.022 C 
ATOM     24  C   UNL     1      33.797 -12.508 -24.398  0.00  0.00    -0.004 C 
ATOM     25  C   UNL     1      32.188 -12.243 -22.615  0.00  0.00    -0.004 C 
ATOM     26  C   UNL     1      33.991 -11.126 -24.427  0.00  0.00    +0.002 C 
ATOM     27  C   UNL     1      32.381 -10.863 -22.645  0.00  0.00    +0.002 C 
ATOM     28  C   UNL     1      33.282 -10.304 -23.551  0.00  0.00    +0.031 C 
BRANCH  28  31
ATOM     29  N   UNL     1      32.406  -7.981 -23.622  0.00  0.00    -0.343 N 
ATOM     30  N   UNL     1      34.709  -8.371 -23.579  0.00  0.00    -0.285 NA
ATOM     31  C   UNL     1      33.484  -8.864 -23.583  0.00  0.00    +0.117 C 
ATOM     32  H   UNL     1      32.566  -7.010 -23.642  0.00  0.00    +0.144 HD
ATOM     33  H   UNL     1      31.485  -8.328 -23.628  0.00  0.00    +0.144 HD
ATOM     34  H   UNL     1      34.849  -7.396 -23.600  0.00  0.00    +0.188 HD
ENDBRANCH  28  31
ENDBRANCH  22  23
ENDBRANCH   3  22
TORSDOF 6
ENDMDL
MODEL 7
REMARK VINA RESULT:     -11.3      4.316      6.961
REMARK  Name = 17753851
REMARK  6 active torsions:
REMARK  status: ('A' for Active; 'I' for Inactive)
REMARK    1  A    between atoms: C_2  and  C_9
REMARK    2  A    between atoms: C_3  and  C_22
REMARK    3  A    between atoms: C_9  and  C_10
REMARK    4  A    between atoms: C_15  and  C_18
REMARK    5  A    between atoms: C_22  and  C_23
REMARK    6  A    between atoms: C_28  and  C_31
REMARK                            x       y       z     vdW  Elec       q    Type
REMARK                         _______ _______ _______ _____ _____    ______ ____
ROOT
ATOM      1  O   UNL     1      35.424 -14.634 -22.016  0.00  0.00    -0.296 OA
ATOM      2  C   UNL     1      34.735 -16.845 -22.687  0.00  0.00    +0.062 C 
ATOM      3  C   UNL     1      33.377 -14.672 -23.245  0.00  0.00    +0.062 C 
ATOM      4  C   UNL     1      35.388 -17.219 -24.020  0.00  0.00    +0.008 C 
ATOM      5  C   UNL     1      32.754 -15.446 -24.409  0.00  0.00    +0.008 C 
ATOM      6  C   UNL     1      34.429 -17.202 -25.210  0.00  0.00    +0.000 C 
ATOM      7  C   UNL     1      33.758 -15.858 -25.488  0.00  0.00    +0.000 C 
ATOM      8  C   UNL     1      34.592 -15.330 -22.605  0.00  0.00    +0.150 C 
ENDROOT
BRANCH   2   9
ATOM      9  C   UNL     1      35.581 -17.352 -21.516  0.00  0.00    +0.034 C 
BRANCH   9  10
ATOM     10  C   UNL     1      35.044 -18.643 -20.967  0.00  0.00    -0.022 C 
ATOM     11  C   UNL     1      33.668 -18.866 -20.931  0.00  0.00    -0.004 C 
ATOM     12  C   UNL     1      35.921 -19.618 -20.492  0.00  0.00    -0.004 C 
ATOM     13  C   UNL     1      33.168 -20.064 -20.420  0.00  0.00    +0.002 C 
ATOM     14  C   UNL     1      35.422 -20.816 -19.981  0.00  0.00    +0.002 C 
ATOM     15  C   UNL     1      34.045 -21.039 -19.945  0.00  0.00    +0.031 C 
BRANCH  15  18
ATOM     16  N   UNL     1      32.495 -22.303 -18.473  0.00  0.00    -0.343 N 
ATOM     17  N   UNL     1      34.033 -23.439 -19.817  0.00  0.00    -0.285 NA
ATOM     18  C   UNL     1      33.524 -22.288 -19.413  0.00  0.00    +0.117 C 
ATOM     19  H   UNL     1      32.156 -23.160 -18.127  0.00  0.00    +0.144 HD
ATOM     20  H   UNL     1      32.105 -21.455 -18.157  0.00  0.00    +0.144 HD
ATOM     21  H   UNL     1      33.681 -24.286 -19.458  0.00  0.00    +0.188 HD
ENDBRANCH  15  18
ENDBRANCH   9  10
ENDBRANCH   2   9
BRANCH   3  22
ATOM     22  C   UNL     1      32.338 -14.407 -22.158  0.00  0.00    +0.034 C 
BRANCH  22  23
ATOM     23  C   UNL     1      32.224 -12.940 -21.847  0.00  0.00    -0.022 C 
ATOM     24  C   UNL     1      31.836 -12.526 -20.572  0.00  0.00    -0.004 C 
ATOM     25  C   UNL     1      32.503 -11.993 -22.833  0.00  0.00    -0.004 C 
ATOM     26  C   UNL     1      31.728 -11.165 -20.284  0.00  0.00    +0.002 C 
ATOM     27  C   UNL     1      32.396 -10.633 -22.544  0.00  0.00    +0.002 C 
ATOM     28  C   UNL     1      32.009 -10.219 -21.270  0.00  0.00    +0.031 C 
BRANCH  28  31
ATOM     29  N   UNL     1      32.062  -8.320 -19.671  0.00  0.00    -0.343 N 
ATOM     30  N   UNL     1      31.628  -7.942 -21.936  0.00  0.00    -0.285 NA
ATOM     31  C   UNL     1      31.896  -8.800 -20.969  0.00  0.00    +0.117 C 
ATOM     32  H   UNL     1      31.982  -7.355 -19.490  0.00  0.00    +0.144 HD
ATOM     33  H   UNL     1      32.259  -8.943 -18.936  0.00  0.00    +0.144 HD
ATOM     34  H   UNL     1      31.552  -6.980 -21.735  0.00  0.00    +0.188 HD
ENDBRANCH  28  31
ENDBRANCH  22  23
ENDBRANCH   3  22
TORSDOF 6
ENDMDL
MODEL 8
REMARK VINA RESULT:     -11.0      4.477     11.578
REMARK  Name = 17753851
REMARK  6 active torsions:
REMARK  status: ('A' for Active; 'I' for Inactive)
REMARK    1  A    between atoms: C_2  and  C_9
REMARK    2  A    between atoms: C_3  and  C_22
REMARK    3  A    between atoms: C_9  and  C_10
REMARK    4  A    between atoms: C_15  and  C_18
REMARK    5  A    between atoms: C_22  and  C_23
REMARK    6  A    between atoms: C_28  and  C_31
REMARK                            x       y       z     vdW  Elec       q    Type
REMARK                         _______ _______ _______ _____ _____    ______ ____
ROOT
ATOM      1  O   UNL     1      32.290 -15.708 -21.722  0.00  0.00    -0.296 OA
ATOM      2  C   UNL     1      33.311 -13.960 -23.032  0.00  0.00    +0.062 C 
ATOM      3  C   UNL     1      34.035 -16.477 -23.159  0.00  0.00    +0.062 C 
ATOM      4  C   UNL     1      32.522 -13.743 -24.326  0.00  0.00    +0.008 C 
ATOM      5  C   UNL     1      34.587 -16.175 -24.554  0.00  0.00    +0.008 C 
ATOM      6  C   UNL     1      33.220 -14.275 -25.578  0.00  0.00    +0.000 C 
ATOM      7  C   UNL     1      33.518 -15.773 -25.571  0.00  0.00    +0.000 C 
ATOM      8  C   UNL     1      33.132 -15.402 -22.571  0.00  0.00    +0.150 C 
ENDROOT
BRANCH   2   9
ATOM      9  C   UNL     1      32.825 -13.001 -21.943  0.00  0.00    +0.034 C 
BRANCH   9  10
ATOM     10  C   UNL     1      32.637 -11.609 -22.478  0.00  0.00    -0.022 C 
ATOM     11  C   UNL     1      33.582 -11.063 -23.346  0.00  0.00    -0.004 C 
ATOM     12  C   UNL     1      31.518 -10.864 -22.107  0.00  0.00    -0.004 C 
ATOM     13  C   UNL     1      33.409  -9.771 -23.843  0.00  0.00    +0.002 C 
ATOM     14  C   UNL     1      31.344  -9.572 -22.603  0.00  0.00    +0.002 C 
ATOM     15  C   UNL     1      32.289  -9.026 -23.471  0.00  0.00    +0.031 C 
BRANCH  15  18
ATOM     16  N   UNL     1      33.180  -6.796 -24.104  0.00  0.00    -0.343 N 
ATOM     17  N   UNL     1      30.906  -7.272 -24.358  0.00  0.00    -0.285 NA
ATOM     18  C   UNL     1      32.108  -7.679 -23.990  0.00  0.00    +0.117 C 
ATOM     19  H   UNL     1      33.035  -5.889 -24.458  0.00  0.00    +0.144 HD
ATOM     20  H   UNL     1      34.083  -7.080 -23.832  0.00  0.00    +0.144 HD
ATOM     21  H   UNL     1      30.782  -6.361 -24.709  0.00  0.00    +0.188 HD
ENDBRANCH  15  18
ENDBRANCH   9  10
ENDBRANCH   2   9
BRANCH   3  22
ATOM     22  C   UNL     1      35.172 -16.748 -22.177  0.00  0.00    +0.034 C 
BRANCH  22  23
ATOM     23  C   UNL     1      34.996 -18.066 -21.475  0.00  0.00    -0.022 C 
ATOM     24  C   UNL     1      36.112 -18.767 -21.019  0.00  0.00    -0.004 C 
ATOM     25  C   UNL     1      33.717 -18.589 -21.281  0.00  0.00    -0.004 C 
ATOM     26  C   UNL     1      35.949 -19.991 -20.369  0.00  0.00    +0.002 C 
ATOM     27  C   UNL     1      33.554 -19.811 -20.631  0.00  0.00    +0.002 C 
ATOM     28  C   UNL     1      34.670 -20.513 -20.174  0.00  0.00    +0.031 C 
BRANCH  28  31
ATOM     29  N   UNL     1      33.283 -22.466 -19.521  0.00  0.00    -0.343 N 
ATOM     30  N   UNL     1      35.513 -22.323 -18.838  0.00  0.00    -0.285 NA
ATOM     31  C   UNL     1      34.501 -21.788 -19.496  0.00  0.00    +0.117 C 
ATOM     32  H   UNL     1      33.191 -23.329 -19.055  0.00  0.00    +0.144 HD
ATOM     33  H   UNL     1      32.515 -22.084 -20.003  0.00  0.00    +0.144 HD
ATOM     34  H   UNL     1      35.402 -23.187 -18.378  0.00  0.00    +0.188 HD
ENDBRANCH  28  31
ENDBRANCH  22  23
ENDBRANCH   3  22
TORSDOF 6
ENDMDL
MODEL 9
REMARK VINA RESULT:     -11.0      3.153      9.922
REMARK  Name = 17753851
REMARK  6 active torsions:
REMARK  status: ('A' for Active; 'I' for Inactive)
REMARK    1  A    between atoms: C_2  and  C_9
REMARK    2  A    between atoms: C_3  and  C_22
REMARK    3  A    between atoms: C_9  and  C_10
REMARK    4  A    between atoms: C_15  and  C_18
REMARK    5  A    between atoms: C_22  and  C_23
REMARK    6  A    between atoms: C_28  and  C_31
REMARK                            x       y       z     vdW  Elec       q    Type
REMARK                         _______ _______ _______ _____ _____    ______ ____
ROOT
ATOM      1  O   UNL     1      33.656 -17.442 -21.053  0.00  0.00    -0.296 OA
ATOM      2  C   UNL     1      35.024 -16.410 -22.750  0.00  0.00    +0.062 C 
ATOM      3  C   UNL     1      34.556 -18.987 -22.636  0.00  0.00    +0.062 C 
ATOM      4  C   UNL     1      34.150 -15.932 -23.912  0.00  0.00    +0.008 C 
ATOM      5  C   UNL     1      34.875 -19.039 -24.133  0.00  0.00    +0.008 C 
ATOM      6  C   UNL     1      34.270 -16.786 -25.174  0.00  0.00    +0.000 C 
ATOM      7  C   UNL     1      33.892 -18.257 -25.004  0.00  0.00    +0.000 C 
ATOM      8  C   UNL     1      34.347 -17.591 -22.066  0.00  0.00    +0.150 C 
ENDROOT
BRANCH   2   9
ATOM      9  C   UNL     1      35.238 -15.278 -21.742  0.00  0.00    +0.034 C 
BRANCH   9  10
ATOM     10  C   UNL     1      34.162 -14.235 -21.849  0.00  0.00    -0.022 C 
ATOM     11  C   UNL     1      34.119 -13.387 -22.955  0.00  0.00    -0.004 C 
ATOM     12  C   UNL     1      33.205 -14.114 -20.840  0.00  0.00    -0.004 C 
ATOM     13  C   UNL     1      33.121 -12.418 -23.054  0.00  0.00    +0.002 C 
ATOM     14  C   UNL     1      32.206 -13.145 -20.939  0.00  0.00    +0.002 C 
ATOM     15  C   UNL     1      32.164 -12.298 -22.045  0.00  0.00    +0.031 C 
BRANCH  15  18
ATOM     16  N   UNL     1      31.299 -10.140 -22.920  0.00  0.00    -0.343 N 
ATOM     17  N   UNL     1      29.983 -11.448 -21.498  0.00  0.00    -0.285 NA
ATOM     18  C   UNL     1      31.123 -11.288 -22.149  0.00  0.00    +0.117 C 
ATOM     19  H   UNL     1      30.581  -9.470 -22.976  0.00  0.00    +0.144 HD
ATOM     20  H   UNL     1      32.142 -10.001 -23.409  0.00  0.00    +0.144 HD
ATOM     21  H   UNL     1      29.277 -10.766 -21.567  0.00  0.00    +0.188 HD
ENDBRANCH  15  18
ENDBRANCH   9  10
ENDBRANCH   2   9
BRANCH   3  22
ATOM     22  C   UNL     1      35.646 -19.685 -21.828  0.00  0.00    +0.034 C 
BRANCH  22  23
ATOM     23  C   UNL     1      35.065 -20.542 -20.737  0.00  0.00    -0.022 C 
ATOM     24  C   UNL     1      35.910 -21.274 -19.902  0.00  0.00    -0.004 C 
ATOM     25  C   UNL     1      33.683 -20.605 -20.560  0.00  0.00    -0.004 C 
ATOM     26  C   UNL     1      35.371 -22.070 -18.890  0.00  0.00    +0.002 C 
ATOM     27  C   UNL     1      33.145 -21.399 -19.548  0.00  0.00    +0.002 C 
ATOM     28  C   UNL     1      33.989 -22.132 -18.713  0.00  0.00    +0.031 C 
BRANCH  28  31
ATOM     29  N   UNL     1      32.052 -23.042 -17.454  0.00  0.00    -0.343 N 
ATOM     30  N   UNL     1      34.230 -23.652 -16.868  0.00  0.00    -0.285 NA
ATOM     31  C   UNL     1      33.428 -22.961 -17.658  0.00  0.00    +0.117 C 
ATOM     32  H   UNL     1      31.694 -23.610 -16.734  0.00  0.00    +0.144 HD
ATOM     33  H   UNL     1      31.437 -22.532 -18.029  0.00  0.00    +0.144 HD
ATOM     34  H   UNL     1      33.853 -24.215 -16.153  0.00  0.00    +0.188 HD
ENDBRANCH  28  31
ENDBRANCH  22  23
ENDBRANCH   3  22
TORSDOF 6
ENDMDL
