MODEL 1
REMARK VINA RESULT:      -8.4      0.000      0.000
REMARK  Name = 26035
REMARK  4 active torsions:
REMARK  status: ('A' for Active; 'I' for Inactive)
REMARK    1  A    between atoms: N_2  and  C_18
REMARK    2  A    between atoms: C_9  and  C_16
REMARK    3  A    between atoms: C_18  and  C_19
REMARK    4  A    between atoms: C_19  and  N_21
REMARK                            x       y       z     vdW  Elec       q    Type
REMARK                         _______ _______ _______ _____ _____    ______ ____
ROOT
ATOM      1  S   UNL     1      33.192 -16.023 -26.155  0.00  0.00    -0.084 S 
ATOM      2  N   UNL     1      34.082 -14.734 -23.470  0.00  0.00    -0.288 N 
ATOM      3  C   UNL     1      34.349 -16.119 -23.605  0.00  0.00    +0.058 C 
ATOM      4  C   UNL     1      33.879 -13.834 -24.547  0.00  0.00    +0.058 C 
ATOM      5  C   UNL     1      34.013 -16.812 -24.785  0.00  0.00    +0.043 C 
ATOM      6  C   UNL     1      33.498 -14.300 -25.820  0.00  0.00    +0.043 C 
ATOM      7  C   UNL     1      34.991 -16.861 -22.588  0.00  0.00    +0.018 C 
ATOM      8  C   UNL     1      34.083 -12.443 -24.408  0.00  0.00    +0.015 C 
ATOM      9  C   UNL     1      35.264 -18.224 -22.726  0.00  0.00    +0.036 C 
ATOM     10  C   UNL     1      34.286 -18.186 -24.916  0.00  0.00    +0.008 C 
ATOM     11  C   UNL     1      33.306 -13.404 -26.887  0.00  0.00    +0.008 C 
ATOM     12  C   UNL     1      34.909 -18.887 -23.890  0.00  0.00    +0.003 C 
ATOM     13  C   UNL     1      33.896 -11.558 -25.473  0.00  0.00    +0.001 C 
ATOM     14  C   UNL     1      33.504 -12.038 -26.713  0.00  0.00    +0.001 C 
ENDROOT
BRANCH   9  16
ATOM     15  O   UNL     1      37.150 -18.811 -21.436  0.00  0.00    -0.291 OA
ATOM     16  C   UNL     1      35.929 -18.945 -21.652  0.00  0.00    +0.174 C 
ATOM     17  C   UNL     1      35.138 -19.895 -20.759  0.00  0.00    +0.077 C 
ENDBRANCH   9  16
BRANCH   2  18
ATOM     18  C   UNL     1      34.084 -14.174 -22.112  0.00  0.00    +0.075 C 
BRANCH  18  19
ATOM     19  C   UNL     1      32.668 -14.029 -21.538  0.00  0.00    -0.038 C 
ATOM     20  C   UNL     1      32.444 -14.857 -20.274  0.00  0.00    -0.021 C 
BRANCH  19  21
ATOM     21  N   UNL     1      32.404 -12.633 -21.262  0.00  0.00    +0.387 N 
ATOM     22  C   UNL     1      31.908 -12.452 -19.893  0.00  0.00    -0.101 C 
ATOM     23  C   UNL     1      31.438 -12.081 -22.220  0.00  0.00    -0.101 C 
ATOM     24  H   UNL     1      33.286 -12.130 -21.360  0.00  0.00    -0.080 HD
ENDBRANCH  19  21
ENDBRANCH  18  19
ENDBRANCH   2  18
TORSDOF 4
ENDMDL
MODEL 2
REMARK VINA RESULT:      -8.3      7.707     10.906
REMARK  Name = 26035
REMARK  4 active torsions:
REMARK  status: ('A' for Active; 'I' for Inactive)
REMARK    1  A    between atoms: N_2  and  C_18
REMARK    2  A    between atoms: C_9  and  C_16
REMARK    3  A    between atoms: C_18  and  C_19
REMARK    4  A    between atoms: C_19  and  N_21
REMARK                            x       y       z     vdW  Elec       q    Type
REMARK                         _______ _______ _______ _____ _____    ______ ____
ROOT
ATOM      1  S   UNL     1      36.925 -21.951 -17.992  0.00  0.00    -0.084 S 
ATOM      2  N   UNL     1      34.084 -22.929 -17.197  0.00  0.00    -0.288 N 
ATOM      3  C   UNL     1      35.064 -22.993 -16.176  0.00  0.00    +0.058 C 
ATOM      4  C   UNL     1      34.148 -22.088 -18.337  0.00  0.00    +0.058 C 
ATOM      5  C   UNL     1      36.383 -22.557 -16.407  0.00  0.00    +0.043 C 
ATOM      6  C   UNL     1      35.376 -21.561 -18.782  0.00  0.00    +0.043 C 
ATOM      7  C   UNL     1      34.762 -23.460 -14.877  0.00  0.00    +0.018 C 
ATOM      8  C   UNL     1      32.991 -21.711 -19.054  0.00  0.00    +0.015 C 
ATOM      9  C   UNL     1      35.726 -23.512 -13.867  0.00  0.00    +0.036 C 
ATOM     10  C   UNL     1      37.351 -22.617 -15.388  0.00  0.00    +0.008 C 
ATOM     11  C   UNL     1      35.433 -20.721 -19.908  0.00  0.00    +0.008 C 
ATOM     12  C   UNL     1      37.022 -23.093 -14.124  0.00  0.00    +0.003 C 
ATOM     13  C   UNL     1      33.053 -20.871 -20.170  0.00  0.00    +0.001 C 
ATOM     14  C   UNL     1      34.276 -20.379 -20.600  0.00  0.00    +0.001 C 
ENDROOT
BRANCH   9  16
ATOM     15  O   UNL     1      34.275 -24.559 -12.330  0.00  0.00    -0.291 OA
ATOM     16  C   UNL     1      35.368 -23.999 -12.543  0.00  0.00    +0.174 C 
ATOM     17  C   UNL     1      36.333 -23.831 -11.375  0.00  0.00    +0.077 C 
ENDBRANCH   9  16
BRANCH   2  18
ATOM     18  C   UNL     1      32.874 -23.746 -17.027  0.00  0.00    +0.075 C 
BRANCH  18  19
ATOM     19  C   UNL     1      31.882 -23.121 -16.038  0.00  0.00    -0.038 C 
ATOM     20  C   UNL     1      30.596 -22.634 -16.703  0.00  0.00    -0.021 C 
BRANCH  19  21
ATOM     21  N   UNL     1      31.565 -24.084 -15.006  0.00  0.00    +0.387 N 
ATOM     22  C   UNL     1      30.424 -24.920 -15.397  0.00  0.00    -0.101 C 
ATOM     23  C   UNL     1      31.278 -23.414 -13.732  0.00  0.00    -0.101 C 
ATOM     24  H   UNL     1      32.382 -24.682 -14.884  0.00  0.00    -0.080 HD
ENDBRANCH  19  21
ENDBRANCH  18  19
ENDBRANCH   2  18
TORSDOF 4
ENDMDL
MODEL 3
REMARK VINA RESULT:      -7.9      3.261      6.223
REMARK  Name = 26035
REMARK  4 active torsions:
REMARK  status: ('A' for Active; 'I' for Inactive)
REMARK    1  A    between atoms: N_2  and  C_18
REMARK    2  A    between atoms: C_9  and  C_16
REMARK    3  A    between atoms: C_18  and  C_19
REMARK    4  A    between atoms: C_19  and  N_21
REMARK                            x       y       z     vdW  Elec       q    Type
REMARK                         _______ _______ _______ _____ _____    ______ ____
ROOT
ATOM      1  S   UNL     1      34.233 -10.666 -25.233  0.00  0.00    -0.084 S 
ATOM      2  N   UNL     1      32.963 -12.824 -23.392  0.00  0.00    -0.288 N 
ATOM      3  C   UNL     1      32.908 -11.493 -22.907  0.00  0.00    +0.058 C 
ATOM      4  C   UNL     1      33.118 -13.191 -24.752  0.00  0.00    +0.058 C 
ATOM      5  C   UNL     1      33.429 -10.424 -23.662  0.00  0.00    +0.043 C 
ATOM      6  C   UNL     1      33.659 -12.290 -25.690  0.00  0.00    +0.043 C 
ATOM      7  C   UNL     1      32.301 -11.170 -21.673  0.00  0.00    +0.018 C 
ATOM      8  C   UNL     1      32.707 -14.452 -25.238  0.00  0.00    +0.015 C 
ATOM      9  C   UNL     1      32.237  -9.856 -21.202  0.00  0.00    +0.036 C 
ATOM     10  C   UNL     1      33.366  -9.103 -23.180  0.00  0.00    +0.008 C 
ATOM     11  C   UNL     1      33.803 -12.656 -27.040  0.00  0.00    +0.008 C 
ATOM     12  C   UNL     1      32.772  -8.823 -21.954  0.00  0.00    +0.003 C 
ATOM     13  C   UNL     1      32.848 -14.808 -26.583  0.00  0.00    +0.001 C 
ATOM     14  C   UNL     1      33.400 -13.911 -27.483  0.00  0.00    +0.001 C 
ENDROOT
BRANCH   9  16
ATOM     15  O   UNL     1      31.707  -8.454 -19.380  0.00  0.00    -0.291 OA
ATOM     16  C   UNL     1      31.601  -9.571 -19.925  0.00  0.00    +0.174 C 
ATOM     17  C   UNL     1      30.784 -10.646 -19.215  0.00  0.00    +0.077 C 
ENDBRANCH   9  16
BRANCH   2  18
ATOM     18  C   UNL     1      32.776 -13.907 -22.416  0.00  0.00    +0.075 C 
BRANCH  18  19
ATOM     19  C   UNL     1      34.094 -14.606 -22.060  0.00  0.00    -0.038 C 
ATOM     20  C   UNL     1      34.415 -14.562 -20.567  0.00  0.00    -0.021 C 
BRANCH  19  21
ATOM     21  N   UNL     1      34.043 -15.981 -22.509  0.00  0.00    +0.387 N 
ATOM     22  C   UNL     1      34.067 -16.908 -21.372  0.00  0.00    -0.101 C 
ATOM     23  C   UNL     1      35.155 -16.279 -23.419  0.00  0.00    -0.101 C 
ATOM     24  H   UNL     1      33.165 -16.105 -23.014  0.00  0.00    -0.080 HD
ENDBRANCH  19  21
ENDBRANCH  18  19
ENDBRANCH   2  18
TORSDOF 4
ENDMDL
MODEL 4
REMARK VINA RESULT:      -7.9      4.543      7.360
REMARK  Name = 26035
REMARK  4 active torsions:
REMARK  status: ('A' for Active; 'I' for Inactive)
REMARK    1  A    between atoms: N_2  and  C_18
REMARK    2  A    between atoms: C_9  and  C_16
REMARK    3  A    between atoms: C_18  and  C_19
REMARK    4  A    between atoms: C_19  and  N_21
REMARK                            x       y       z     vdW  Elec       q    Type
REMARK                         _______ _______ _______ _____ _____    ______ ____
ROOT
ATOM      1  S   UNL     1      31.970  -7.696 -20.182  0.00  0.00    -0.084 S 
ATOM      2  N   UNL     1      32.227  -8.949 -23.015  0.00  0.00    -0.288 N 
ATOM      3  C   UNL     1      32.153  -9.870 -21.940  0.00  0.00    +0.058 C 
ATOM      4  C   UNL     1      31.764  -7.609 -22.975  0.00  0.00    +0.058 C 
ATOM      5  C   UNL     1      32.011  -9.424 -20.611  0.00  0.00    +0.043 C 
ATOM      6  C   UNL     1      31.583  -6.940 -21.749  0.00  0.00    +0.043 C 
ATOM      7  C   UNL     1      32.180 -11.267 -22.147  0.00  0.00    +0.018 C 
ATOM      8  C   UNL     1      31.429  -6.899 -24.148  0.00  0.00    +0.015 C 
ATOM      9  C   UNL     1      32.095 -12.174 -21.088  0.00  0.00    +0.036 C 
ATOM     10  C   UNL     1      31.931 -10.342 -19.548  0.00  0.00    +0.008 C 
ATOM     11  C   UNL     1      31.115  -5.615 -21.714  0.00  0.00    +0.008 C 
ATOM     12  C   UNL     1      31.973 -11.711 -19.787  0.00  0.00    +0.003 C 
ATOM     13  C   UNL     1      30.959  -5.583 -24.108  0.00  0.00    +0.001 C 
ATOM     14  C   UNL     1      30.806  -4.939 -22.890  0.00  0.00    +0.001 C 
ENDROOT
BRANCH   9  16
ATOM     15  O   UNL     1      31.944 -14.060 -22.498  0.00  0.00    -0.291 OA
ATOM     16  C   UNL     1      32.125 -13.605 -21.351  0.00  0.00    +0.174 C 
ATOM     17  C   UNL     1      32.380 -14.590 -20.215  0.00  0.00    +0.077 C 
ENDBRANCH   9  16
BRANCH   2  18
ATOM     18  C   UNL     1      32.764  -9.441 -24.291  0.00  0.00    +0.075 C 
BRANCH  18  19
ATOM     19  C   UNL     1      34.230  -9.043 -24.501  0.00  0.00    -0.038 C 
ATOM     20  C   UNL     1      34.798  -8.210 -23.353  0.00  0.00    -0.021 C 
BRANCH  19  21
ATOM     21  N   UNL     1      35.029 -10.236 -24.681  0.00  0.00    +0.387 N 
ATOM     22  C   UNL     1      35.820 -10.158 -25.915  0.00  0.00    -0.101 C 
ATOM     23  C   UNL     1      34.184 -11.436 -24.706  0.00  0.00    -0.101 C 
ATOM     24  H   UNL     1      35.666 -10.301 -23.887  0.00  0.00    -0.080 HD
ENDBRANCH  19  21
ENDBRANCH  18  19
ENDBRANCH   2  18
TORSDOF 4
ENDMDL
MODEL 5
REMARK VINA RESULT:      -7.9      9.190     12.506
REMARK  Name = 26035
REMARK  4 active torsions:
REMARK  status: ('A' for Active; 'I' for Inactive)
REMARK    1  A    between atoms: N_2  and  C_18
REMARK    2  A    between atoms: C_9  and  C_16
REMARK    3  A    between atoms: C_18  and  C_19
REMARK    4  A    between atoms: C_19  and  N_21
REMARK                            x       y       z     vdW  Elec       q    Type
REMARK                         _______ _______ _______ _____ _____    ______ ____
ROOT
ATOM      1  S   UNL     1      33.228 -23.330 -12.794  0.00  0.00    -0.084 S 
ATOM      2  N   UNL     1      34.209 -23.746 -15.713  0.00  0.00    -0.288 N 
ATOM      3  C   UNL     1      35.045 -24.283 -14.702  0.00  0.00    +0.058 C 
ATOM      4  C   UNL     1      32.829 -23.458 -15.564  0.00  0.00    +0.058 C 
ATOM      5  C   UNL     1      34.696 -24.179 -13.341  0.00  0.00    +0.043 C 
ATOM      6  C   UNL     1      32.260 -23.274 -14.288  0.00  0.00    +0.043 C 
ATOM      7  C   UNL     1      36.239 -24.974 -15.006  0.00  0.00    +0.018 C 
ATOM      8  C   UNL     1      31.957 -23.381 -16.672  0.00  0.00    +0.015 C 
ATOM      9  C   UNL     1      37.056 -25.513 -14.010  0.00  0.00    +0.036 C 
ATOM     10  C   UNL     1      35.525 -24.719 -12.342  0.00  0.00    +0.008 C 
ATOM     11  C   UNL     1      30.889 -22.997 -14.145  0.00  0.00    +0.008 C 
ATOM     12  C   UNL     1      36.700 -25.384 -12.676  0.00  0.00    +0.003 C 
ATOM     13  C   UNL     1      30.593 -23.111 -16.523  0.00  0.00    +0.001 C 
ATOM     14  C   UNL     1      30.060 -22.915 -15.258  0.00  0.00    +0.001 C 
ENDROOT
BRANCH   9  16
ATOM     15  O   UNL     1      38.245 -27.374 -14.839  0.00  0.00    -0.291 OA
ATOM     16  C   UNL     1      38.276 -26.219 -14.371  0.00  0.00    +0.174 C 
ATOM     17  C   UNL     1      39.634 -25.553 -14.179  0.00  0.00    +0.077 C 
ENDBRANCH   9  16
BRANCH   2  18
ATOM     18  C   UNL     1      34.804 -23.535 -17.040  0.00  0.00    +0.075 C 
BRANCH  18  19
ATOM     19  C   UNL     1      35.416 -22.136 -17.190  0.00  0.00    -0.038 C 
ATOM     20  C   UNL     1      36.911 -22.097 -16.884  0.00  0.00    -0.021 C 
BRANCH  19  21
ATOM     21  N   UNL     1      35.179 -21.652 -18.533  0.00  0.00    +0.387 N 
ATOM     22  C   UNL     1      34.346 -22.591 -19.293  0.00  0.00    -0.101 C 
ATOM     23  C   UNL     1      36.444 -21.422 -19.241  0.00  0.00    -0.101 C 
ATOM     24  H   UNL     1      34.682 -20.764 -18.455  0.00  0.00    -0.080 HD
ENDBRANCH  19  21
ENDBRANCH  18  19
ENDBRANCH   2  18
TORSDOF 4
ENDMDL
MODEL 6
REMARK VINA RESULT:      -7.4      3.768      6.842
REMARK  Name = 26035
REMARK  4 active torsions:
REMARK  status: ('A' for Active; 'I' for Inactive)
REMARK    1  A    between atoms: N_2  and  C_18
REMARK    2  A    between atoms: C_9  and  C_16
REMARK    3  A    between atoms: C_18  and  C_19
REMARK    4  A    between atoms: C_19  and  N_21
REMARK                            x       y       z     vdW  Elec       q    Type
REMARK                         _______ _______ _______ _____ _____    ______ ____
ROOT
ATOM      1  S   UNL     1      35.191 -10.424 -25.404  0.00  0.00    -0.084 S 
ATOM      2  N   UNL     1      32.909 -11.715 -23.735  0.00  0.00    -0.288 N 
ATOM      3  C   UNL     1      33.238 -10.379 -23.396  0.00  0.00    +0.058 C 
ATOM      4  C   UNL     1      33.183 -12.331 -24.983  0.00  0.00    +0.058 C 
ATOM      5  C   UNL     1      34.239  -9.678 -24.095  0.00  0.00    +0.043 C 
ATOM      6  C   UNL     1      34.178 -11.823 -25.840  0.00  0.00    +0.043 C 
ATOM      7  C   UNL     1      32.560  -9.678 -22.374  0.00  0.00    +0.018 C 
ATOM      8  C   UNL     1      32.453 -13.451 -25.440  0.00  0.00    +0.015 C 
ATOM      9  C   UNL     1      32.876  -8.357 -22.048  0.00  0.00    +0.036 C 
ATOM     10  C   UNL     1      34.557  -8.349 -23.759  0.00  0.00    +0.008 C 
ATOM     11  C   UNL     1      34.440 -12.432 -27.080  0.00  0.00    +0.008 C 
ATOM     12  C   UNL     1      33.877  -7.693 -22.739  0.00  0.00    +0.003 C 
ATOM     13  C   UNL     1      32.714 -14.049 -26.676  0.00  0.00    +0.001 C 
ATOM     14  C   UNL     1      33.711 -13.541 -27.495  0.00  0.00    +0.001 C 
ENDROOT
BRANCH   9  16
ATOM     15  O   UNL     1      31.913  -8.232 -19.898  0.00  0.00    -0.291 OA
ATOM     16  C   UNL     1      32.150  -7.674 -20.988  0.00  0.00    +0.174 C 
ATOM     17  C   UNL     1      31.654  -6.246 -21.191  0.00  0.00    +0.077 C 
ENDBRANCH   9  16
BRANCH   2  18
ATOM     18  C   UNL     1      32.166 -12.502 -22.741  0.00  0.00    +0.075 C 
BRANCH  18  19
ATOM     19  C   UNL     1      33.093 -13.320 -21.832  0.00  0.00    -0.038 C 
ATOM     20  C   UNL     1      32.665 -13.304 -20.366  0.00  0.00    -0.021 C 
BRANCH  19  21
ATOM     21  N   UNL     1      33.150 -14.685 -22.311  0.00  0.00    +0.387 N 
ATOM     22  C   UNL     1      32.738 -15.627 -21.265  0.00  0.00    -0.101 C 
ATOM     23  C   UNL     1      34.499 -15.021 -22.781  0.00  0.00    -0.101 C 
ATOM     24  H   UNL     1      32.502 -14.761 -23.095  0.00  0.00    -0.080 HD
ENDBRANCH  19  21
ENDBRANCH  18  19
ENDBRANCH   2  18
TORSDOF 4
ENDMDL
MODEL 7
REMARK VINA RESULT:      -7.3      9.211     13.471
REMARK  Name = 26035
REMARK  4 active torsions:
REMARK  status: ('A' for Active; 'I' for Inactive)
REMARK    1  A    between atoms: N_2  and  C_18
REMARK    2  A    between atoms: C_9  and  C_16
REMARK    3  A    between atoms: C_18  and  C_19
REMARK    4  A    between atoms: C_19  and  N_21
REMARK                            x       y       z     vdW  Elec       q    Type
REMARK                         _______ _______ _______ _____ _____    ______ ____
ROOT
ATOM      1  S   UNL     1      33.419 -24.363 -13.503  0.00  0.00    -0.084 S 
ATOM      2  N   UNL     1      36.127 -23.495 -14.758  0.00  0.00    -0.288 N 
ATOM      3  C   UNL     1      34.991 -23.361 -15.594  0.00  0.00    +0.058 C 
ATOM      4  C   UNL     1      36.095 -23.550 -13.341  0.00  0.00    +0.058 C 
ATOM      5  C   UNL     1      33.704 -23.700 -15.131  0.00  0.00    +0.043 C 
ATOM      6  C   UNL     1      34.918 -23.906 -12.655  0.00  0.00    +0.043 C 
ATOM      7  C   UNL     1      35.085 -22.852 -16.908  0.00  0.00    +0.018 C 
ATOM      8  C   UNL     1      37.220 -23.216 -12.555  0.00  0.00    +0.015 C 
ATOM      9  C   UNL     1      33.963 -22.708 -17.728  0.00  0.00    +0.036 C 
ATOM     10  C   UNL     1      32.579 -23.558 -15.963  0.00  0.00    +0.008 C 
ATOM     11  C   UNL     1      34.890 -23.950 -11.250  0.00  0.00    +0.008 C 
ATOM     12  C   UNL     1      32.709 -23.064 -17.256  0.00  0.00    +0.003 C 
ATOM     13  C   UNL     1      37.184 -23.256 -11.158  0.00  0.00    +0.001 C 
ATOM     14  C   UNL     1      36.019 -23.627 -10.505  0.00  0.00    +0.001 C 
ENDROOT
BRANCH   9  16
ATOM     15  O   UNL     1      33.137 -22.104 -19.854  0.00  0.00    -0.291 OA
ATOM     16  C   UNL     1      34.108 -22.177 -19.075  0.00  0.00    +0.174 C 
ATOM     17  C   UNL     1      35.468 -21.696 -19.570  0.00  0.00    +0.077 C 
ENDBRANCH   9  16
BRANCH   2  18
ATOM     18  C   UNL     1      37.446 -23.511 -15.406  0.00  0.00    +0.075 C 
BRANCH  18  19
ATOM     19  C   UNL     1      38.054 -24.918 -15.458  0.00  0.00    -0.038 C 
ATOM     20  C   UNL     1      39.462 -24.988 -14.870  0.00  0.00    -0.021 C 
BRANCH  19  21
ATOM     21  N   UNL     1      37.186 -25.841 -14.759  0.00  0.00    +0.387 N 
ATOM     22  C   UNL     1      37.898 -26.506 -13.662  0.00  0.00    -0.101 C 
ATOM     23  C   UNL     1      36.637 -26.846 -15.678  0.00  0.00    -0.101 C 
ATOM     24  H   UNL     1      36.415 -25.299 -14.368  0.00  0.00    -0.080 HD
ENDBRANCH  19  21
ENDBRANCH  18  19
ENDBRANCH   2  18
TORSDOF 4
ENDMDL
MODEL 8
REMARK VINA RESULT:      -7.2      8.105     11.672
REMARK  Name = 26035
REMARK  4 active torsions:
REMARK  status: ('A' for Active; 'I' for Inactive)
REMARK    1  A    between atoms: N_2  and  C_18
REMARK    2  A    between atoms: C_9  and  C_16
REMARK    3  A    between atoms: C_18  and  C_19
REMARK    4  A    between atoms: C_19  and  N_21
REMARK                            x       y       z     vdW  Elec       q    Type
REMARK                         _______ _______ _______ _____ _____    ______ ____
ROOT
ATOM      1  S   UNL     1      34.216 -24.820 -14.490  0.00  0.00    -0.084 S 
ATOM      2  N   UNL     1      33.573 -22.922 -16.866  0.00  0.00    -0.288 N 
ATOM      3  C   UNL     1      32.465 -23.311 -16.072  0.00  0.00    +0.058 C 
ATOM      4  C   UNL     1      34.926 -22.939 -16.441  0.00  0.00    +0.058 C 
ATOM      5  C   UNL     1      32.632 -24.150 -14.954  0.00  0.00    +0.043 C 
ATOM      6  C   UNL     1      35.337 -23.740 -15.359  0.00  0.00    +0.043 C 
ATOM      7  C   UNL     1      31.156 -22.852 -16.339  0.00  0.00    +0.018 C 
ATOM      8  C   UNL     1      35.912 -22.133 -17.053  0.00  0.00    +0.015 C 
ATOM      9  C   UNL     1      30.065 -23.226 -15.550  0.00  0.00    +0.036 C 
ATOM     10  C   UNL     1      31.529 -24.528 -14.165  0.00  0.00    +0.008 C 
ATOM     11  C   UNL     1      36.678 -23.747 -14.936  0.00  0.00    +0.008 C 
ATOM     12  C   UNL     1      30.252 -24.067 -14.464  0.00  0.00    +0.003 C 
ATOM     13  C   UNL     1      37.243 -22.140 -16.625  0.00  0.00    +0.001 C 
ATOM     14  C   UNL     1      37.627 -22.951 -15.568  0.00  0.00    +0.001 C 
ENDROOT
BRANCH   9  16
ATOM     15  O   UNL     1      28.179 -21.866 -15.152  0.00  0.00    -0.291 OA
ATOM     16  C   UNL     1      28.735 -22.727 -15.863  0.00  0.00    +0.174 C 
ATOM     17  C   UNL     1      27.981 -23.256 -17.078  0.00  0.00    +0.077 C 
ENDBRANCH   9  16
BRANCH   2  18
ATOM     18  C   UNL     1      33.292 -22.395 -18.208  0.00  0.00    +0.075 C 
BRANCH  18  19
ATOM     19  C   UNL     1      34.379 -22.773 -19.223  0.00  0.00    -0.038 C 
ATOM     20  C   UNL     1      34.126 -24.115 -19.905  0.00  0.00    -0.021 C 
BRANCH  19  21
ATOM     21  N   UNL     1      34.486 -21.729 -20.220  0.00  0.00    +0.387 N 
ATOM     22  C   UNL     1      35.813 -21.105 -20.190  0.00  0.00    -0.101 C 
ATOM     23  C   UNL     1      33.450 -20.708 -20.026  0.00  0.00    -0.101 C 
ATOM     24  H   UNL     1      34.350 -22.164 -21.133  0.00  0.00    -0.080 HD
ENDBRANCH  19  21
ENDBRANCH  18  19
ENDBRANCH   2  18
TORSDOF 4
ENDMDL
MODEL 9
REMARK VINA RESULT:      -6.8      3.166      5.920
REMARK  Name = 26035
REMARK  4 active torsions:
REMARK  status: ('A' for Active; 'I' for Inactive)
REMARK    1  A    between atoms: N_2  and  C_18
REMARK    2  A    between atoms: C_9  and  C_16
REMARK    3  A    between atoms: C_18  and  C_19
REMARK    4  A    between atoms: C_19  and  N_21
REMARK                            x       y       z     vdW  Elec       q    Type
REMARK                         _______ _______ _______ _____ _____    ______ ____
ROOT
ATOM      1  S   UNL     1      33.120 -13.712 -20.584  0.00  0.00    -0.084 S 
ATOM      2  N   UNL     1      32.561 -11.514 -22.710  0.00  0.00    -0.288 N 
ATOM      3  C   UNL     1      32.863 -12.801 -23.221  0.00  0.00    +0.058 C 
ATOM      4  C   UNL     1      32.067 -11.250 -21.407  0.00  0.00    +0.058 C 
ATOM      5  C   UNL     1      33.113 -13.885 -22.358  0.00  0.00    +0.043 C 
ATOM      6  C   UNL     1      32.236 -12.181 -20.364  0.00  0.00    +0.043 C 
ATOM      7  C   UNL     1      32.894 -13.067 -24.608  0.00  0.00    +0.018 C 
ATOM      8  C   UNL     1      31.355 -10.069 -21.102  0.00  0.00    +0.015 C 
ATOM      9  C   UNL     1      33.180 -14.338 -25.112  0.00  0.00    +0.036 C 
ATOM     10  C   UNL     1      33.406 -15.162 -22.870  0.00  0.00    +0.008 C 
ATOM     11  C   UNL     1      31.737 -11.918 -19.076  0.00  0.00    +0.008 C 
ATOM     12  C   UNL     1      33.439 -15.386 -24.242  0.00  0.00    +0.003 C 
ATOM     13  C   UNL     1      30.856  -9.814 -19.821  0.00  0.00    +0.001 C 
ATOM     14  C   UNL     1      31.051 -10.738 -18.806  0.00  0.00    +0.001 C 
ENDROOT
BRANCH   9  16
ATOM     15  O   UNL     1      32.943 -15.685 -27.034  0.00  0.00    -0.291 OA
ATOM     16  C   UNL     1      33.199 -14.565 -26.549  0.00  0.00    +0.174 C 
ATOM     17  C   UNL     1      33.538 -13.425 -27.503  0.00  0.00    +0.077 C 
ENDBRANCH   9  16
BRANCH   2  18
ATOM     18  C   UNL     1      32.705 -10.372 -23.623  0.00  0.00    +0.075 C 
BRANCH  18  19
ATOM     19  C   UNL     1      34.044  -9.646 -23.443  0.00  0.00    -0.038 C 
ATOM     20  C   UNL     1      34.955  -9.752 -24.665  0.00  0.00    -0.021 C 
BRANCH  19  21
ATOM     21  N   UNL     1      33.797  -8.254 -23.136  0.00  0.00    +0.387 N 
ATOM     22  C   UNL     1      32.522  -7.807 -23.709  0.00  0.00    -0.101 C 
ATOM     23  C   UNL     1      34.889  -7.405 -23.625  0.00  0.00    -0.101 C 
ATOM     24  H   UNL     1      33.746  -8.170 -22.120  0.00  0.00    -0.080 HD
ENDBRANCH  19  21
ENDBRANCH  18  19
ENDBRANCH   2  18
TORSDOF 4
ENDMDL
