MODEL 1
REMARK VINA RESULT:      -6.2      0.000      0.000
REMARK  Name = 8280
REMARK  1 active torsions:
REMARK  status: ('A' for Active; 'I' for Inactive)
REMARK    1  A    between atoms: C_5  and  C_10
REMARK                            x       y       z     vdW  Elec       q    Type
REMARK                         _______ _______ _______ _____ _____    ______ ____
ROOT
ATOM      1  O   UNL     1      34.783 -19.545 -22.824  0.00  0.00    -0.433 OA
ATOM      2  O   UNL     1      35.018 -16.924 -20.528  0.00  0.00    -0.271 OA
ATOM      3  O   UNL     1      34.763 -18.475 -24.836  0.00  0.00    -0.226 OA
ATOM      4  N   UNL     1      34.918 -17.324 -22.824  0.00  0.00    -0.191 N 
ATOM      5  C   UNL     1      34.866 -19.169 -21.438  0.00  0.00    +0.206 C 
ATOM      6  C   UNL     1      34.943 -17.663 -21.498  0.00  0.00    +0.270 C 
ATOM      7  C   UNL     1      33.606 -19.628 -20.721  0.00  0.00    +0.053 C 
ATOM      8  C   UNL     1      34.816 -18.429 -23.613  0.00  0.00    +0.411 C 
ATOM      9  C   UNL     1      34.984 -15.963 -23.316  0.00  0.00    +0.126 C 
ENDROOT
BRANCH   5  10
ATOM     10  C   UNL     1      36.132 -19.761 -20.836  0.00  0.00    +0.049 C 
ATOM     11  C   UNL     1      35.825 -20.954 -19.949  0.00  0.00    +0.004 C 
ENDBRANCH   5  10
TORSDOF 1
ENDMDL
MODEL 2
REMARK VINA RESULT:      -6.2      0.911      2.599
REMARK  Name = 8280
REMARK  1 active torsions:
REMARK  status: ('A' for Active; 'I' for Inactive)
REMARK    1  A    between atoms: C_5  and  C_10
REMARK                            x       y       z     vdW  Elec       q    Type
REMARK                         _______ _______ _______ _____ _____    ______ ____
ROOT
ATOM      1  O   UNL     1      34.676 -17.765 -20.658  0.00  0.00    -0.433 OA
ATOM      2  O   UNL     1      34.791 -19.553 -23.656  0.00  0.00    -0.271 OA
ATOM      3  O   UNL     1      34.832 -15.596 -21.340  0.00  0.00    -0.226 OA
ATOM      4  N   UNL     1      34.833 -17.368 -22.842  0.00  0.00    -0.191 N 
ATOM      5  C   UNL     1      34.646 -19.060 -21.283  0.00  0.00    +0.206 C 
ATOM      6  C   UNL     1      34.766 -18.732 -22.751  0.00  0.00    +0.270 C 
ATOM      7  C   UNL     1      35.836 -19.874 -20.801  0.00  0.00    +0.053 C 
ATOM      8  C   UNL     1      34.787 -16.790 -21.610  0.00  0.00    +0.411 C 
ATOM      9  C   UNL     1      34.945 -16.641 -24.091  0.00  0.00    +0.126 C 
ENDROOT
BRANCH   5  10
ATOM     10  C   UNL     1      33.314 -19.730 -20.977  0.00  0.00    +0.049 C 
ATOM     11  C   UNL     1      33.469 -20.843 -19.956  0.00  0.00    +0.004 C 
ENDBRANCH   5  10
TORSDOF 1
ENDMDL
MODEL 3
REMARK VINA RESULT:      -6.2      2.180      4.061
REMARK  Name = 8280
REMARK  1 active torsions:
REMARK  status: ('A' for Active; 'I' for Inactive)
REMARK    1  A    between atoms: C_5  and  C_10
REMARK                            x       y       z     vdW  Elec       q    Type
REMARK                         _______ _______ _______ _____ _____    ______ ____
ROOT
ATOM      1  O   UNL     1      33.473 -19.468 -21.210  0.00  0.00    -0.433 OA
ATOM      2  O   UNL     1      36.938 -19.499 -20.777  0.00  0.00    -0.271 OA
ATOM      3  O   UNL     1      32.763 -21.155 -19.853  0.00  0.00    -0.226 OA
ATOM      4  N   UNL     1      35.008 -20.591 -20.055  0.00  0.00    -0.191 N 
ATOM      5  C   UNL     1      34.730 -18.868 -21.565  0.00  0.00    +0.206 C 
ATOM      6  C   UNL     1      35.728 -19.670 -20.767  0.00  0.00    +0.270 C 
ATOM      7  C   UNL     1      34.958 -19.035 -23.060  0.00  0.00    +0.053 C 
ATOM      8  C   UNL     1      33.675 -20.482 -20.316  0.00  0.00    +0.411 C 
ATOM      9  C   UNL     1      35.594 -21.556 -19.147  0.00  0.00    +0.126 C 
ENDROOT
BRANCH   5  10
ATOM     10  C   UNL     1      34.726 -17.409 -21.132  0.00  0.00    +0.049 C 
ATOM     11  C   UNL     1      34.978 -16.476 -22.304  0.00  0.00    +0.004 C 
ENDBRANCH   5  10
TORSDOF 1
ENDMDL
MODEL 4
REMARK VINA RESULT:      -6.0      9.456     10.980
REMARK  Name = 8280
REMARK  1 active torsions:
REMARK  status: ('A' for Active; 'I' for Inactive)
REMARK    1  A    between atoms: C_5  and  C_10
REMARK                            x       y       z     vdW  Elec       q    Type
REMARK                         _______ _______ _______ _____ _____    ______ ____
ROOT
ATOM      1  O   UNL     1      32.893  -7.295 -21.704  0.00  0.00    -0.433 OA
ATOM      2  O   UNL     1      31.661 -10.521 -22.229  0.00  0.00    -0.271 OA
ATOM      3  O   UNL     1      32.921  -7.112 -19.433  0.00  0.00    -0.226 OA
ATOM      4  N   UNL     1      32.211  -9.045 -20.510  0.00  0.00    -0.191 N 
ATOM      5  C   UNL     1      32.533  -8.298 -22.670  0.00  0.00    +0.206 C 
ATOM      6  C   UNL     1      32.071  -9.449 -21.810  0.00  0.00    +0.270 C 
ATOM      7  C   UNL     1      31.401  -7.771 -23.539  0.00  0.00    +0.053 C 
ATOM      8  C   UNL     1      32.689  -7.771 -20.439  0.00  0.00    +0.411 C 
ATOM      9  C   UNL     1      31.884  -9.868 -19.363  0.00  0.00    +0.126 C 
ENDROOT
BRANCH   5  10
ATOM     10  C   UNL     1      33.765  -8.677 -23.478  0.00  0.00    +0.049 C 
ATOM     11  C   UNL     1      34.797  -7.563 -23.482  0.00  0.00    +0.004 C 
ENDBRANCH   5  10
TORSDOF 1
ENDMDL
MODEL 5
REMARK VINA RESULT:      -6.0      2.389      4.253
REMARK  Name = 8280
REMARK  1 active torsions:
REMARK  status: ('A' for Active; 'I' for Inactive)
REMARK    1  A    between atoms: C_5  and  C_10
REMARK                            x       y       z     vdW  Elec       q    Type
REMARK                         _______ _______ _______ _____ _____    ______ ____
ROOT
ATOM      1  O   UNL     1      35.886 -19.631 -20.876  0.00  0.00    -0.433 OA
ATOM      2  O   UNL     1      32.427 -20.113 -20.926  0.00  0.00    -0.271 OA
ATOM      3  O   UNL     1      36.611 -21.217 -19.410  0.00  0.00    -0.226 OA
ATOM      4  N   UNL     1      34.365 -20.964 -19.947  0.00  0.00    -0.191 N 
ATOM      5  C   UNL     1      34.625 -19.208 -21.422  0.00  0.00    +0.206 C 
ATOM      6  C   UNL     1      33.637 -20.132 -20.753  0.00  0.00    +0.270 C 
ATOM      7  C   UNL     1      34.374 -17.759 -21.033  0.00  0.00    +0.053 C 
ATOM      8  C   UNL     1      35.694 -20.671 -20.009  0.00  0.00    +0.411 C 
ATOM      9  C   UNL     1      33.790 -22.015 -19.132  0.00  0.00    +0.126 C 
ENDROOT
BRANCH   5  10
ATOM     10  C   UNL     1      34.638 -19.416 -22.929  0.00  0.00    +0.049 C 
ATOM     11  C   UNL     1      35.362 -18.288 -23.644  0.00  0.00    +0.004 C 
ENDBRANCH   5  10
TORSDOF 1
ENDMDL
MODEL 6
REMARK VINA RESULT:      -5.8      8.898     10.233
REMARK  Name = 8280
REMARK  1 active torsions:
REMARK  status: ('A' for Active; 'I' for Inactive)
REMARK    1  A    between atoms: C_5  and  C_10
REMARK                            x       y       z     vdW  Elec       q    Type
REMARK                         _______ _______ _______ _____ _____    ______ ____
ROOT
ATOM      1  O   UNL     1      35.576 -25.387 -15.394  0.00  0.00    -0.433 OA
ATOM      2  O   UNL     1      37.805 -23.371 -13.616  0.00  0.00    -0.271 OA
ATOM      3  O   UNL     1      36.831 -27.215 -15.919  0.00  0.00    -0.226 OA
ATOM      4  N   UNL     1      37.690 -25.432 -14.701  0.00  0.00    -0.191 N 
ATOM      5  C   UNL     1      35.770 -24.152 -14.685  0.00  0.00    +0.206 C 
ATOM      6  C   UNL     1      37.213 -24.231 -14.251  0.00  0.00    +0.270 C 
ATOM      7  C   UNL     1      35.544 -22.988 -15.638  0.00  0.00    +0.053 C 
ATOM      8  C   UNL     1      36.731 -26.118 -15.384  0.00  0.00    +0.411 C 
ATOM      9  C   UNL     1      39.043 -25.903 -14.482  0.00  0.00    +0.126 C 
ENDROOT
BRANCH   5  10
ATOM     10  C   UNL     1      34.836 -24.115 -13.484  0.00  0.00    +0.049 C 
ATOM     11  C   UNL     1      33.385 -24.288 -13.897  0.00  0.00    +0.004 C 
ENDBRANCH   5  10
TORSDOF 1
ENDMDL
MODEL 7
REMARK VINA RESULT:      -5.7      9.229     10.673
REMARK  Name = 8280
REMARK  1 active torsions:
REMARK  status: ('A' for Active; 'I' for Inactive)
REMARK    1  A    between atoms: C_5  and  C_10
REMARK                            x       y       z     vdW  Elec       q    Type
REMARK                         _______ _______ _______ _____ _____    ______ ____
ROOT
ATOM      1  O   UNL     1      37.871 -26.485 -14.527  0.00  0.00    -0.433 OA
ATOM      2  O   UNL     1      37.584 -23.069 -13.857  0.00  0.00    -0.271 OA
ATOM      3  O   UNL     1      36.070 -26.908 -15.857  0.00  0.00    -0.226 OA
ATOM      4  N   UNL     1      36.524 -24.786 -15.027  0.00  0.00    -0.191 N 
ATOM      5  C   UNL     1      38.437 -25.342 -13.863  0.00  0.00    +0.206 C 
ATOM      6  C   UNL     1      37.483 -24.230 -14.225  0.00  0.00    +0.270 C 
ATOM      7  C   UNL     1      38.448 -25.592 -12.362  0.00  0.00    +0.053 C 
ATOM      8  C   UNL     1      36.742 -26.119 -15.205  0.00  0.00    +0.411 C 
ATOM      9  C   UNL     1      35.418 -24.047 -15.603  0.00  0.00    +0.126 C 
ENDROOT
BRANCH   5  10
ATOM     10  C   UNL     1      39.827 -25.077 -14.423  0.00  0.00    +0.049 C 
ATOM     11  C   UNL     1      40.707 -26.312 -14.343  0.00  0.00    +0.004 C 
ENDBRANCH   5  10
TORSDOF 1
ENDMDL
MODEL 8
REMARK VINA RESULT:      -5.6      8.305     10.466
REMARK  Name = 8280
REMARK  1 active torsions:
REMARK  status: ('A' for Active; 'I' for Inactive)
REMARK    1  A    between atoms: C_5  and  C_10
REMARK                            x       y       z     vdW  Elec       q    Type
REMARK                         _______ _______ _______ _____ _____    ______ ____
ROOT
ATOM      1  O   UNL     1      37.276 -22.651 -13.598  0.00  0.00    -0.433 OA
ATOM      2  O   UNL     1      36.549 -25.586 -15.346  0.00  0.00    -0.271 OA
ATOM      3  O   UNL     1      38.036 -23.416 -11.590  0.00  0.00    -0.226 OA
ATOM      4  N   UNL     1      37.369 -24.853 -13.289  0.00  0.00    -0.191 N 
ATOM      5  C   UNL     1      36.801 -23.228 -14.826  0.00  0.00    +0.206 C 
ATOM      6  C   UNL     1      36.874 -24.711 -14.557  0.00  0.00    +0.270 C 
ATOM      7  C   UNL     1      35.367 -22.781 -15.065  0.00  0.00    +0.053 C 
ATOM      8  C   UNL     1      37.603 -23.641 -12.713  0.00  0.00    +0.411 C 
ATOM      9  C   UNL     1      37.604 -26.130 -12.646  0.00  0.00    +0.126 C 
ENDROOT
BRANCH   5  10
ATOM     10  C   UNL     1      37.735 -22.829 -15.959  0.00  0.00    +0.049 C 
ATOM     11  C   UNL     1      37.035 -21.946 -16.978  0.00  0.00    +0.004 C 
ENDBRANCH   5  10
TORSDOF 1
ENDMDL
MODEL 9
REMARK VINA RESULT:      -5.6      9.701     11.146
REMARK  Name = 8280
REMARK  1 active torsions:
REMARK  status: ('A' for Active; 'I' for Inactive)
REMARK    1  A    between atoms: C_5  and  C_10
REMARK                            x       y       z     vdW  Elec       q    Type
REMARK                         _______ _______ _______ _____ _____    ______ ____
ROOT
ATOM      1  O   UNL     1      37.487 -24.469 -14.775  0.00  0.00    -0.433 OA
ATOM      2  O   UNL     1      36.948 -26.313 -11.859  0.00  0.00    -0.271 OA
ATOM      3  O   UNL     1      35.981 -22.768 -14.602  0.00  0.00    -0.226 OA
ATOM      4  N   UNL     1      36.190 -24.406 -12.968  0.00  0.00    -0.191 N 
ATOM      5  C   UNL     1      37.876 -25.608 -13.989  0.00  0.00    +0.206 C 
ATOM      6  C   UNL     1      36.963 -25.522 -12.791  0.00  0.00    +0.270 C 
ATOM      7  C   UNL     1      37.619 -26.877 -14.788  0.00  0.00    +0.053 C 
ATOM      8  C   UNL     1      36.489 -23.782 -14.142  0.00  0.00    +0.411 C 
ATOM      9  C   UNL     1      35.182 -23.958 -12.029  0.00  0.00    +0.126 C 
ENDROOT
BRANCH   5  10
ATOM     10  C   UNL     1      39.334 -25.458 -13.580  0.00  0.00    +0.049 C 
ATOM     11  C   UNL     1      40.274 -25.766 -14.733  0.00  0.00    +0.004 C 
ENDBRANCH   5  10
TORSDOF 1
ENDMDL
