MODEL 1
REMARK VINA RESULT:      -6.8      0.000      0.000
REMARK  Name = 40473221
REMARK  2 active torsions:
REMARK  status: ('A' for Active; 'I' for Inactive)
REMARK    1  A    between atoms: C_4  and  C_13
REMARK    2  A    between atoms: C_8  and  O_14
REMARK                            x       y       z     vdW  Elec       q    Type
REMARK                         _______ _______ _______ _____ _____    ______ ____
ROOT
ATOM      1  N   UNL     1      36.553 -23.204 -14.466  0.00  0.00    +0.389 N 
ATOM      2  C   UNL     1      37.570 -24.278 -14.098  0.00  0.00    -0.045 C 
ATOM      3  C   UNL     1      35.244 -23.967 -14.404  0.00  0.00    -0.056 C 
ATOM      4  C   UNL     1      37.444 -24.537 -12.585  0.00  0.00    +0.111 C 
ATOM      5  C   UNL     1      37.094 -25.475 -14.930  0.00  0.00    -0.022 C 
ATOM      6  C   UNL     1      35.584 -25.279 -15.114  0.00  0.00    -0.023 C 
ATOM      7  C   UNL     1      34.930 -24.151 -12.911  0.00  0.00    +0.009 C 
ATOM      8  C   UNL     1      36.019 -24.946 -12.176  0.00  0.00    +0.117 C 
ATOM      9  C   UNL     1      36.816 -22.508 -15.769  0.00  0.00    -0.100 C 
ATOM     10  H   UNL     1      36.574 -22.403 -13.835  0.00  0.00    -0.080 HD
ENDROOT
BRANCH   4  13
ATOM     11  O   UNL     1      37.034 -22.519 -11.436  0.00  0.00    -0.246 OA
ATOM     12  O   UNL     1      39.186 -23.264 -11.643  0.00  0.00    -0.246 OA
ATOM     13  C   UNL     1      37.936 -23.318 -11.811  0.00  0.00    +0.365 C 
ENDBRANCH   4  13
BRANCH   8  14
ATOM     14  O   UNL     1      35.813 -24.853 -10.772  0.00  0.00    -0.384 OA
ATOM     15  H   UNL     1      35.490 -25.703 -10.435  0.00  0.00    +0.210 HD
ENDBRANCH   8  14
TORSDOF 2
ENDMDL
MODEL 2
REMARK VINA RESULT:      -6.7      1.495      2.273
REMARK  Name = 40473221
REMARK  2 active torsions:
REMARK  status: ('A' for Active; 'I' for Inactive)
REMARK    1  A    between atoms: C_4  and  C_13
REMARK    2  A    between atoms: C_8  and  O_14
REMARK                            x       y       z     vdW  Elec       q    Type
REMARK                         _______ _______ _______ _____ _____    ______ ____
ROOT
ATOM      1  N   UNL     1      38.083 -24.686 -13.558  0.00  0.00    +0.389 N 
ATOM      2  C   UNL     1      37.373 -25.664 -12.628  0.00  0.00    -0.045 C 
ATOM      3  C   UNL     1      37.174 -24.678 -14.770  0.00  0.00    -0.056 C 
ATOM      4  C   UNL     1      36.129 -24.950 -12.067  0.00  0.00    +0.111 C 
ATOM      5  C   UNL     1      37.003 -26.806 -13.580  0.00  0.00    -0.022 C 
ATOM      6  C   UNL     1      36.859 -26.163 -14.966  0.00  0.00    -0.023 C 
ATOM      7  C   UNL     1      35.944 -23.846 -14.374  0.00  0.00    +0.009 C 
ATOM      8  C   UNL     1      35.192 -24.445 -13.177  0.00  0.00    +0.117 C 
ATOM      9  C   UNL     1      39.517 -25.020 -13.845  0.00  0.00    -0.100 C 
ATOM     10  H   UNL     1      38.201 -23.760 -13.145  0.00  0.00    -0.080 HD
ENDROOT
BRANCH   4  13
ATOM     11  O   UNL     1      37.090 -22.831 -11.683  0.00  0.00    -0.246 OA
ATOM     12  O   UNL     1      36.326 -24.046  -9.902  0.00  0.00    -0.246 OA
ATOM     13  C   UNL     1      36.558 -23.830 -11.124  0.00  0.00    +0.365 C 
ENDBRANCH   4  13
BRANCH   8  14
ATOM     14  O   UNL     1      34.240 -23.505 -12.692  0.00  0.00    -0.384 OA
ATOM     15  H   UNL     1      33.671 -23.933 -12.033  0.00  0.00    +0.210 HD
ENDBRANCH   8  14
TORSDOF 2
ENDMDL
MODEL 3
REMARK VINA RESULT:      -6.7      1.503      3.136
REMARK  Name = 40473221
REMARK  2 active torsions:
REMARK  status: ('A' for Active; 'I' for Inactive)
REMARK    1  A    between atoms: C_4  and  C_13
REMARK    2  A    between atoms: C_8  and  O_14
REMARK                            x       y       z     vdW  Elec       q    Type
REMARK                         _______ _______ _______ _____ _____    ______ ____
ROOT
ATOM      1  N   UNL     1      36.947 -25.804 -13.945  0.00  0.00    +0.389 N 
ATOM      2  C   UNL     1      36.380 -24.454 -14.369  0.00  0.00    -0.045 C 
ATOM      3  C   UNL     1      38.370 -25.449 -13.561  0.00  0.00    -0.056 C 
ATOM      4  C   UNL     1      36.149 -23.626 -13.091  0.00  0.00    +0.111 C 
ATOM      5  C   UNL     1      37.512 -23.882 -15.231  0.00  0.00    -0.022 C 
ATOM      6  C   UNL     1      38.803 -24.517 -14.695  0.00  0.00    -0.023 C 
ATOM      7  C   UNL     1      38.278 -24.742 -12.200  0.00  0.00    +0.009 C 
ATOM      8  C   UNL     1      37.431 -23.463 -12.258  0.00  0.00    +0.117 C 
ATOM      9  C   UNL     1      36.823 -26.890 -14.974  0.00  0.00    -0.100 C 
ATOM     10  H   UNL     1      36.426 -26.231 -13.180  0.00  0.00    -0.080 HD
ENDROOT
BRANCH   4  13
ATOM     11  O   UNL     1      35.369 -25.001 -11.341  0.00  0.00    -0.246 OA
ATOM     12  O   UNL     1      33.853 -23.900 -12.652  0.00  0.00    -0.246 OA
ATOM     13  C   UNL     1      35.011 -24.237 -12.280  0.00  0.00    +0.365 C 
ENDBRANCH   4  13
BRANCH   8  14
ATOM     14  O   UNL     1      37.162 -23.007 -10.937  0.00  0.00    -0.384 OA
ATOM     15  H   UNL     1      37.886 -22.435 -10.639  0.00  0.00    +0.210 HD
ENDBRANCH   8  14
TORSDOF 2
ENDMDL
MODEL 4
REMARK VINA RESULT:      -6.6      2.455      3.361
REMARK  Name = 40473221
REMARK  2 active torsions:
REMARK  status: ('A' for Active; 'I' for Inactive)
REMARK    1  A    between atoms: C_4  and  C_13
REMARK    2  A    between atoms: C_8  and  O_14
REMARK                            x       y       z     vdW  Elec       q    Type
REMARK                         _______ _______ _______ _____ _____    ______ ____
ROOT
ATOM      1  N   UNL     1      37.699 -24.074 -12.710  0.00  0.00    +0.389 N 
ATOM      2  C   UNL     1      37.625 -23.865 -14.218  0.00  0.00    -0.045 C 
ATOM      3  C   UNL     1      36.588 -25.076 -12.470  0.00  0.00    -0.056 C 
ATOM      4  C   UNL     1      38.206 -25.123 -14.890  0.00  0.00    +0.111 C 
ATOM      5  C   UNL     1      36.117 -23.727 -14.454  0.00  0.00    -0.022 C 
ATOM      6  C   UNL     1      35.446 -24.526 -13.328  0.00  0.00    -0.023 C 
ATOM      7  C   UNL     1      37.121 -26.429 -12.968  0.00  0.00    +0.009 C 
ATOM      8  C   UNL     1      37.474 -26.407 -14.462  0.00  0.00    +0.117 C 
ATOM      9  C   UNL     1      37.603 -22.818 -11.895  0.00  0.00    -0.100 C 
ATOM     10  H   UNL     1      38.610 -24.411 -12.400  0.00  0.00    -0.080 HD
ENDROOT
BRANCH   4  13
ATOM     11  O   UNL     1      40.103 -24.609 -13.587  0.00  0.00    -0.246 OA
ATOM     12  O   UNL     1      40.362 -25.855 -15.487  0.00  0.00    -0.246 OA
ATOM     13  C   UNL     1      39.706 -25.203 -14.627  0.00  0.00    +0.365 C 
ENDBRANCH   4  13
BRANCH   8  14
ATOM     14  O   UNL     1      38.203 -27.581 -14.798  0.00  0.00    -0.384 OA
ATOM     15  H   UNL     1      38.258 -27.662 -15.763  0.00  0.00    +0.210 HD
ENDBRANCH   8  14
TORSDOF 2
ENDMDL
MODEL 5
REMARK VINA RESULT:      -6.5      1.864      2.450
REMARK  Name = 40473221
REMARK  2 active torsions:
REMARK  status: ('A' for Active; 'I' for Inactive)
REMARK    1  A    between atoms: C_4  and  C_13
REMARK    2  A    between atoms: C_8  and  O_14
REMARK                            x       y       z     vdW  Elec       q    Type
REMARK                         _______ _______ _______ _____ _____    ______ ____
ROOT
ATOM      1  N   UNL     1      37.181 -23.422 -14.770  0.00  0.00    +0.389 N 
ATOM      2  C   UNL     1      36.868 -24.853 -15.190  0.00  0.00    -0.045 C 
ATOM      3  C   UNL     1      36.228 -23.213 -13.609  0.00  0.00    -0.056 C 
ATOM      4  C   UNL     1      37.475 -25.792 -14.131  0.00  0.00    +0.111 C 
ATOM      5  C   UNL     1      35.335 -24.871 -15.167  0.00  0.00    -0.022 C 
ATOM      6  C   UNL     1      34.923 -23.818 -14.131  0.00  0.00    -0.023 C 
ATOM      7  C   UNL     1      36.824 -23.990 -12.425  0.00  0.00    +0.009 C 
ATOM      8  C   UNL     1      36.953 -25.493 -12.715  0.00  0.00    +0.117 C 
ATOM      9  C   UNL     1      37.070 -22.406 -15.868  0.00  0.00    -0.100 C 
ATOM     10  H   UNL     1      38.158 -23.289 -14.509  0.00  0.00    -0.080 HD
ENDROOT
BRANCH   4  13
ATOM     11  O   UNL     1      39.526 -24.718 -13.678  0.00  0.00    -0.246 OA
ATOM     12  O   UNL     1      39.537 -26.720 -14.785  0.00  0.00    -0.246 OA
ATOM     13  C   UNL     1      38.997 -25.737 -14.204  0.00  0.00    +0.365 C 
ENDBRANCH   4  13
BRANCH   8  14
ATOM     14  O   UNL     1      37.747 -26.107 -11.707  0.00  0.00    -0.384 OA
ATOM     15  H   UNL     1      37.180 -26.647 -11.133  0.00  0.00    +0.210 HD
ENDBRANCH   8  14
TORSDOF 2
ENDMDL
MODEL 6
REMARK VINA RESULT:      -6.3      1.755      2.820
REMARK  Name = 40473221
REMARK  2 active torsions:
REMARK  status: ('A' for Active; 'I' for Inactive)
REMARK    1  A    between atoms: C_4  and  C_13
REMARK    2  A    between atoms: C_8  and  O_14
REMARK                            x       y       z     vdW  Elec       q    Type
REMARK                         _______ _______ _______ _____ _____    ______ ____
ROOT
ATOM      1  N   UNL     1      35.010 -24.667 -13.708  0.00  0.00    +0.389 N 
ATOM      2  C   UNL     1      36.117 -23.634 -13.530  0.00  0.00    -0.045 C 
ATOM      3  C   UNL     1      35.252 -25.157 -15.121  0.00  0.00    -0.056 C 
ATOM      4  C   UNL     1      37.443 -24.401 -13.359  0.00  0.00    +0.111 C 
ATOM      5  C   UNL     1      36.061 -22.865 -14.854  0.00  0.00    -0.022 C 
ATOM      6  C   UNL     1      35.514 -23.858 -15.888  0.00  0.00    -0.023 C 
ATOM      7  C   UNL     1      36.482 -26.075 -15.048  0.00  0.00    +0.009 C 
ATOM      8  C   UNL     1      37.733 -25.341 -14.542  0.00  0.00    +0.117 C 
ATOM      9  C   UNL     1      33.624 -24.154 -13.446  0.00  0.00    -0.100 C 
ATOM     10  H   UNL     1      35.050 -25.416 -13.017  0.00  0.00    -0.080 HD
ENDROOT
BRANCH   4  13
ATOM     11  O   UNL     1      37.001 -26.321 -12.064  0.00  0.00    -0.246 OA
ATOM     12  O   UNL     1      37.888 -24.473 -11.049  0.00  0.00    -0.246 OA
ATOM     13  C   UNL     1      37.444 -25.140 -12.025  0.00  0.00    +0.365 C 
ENDBRANCH   4  13
BRANCH   8  14
ATOM     14  O   UNL     1      38.753 -26.286 -14.242  0.00  0.00    -0.384 OA
ATOM     15  H   UNL     1      39.268 -25.975 -13.481  0.00  0.00    +0.210 HD
ENDBRANCH   8  14
TORSDOF 2
ENDMDL
MODEL 7
REMARK VINA RESULT:      -6.3      1.546      2.619
REMARK  Name = 40473221
REMARK  2 active torsions:
REMARK  status: ('A' for Active; 'I' for Inactive)
REMARK    1  A    between atoms: C_4  and  C_13
REMARK    2  A    between atoms: C_8  and  O_14
REMARK                            x       y       z     vdW  Elec       q    Type
REMARK                         _______ _______ _______ _____ _____    ______ ____
ROOT
ATOM      1  N   UNL     1      34.953 -24.626 -13.832  0.00  0.00    +0.389 N 
ATOM      2  C   UNL     1      35.720 -23.415 -13.312  0.00  0.00    -0.045 C 
ATOM      3  C   UNL     1      36.006 -25.344 -14.653  0.00  0.00    -0.056 C 
ATOM      4  C   UNL     1      36.675 -23.910 -12.209  0.00  0.00    +0.111 C 
ATOM      5  C   UNL     1      36.474 -22.946 -14.561  0.00  0.00    -0.022 C 
ATOM      6  C   UNL     1      36.671 -24.201 -15.422  0.00  0.00    -0.023 C 
ATOM      7  C   UNL     1      36.945 -26.020 -13.641  0.00  0.00    +0.009 C 
ATOM      8  C   UNL     1      37.628 -25.009 -12.708  0.00  0.00    +0.117 C 
ATOM      9  C   UNL     1      33.689 -24.299 -14.572  0.00  0.00    -0.100 C 
ATOM     10  H   UNL     1      34.570 -25.205 -13.085  0.00  0.00    -0.080 HD
ENDROOT
BRANCH   4  13
ATOM     11  O   UNL     1      36.369 -24.047  -9.874  0.00  0.00    -0.246 OA
ATOM     12  O   UNL     1      34.807 -24.982 -11.259  0.00  0.00    -0.246 OA
ATOM     13  C   UNL     1      35.871 -24.357 -10.992  0.00  0.00    +0.365 C 
ENDBRANCH   4  13
BRANCH   8  14
ATOM     14  O   UNL     1      38.262 -25.700 -11.639  0.00  0.00    -0.384 OA
ATOM     15  H   UNL     1      37.810 -26.545 -11.486  0.00  0.00    +0.210 HD
ENDBRANCH   8  14
TORSDOF 2
ENDMDL
MODEL 8
REMARK VINA RESULT:      -6.2      2.706      3.614
REMARK  Name = 40473221
REMARK  2 active torsions:
REMARK  status: ('A' for Active; 'I' for Inactive)
REMARK    1  A    between atoms: C_4  and  C_13
REMARK    2  A    between atoms: C_8  and  O_14
REMARK                            x       y       z     vdW  Elec       q    Type
REMARK                         _______ _______ _______ _____ _____    ______ ____
ROOT
ATOM      1  N   UNL     1      38.635 -25.308 -14.413  0.00  0.00    +0.389 N 
ATOM      2  C   UNL     1      37.953 -24.203 -13.615  0.00  0.00    -0.045 C 
ATOM      3  C   UNL     1      37.652 -26.454 -14.279  0.00  0.00    -0.056 C 
ATOM      4  C   UNL     1      36.771 -23.685 -14.455  0.00  0.00    +0.111 C 
ATOM      5  C   UNL     1      37.487 -24.950 -12.360  0.00  0.00    -0.022 C 
ATOM      6  C   UNL     1      37.278 -26.406 -12.796  0.00  0.00    -0.023 C 
ATOM      7  C   UNL     1      36.477 -26.118 -15.211  0.00  0.00    +0.009 C 
ATOM      8  C   UNL     1      35.783 -24.804 -14.828  0.00  0.00    +0.117 C 
ATOM      9  C   UNL     1      40.037 -25.624 -13.980  0.00  0.00    -0.100 C 
ATOM     10  H   UNL     1      38.809 -25.048 -15.384  0.00  0.00    -0.080 HD
ENDROOT
BRANCH   4  13
ATOM     11  O   UNL     1      36.442 -22.246 -16.294  0.00  0.00    -0.246 OA
ATOM     12  O   UNL     1      38.517 -23.137 -15.934  0.00  0.00    -0.246 OA
ATOM     13  C   UNL     1      37.294 -22.949 -15.684  0.00  0.00    +0.365 C 
ENDBRANCH   4  13
BRANCH   8  14
ATOM     14  O   UNL     1      34.894 -24.413 -15.868  0.00  0.00    -0.384 OA
ATOM     15  H   UNL     1      35.230 -24.736 -16.719  0.00  0.00    +0.210 HD
ENDBRANCH   8  14
TORSDOF 2
ENDMDL
MODEL 9
REMARK VINA RESULT:      -6.0      2.537      3.681
REMARK  Name = 40473221
REMARK  2 active torsions:
REMARK  status: ('A' for Active; 'I' for Inactive)
REMARK    1  A    between atoms: C_4  and  C_13
REMARK    2  A    between atoms: C_8  and  O_14
REMARK                            x       y       z     vdW  Elec       q    Type
REMARK                         _______ _______ _______ _____ _____    ______ ____
ROOT
ATOM      1  N   UNL     1      37.425 -23.574 -12.696  0.00  0.00    +0.389 N 
ATOM      2  C   UNL     1      36.141 -23.457 -13.510  0.00  0.00    -0.045 C 
ATOM      3  C   UNL     1      37.372 -25.013 -12.221  0.00  0.00    -0.056 C 
ATOM      4  C   UNL     1      36.356 -24.218 -14.831  0.00  0.00    +0.111 C 
ATOM      5  C   UNL     1      35.117 -24.150 -12.604  0.00  0.00    -0.022 C 
ATOM      6  C   UNL     1      35.915 -25.169 -11.779  0.00  0.00    -0.023 C 
ATOM      7  C   UNL     1      37.731 -25.877 -13.439  0.00  0.00    +0.009 C 
ATOM      8  C   UNL     1      36.747 -25.689 -14.603  0.00  0.00    +0.117 C 
ATOM      9  C   UNL     1      37.575 -22.554 -11.607  0.00  0.00    -0.100 C 
ATOM     10  H   UNL     1      38.261 -23.369 -13.242  0.00  0.00    -0.080 HD
ENDROOT
BRANCH   4  13
ATOM     11  O   UNL     1      38.583 -23.639 -15.351  0.00  0.00    -0.246 OA
ATOM     12  O   UNL     1      36.885 -22.803 -16.636  0.00  0.00    -0.246 OA
ATOM     13  C   UNL     1      37.377 -23.481 -15.691  0.00  0.00    +0.365 C 
ENDBRANCH   4  13
BRANCH   8  14
ATOM     14  O   UNL     1      37.273 -26.295 -15.777  0.00  0.00    -0.384 OA
ATOM     15  H   UNL     1      36.553 -26.710 -16.277  0.00  0.00    +0.210 HD
ENDBRANCH   8  14
TORSDOF 2
ENDMDL
