MODEL 1
REMARK VINA RESULT:      -8.1      0.000      0.000
REMARK  Name = 20299
REMARK  9 active torsions:
REMARK  status: ('A' for Active; 'I' for Inactive)
REMARK    1  A    between atoms: C_1  and  C_2
REMARK    2  A    between atoms: C_1  and  C_8
REMARK    3  A    between atoms: C_1  and  O_14
REMARK    4  A    between atoms: C_1  and  C_16
REMARK    5  A    between atoms: C_16  and  C_17
REMARK    6  A    between atoms: C_17  and  N_18
REMARK    7  A    between atoms: N_18  and  C_19
REMARK    8  A    between atoms: N_18  and  C_21
REMARK    9  A    between atoms: N_18  and  C_23
REMARK                            x       y       z     vdW  Elec       q    Type
REMARK                         _______ _______ _______ _____ _____    ______ ____
ROOT
ATOM      1  C   UNL     1      35.015 -23.406 -15.909  0.00  0.00    +0.105 C 
ENDROOT
BRANCH   1   2
ATOM      2  C   UNL     1      33.659 -23.035 -15.312  0.00  0.00    +0.029 C 
ATOM      3  C   UNL     1      33.452 -23.734 -13.961  0.00  0.00    +0.003 C 
ATOM      4  C   UNL     1      32.525 -23.383 -16.286  0.00  0.00    +0.003 C 
ATOM      5  C   UNL     1      32.081 -23.422 -13.369  0.00  0.00    +0.000 C 
ATOM      6  C   UNL     1      31.154 -23.070 -15.689  0.00  0.00    +0.000 C 
ATOM      7  C   UNL     1      30.956 -23.760 -14.343  0.00  0.00    +0.000 C 
ENDBRANCH   1   2
BRANCH   1   8
ATOM      8  C   UNL     1      35.235 -22.656 -17.228  0.00  0.00    +0.002 C 
ATOM      9  C   UNL     1      36.425 -21.993 -17.415  0.00  0.00    -0.002 C 
ATOM     10  C   UNL     1      34.234 -22.677 -18.170  0.00  0.00    -0.002 C 
ATOM     11  C   UNL     1      36.624 -21.310 -18.615  0.00  0.00    -0.000 C 
ATOM     12  C   UNL     1      34.433 -21.995 -19.369  0.00  0.00    -0.000 C 
ATOM     13  C   UNL     1      35.629 -21.311 -19.592  0.00  0.00    -0.000 C 
ENDBRANCH   1   8
BRANCH   1  14
ATOM     14  O   UNL     1      34.991 -24.823 -16.145  0.00  0.00    -0.383 OA
ATOM     15  H   UNL     1      35.760 -25.234 -15.720  0.00  0.00    +0.211 HD
ENDBRANCH   1  14
BRANCH   1  16
ATOM     16  C   UNL     1      36.149 -23.128 -14.885  0.00  0.00    +0.009 C 
BRANCH  16  17
ATOM     17  C   UNL     1      37.279 -24.156 -14.921  0.00  0.00    -0.070 C 
BRANCH  17  18
ATOM     18  N   UNL     1      37.623 -24.544 -13.530  0.00  0.00    +0.390 N 
BRANCH  18  19
ATOM     19  C   UNL     1      37.415 -23.366 -12.569  0.00  0.00    -0.073 C 
ATOM     20  C   UNL     1      36.605 -23.831 -11.379  0.00  0.00    -0.024 C 
ENDBRANCH  18  19
BRANCH  18  21
ATOM     21  C   UNL     1      36.740 -25.708 -13.057  0.00  0.00    -0.073 C 
ATOM     22  C   UNL     1      36.940 -26.892 -13.976  0.00  0.00    -0.024 C 
ENDBRANCH  18  21
BRANCH  18  23
ATOM     23  C   UNL     1      39.088 -24.987 -13.434  0.00  0.00    -0.073 C 
ATOM     24  C   UNL     1      39.693 -25.011 -14.821  0.00  0.00    -0.024 C 
ENDBRANCH  18  23
ENDBRANCH  17  18
ENDBRANCH  16  17
ENDBRANCH   1  16
TORSDOF 9
ENDMDL
MODEL 2
REMARK VINA RESULT:      -8.1     11.556     15.434
REMARK  Name = 20299
REMARK  9 active torsions:
REMARK  status: ('A' for Active; 'I' for Inactive)
REMARK    1  A    between atoms: C_1  and  C_2
REMARK    2  A    between atoms: C_1  and  C_8
REMARK    3  A    between atoms: C_1  and  O_14
REMARK    4  A    between atoms: C_1  and  C_16
REMARK    5  A    between atoms: C_16  and  C_17
REMARK    6  A    between atoms: C_17  and  N_18
REMARK    7  A    between atoms: N_18  and  C_19
REMARK    8  A    between atoms: N_18  and  C_21
REMARK    9  A    between atoms: N_18  and  C_23
REMARK                            x       y       z     vdW  Elec       q    Type
REMARK                         _______ _______ _______ _____ _____    ______ ____
ROOT
ATOM      1  C   UNL     1      32.885 -12.750 -23.260  0.00  0.00    +0.105 C 
ENDROOT
BRANCH   1   2
ATOM      2  C   UNL     1      33.499 -13.146 -24.601  0.00  0.00    +0.029 C 
ATOM      3  C   UNL     1      33.632 -11.923 -25.518  0.00  0.00    +0.003 C 
ATOM      4  C   UNL     1      32.667 -14.246 -25.274  0.00  0.00    +0.003 C 
ATOM      5  C   UNL     1      34.194 -12.302 -26.886  0.00  0.00    +0.000 C 
ATOM      6  C   UNL     1      33.232 -14.622 -26.642  0.00  0.00    +0.000 C 
ATOM      7  C   UNL     1      33.370 -13.402 -27.548  0.00  0.00    +0.000 C 
ENDBRANCH   1   2
BRANCH   1   8
ATOM      8  C   UNL     1      33.263 -13.773 -22.183  0.00  0.00    +0.002 C 
ATOM      9  C   UNL     1      32.390 -13.982 -21.141  0.00  0.00    -0.002 C 
ATOM     10  C   UNL     1      34.459 -14.440 -22.302  0.00  0.00    -0.002 C 
ATOM     11  C   UNL     1      32.735 -14.913 -20.161  0.00  0.00    -0.000 C 
ATOM     12  C   UNL     1      34.804 -15.371 -21.322  0.00  0.00    -0.000 C 
ATOM     13  C   UNL     1      33.941 -15.608 -20.252  0.00  0.00    -0.000 C 
ENDBRANCH   1   8
BRANCH   1  14
ATOM     14  O   UNL     1      31.461 -12.731 -23.445  0.00  0.00    -0.383 OA
ATOM     15  H   UNL     1      31.178 -13.559 -23.862  0.00  0.00    +0.211 HD
ENDBRANCH   1  14
BRANCH   1  16
ATOM     16  C   UNL     1      33.318 -11.310 -22.873  0.00  0.00    +0.009 C 
BRANCH  16  17
ATOM     17  C   UNL     1      32.169 -10.428 -22.387  0.00  0.00    -0.070 C 
BRANCH  17  18
ATOM     18  N   UNL     1      32.461  -9.016 -22.741  0.00  0.00    +0.390 N 
BRANCH  18  19
ATOM     19  C   UNL     1      32.610  -8.158 -21.478  0.00  0.00    -0.073 C 
ATOM     20  C   UNL     1      32.216  -8.977 -20.268  0.00  0.00    -0.024 C 
ENDBRANCH  18  19
BRANCH  18  21
ATOM     21  C   UNL     1      33.767  -8.916 -23.543  0.00  0.00    -0.073 C 
ATOM     22  C   UNL     1      34.527  -7.683 -23.106  0.00  0.00    -0.024 C 
ENDBRANCH  18  21
BRANCH  18  23
ATOM     23  C   UNL     1      31.331  -8.422 -23.592  0.00  0.00    -0.073 C 
ATOM     24  C   UNL     1      31.007  -7.032 -23.089  0.00  0.00    -0.024 C 
ENDBRANCH  18  23
ENDBRANCH  17  18
ENDBRANCH  16  17
ENDBRANCH   1  16
TORSDOF 9
ENDMDL
MODEL 3
REMARK VINA RESULT:      -8.1      0.041      2.008
REMARK  Name = 20299
REMARK  9 active torsions:
REMARK  status: ('A' for Active; 'I' for Inactive)
REMARK    1  A    between atoms: C_1  and  C_2
REMARK    2  A    between atoms: C_1  and  C_8
REMARK    3  A    between atoms: C_1  and  O_14
REMARK    4  A    between atoms: C_1  and  C_16
REMARK    5  A    between atoms: C_16  and  C_17
REMARK    6  A    between atoms: C_17  and  N_18
REMARK    7  A    between atoms: N_18  and  C_19
REMARK    8  A    between atoms: N_18  and  C_21
REMARK    9  A    between atoms: N_18  and  C_23
REMARK                            x       y       z     vdW  Elec       q    Type
REMARK                         _______ _______ _______ _____ _____    ______ ____
ROOT
ATOM      1  C   UNL     1      35.039 -23.417 -15.901  0.00  0.00    +0.105 C 
ENDROOT
BRANCH   1   2
ATOM      2  C   UNL     1      33.691 -23.046 -15.285  0.00  0.00    +0.029 C 
ATOM      3  C   UNL     1      33.497 -23.756 -13.938  0.00  0.00    +0.003 C 
ATOM      4  C   UNL     1      32.545 -23.380 -16.249  0.00  0.00    +0.003 C 
ATOM      5  C   UNL     1      32.134 -23.443 -13.327  0.00  0.00    +0.000 C 
ATOM      6  C   UNL     1      31.183 -23.066 -15.634  0.00  0.00    +0.000 C 
ATOM      7  C   UNL     1      30.997 -23.767 -14.291  0.00  0.00    +0.000 C 
ENDBRANCH   1   2
BRANCH   1   8
ATOM      8  C   UNL     1      35.239 -22.669 -17.224  0.00  0.00    +0.002 C 
ATOM      9  C   UNL     1      34.230 -22.704 -18.158  0.00  0.00    -0.002 C 
ATOM     10  C   UNL     1      36.419 -21.992 -17.423  0.00  0.00    -0.002 C 
ATOM     11  C   UNL     1      34.413 -22.024 -19.361  0.00  0.00    -0.000 C 
ATOM     12  C   UNL     1      36.601 -21.311 -18.627  0.00  0.00    -0.000 C 
ATOM     13  C   UNL     1      35.598 -21.327 -19.595  0.00  0.00    -0.000 C 
ENDBRANCH   1   8
BRANCH   1  14
ATOM     14  O   UNL     1      35.012 -24.834 -16.134  0.00  0.00    -0.383 OA
ATOM     15  H   UNL     1      34.868 -25.297 -15.294  0.00  0.00    +0.211 HD
ENDBRANCH   1  14
BRANCH   1  16
ATOM     16  C   UNL     1      36.187 -23.137 -14.894  0.00  0.00    +0.009 C 
BRANCH  16  17
ATOM     17  C   UNL     1      37.291 -24.193 -14.907  0.00  0.00    -0.070 C 
BRANCH  17  18
ATOM     18  N   UNL     1      37.632 -24.551 -13.507  0.00  0.00    +0.390 N 
BRANCH  18  19
ATOM     19  C   UNL     1      39.105 -24.967 -13.394  0.00  0.00    -0.073 C 
ATOM     20  C   UNL     1      39.712 -25.033 -14.779  0.00  0.00    -0.024 C 
ENDBRANCH  18  19
BRANCH  18  21
ATOM     21  C   UNL     1      37.400 -23.358 -12.569  0.00  0.00    -0.073 C 
ATOM     22  C   UNL     1      36.609 -23.818 -11.364  0.00  0.00    -0.024 C 
ENDBRANCH  18  21
BRANCH  18  23
ATOM     23  C   UNL     1      36.767 -25.720 -13.017  0.00  0.00    -0.073 C 
ATOM     24  C   UNL     1      36.941 -26.896 -13.953  0.00  0.00    -0.024 C 
ENDBRANCH  18  23
ENDBRANCH  17  18
ENDBRANCH  16  17
ENDBRANCH   1  16
TORSDOF 9
ENDMDL
MODEL 4
REMARK VINA RESULT:      -8.1     11.550     15.379
REMARK  Name = 20299
REMARK  9 active torsions:
REMARK  status: ('A' for Active; 'I' for Inactive)
REMARK    1  A    between atoms: C_1  and  C_2
REMARK    2  A    between atoms: C_1  and  C_8
REMARK    3  A    between atoms: C_1  and  O_14
REMARK    4  A    between atoms: C_1  and  C_16
REMARK    5  A    between atoms: C_16  and  C_17
REMARK    6  A    between atoms: C_17  and  N_18
REMARK    7  A    between atoms: N_18  and  C_19
REMARK    8  A    between atoms: N_18  and  C_21
REMARK    9  A    between atoms: N_18  and  C_23
REMARK                            x       y       z     vdW  Elec       q    Type
REMARK                         _______ _______ _______ _____ _____    ______ ____
ROOT
ATOM      1  C   UNL     1      32.883 -12.754 -23.255  0.00  0.00    +0.105 C 
ENDROOT
BRANCH   1   2
ATOM      2  C   UNL     1      33.499 -13.149 -24.596  0.00  0.00    +0.029 C 
ATOM      3  C   UNL     1      33.632 -11.926 -25.513  0.00  0.00    +0.003 C 
ATOM      4  C   UNL     1      32.667 -14.249 -25.270  0.00  0.00    +0.003 C 
ATOM      5  C   UNL     1      34.195 -12.304 -26.880  0.00  0.00    +0.000 C 
ATOM      6  C   UNL     1      33.234 -14.624 -26.638  0.00  0.00    +0.000 C 
ATOM      7  C   UNL     1      33.372 -13.404 -27.543  0.00  0.00    +0.000 C 
ENDBRANCH   1   2
BRANCH   1   8
ATOM      8  C   UNL     1      33.260 -13.777 -22.179  0.00  0.00    +0.002 C 
ATOM      9  C   UNL     1      34.461 -14.438 -22.292  0.00  0.00    -0.002 C 
ATOM     10  C   UNL     1      32.383 -13.994 -21.142  0.00  0.00    -0.002 C 
ATOM     11  C   UNL     1      34.803 -15.370 -21.313  0.00  0.00    -0.000 C 
ATOM     12  C   UNL     1      32.725 -14.925 -20.163  0.00  0.00    -0.000 C 
ATOM     13  C   UNL     1      33.936 -15.613 -20.248  0.00  0.00    -0.000 C 
ENDBRANCH   1   8
BRANCH   1  14
ATOM     14  O   UNL     1      31.459 -12.734 -23.442  0.00  0.00    -0.383 OA
ATOM     15  H   UNL     1      31.077 -13.557 -23.099  0.00  0.00    +0.211 HD
ENDBRANCH   1  14
BRANCH   1  16
ATOM     16  C   UNL     1      33.317 -11.314 -22.867  0.00  0.00    +0.009 C 
BRANCH  16  17
ATOM     17  C   UNL     1      32.169 -10.437 -22.368  0.00  0.00    -0.070 C 
BRANCH  17  18
ATOM     18  N   UNL     1      32.452  -9.024 -22.726  0.00  0.00    +0.390 N 
BRANCH  18  19
ATOM     19  C   UNL     1      31.309  -8.435 -23.563  0.00  0.00    -0.073 C 
ATOM     20  C   UNL     1      31.009  -7.032 -23.081  0.00  0.00    -0.024 C 
ENDBRANCH  18  19
BRANCH  18  21
ATOM     21  C   UNL     1      32.610  -8.165 -21.464  0.00  0.00    -0.073 C 
ATOM     22  C   UNL     1      32.221  -8.983 -20.252  0.00  0.00    -0.024 C 
ENDBRANCH  18  21
BRANCH  18  23
ATOM     23  C   UNL     1      33.747  -8.917 -23.542  0.00  0.00    -0.073 C 
ATOM     24  C   UNL     1      34.518  -7.694 -23.094  0.00  0.00    -0.024 C 
ENDBRANCH  18  23
ENDBRANCH  17  18
ENDBRANCH  16  17
ENDBRANCH   1  16
TORSDOF 9
ENDMDL
MODEL 5
REMARK VINA RESULT:      -8.1     11.547     15.443
REMARK  Name = 20299
REMARK  9 active torsions:
REMARK  status: ('A' for Active; 'I' for Inactive)
REMARK    1  A    between atoms: C_1  and  C_2
REMARK    2  A    between atoms: C_1  and  C_8
REMARK    3  A    between atoms: C_1  and  O_14
REMARK    4  A    between atoms: C_1  and  C_16
REMARK    5  A    between atoms: C_16  and  C_17
REMARK    6  A    between atoms: C_17  and  N_18
REMARK    7  A    between atoms: N_18  and  C_19
REMARK    8  A    between atoms: N_18  and  C_21
REMARK    9  A    between atoms: N_18  and  C_23
REMARK                            x       y       z     vdW  Elec       q    Type
REMARK                         _______ _______ _______ _____ _____    ______ ____
ROOT
ATOM      1  C   UNL     1      32.889 -12.754 -23.256  0.00  0.00    +0.105 C 
ENDROOT
BRANCH   1   2
ATOM      2  C   UNL     1      33.500 -13.154 -24.598  0.00  0.00    +0.029 C 
ATOM      3  C   UNL     1      33.621 -11.934 -25.522  0.00  0.00    +0.003 C 
ATOM      4  C   UNL     1      32.673 -14.262 -25.262  0.00  0.00    +0.003 C 
ATOM      5  C   UNL     1      34.181 -12.317 -26.890  0.00  0.00    +0.000 C 
ATOM      6  C   UNL     1      33.235 -14.642 -26.630  0.00  0.00    +0.000 C 
ATOM      7  C   UNL     1      33.361 -13.426 -27.543  0.00  0.00    +0.000 C 
ENDBRANCH   1   2
BRANCH   1   8
ATOM      8  C   UNL     1      33.265 -13.777 -22.179  0.00  0.00    +0.002 C 
ATOM      9  C   UNL     1      32.385 -13.996 -21.145  0.00  0.00    -0.002 C 
ATOM     10  C   UNL     1      34.468 -14.434 -22.289  0.00  0.00    -0.002 C 
ATOM     11  C   UNL     1      32.729 -14.927 -20.164  0.00  0.00    -0.000 C 
ATOM     12  C   UNL     1      34.811 -15.365 -21.309  0.00  0.00    -0.000 C 
ATOM     13  C   UNL     1      33.941 -15.611 -20.247  0.00  0.00    -0.000 C 
ENDBRANCH   1   8
BRANCH   1  14
ATOM     14  O   UNL     1      31.464 -12.732 -23.440  0.00  0.00    -0.383 OA
ATOM     15  H   UNL     1      31.109 -13.626 -23.323  0.00  0.00    +0.211 HD
ENDBRANCH   1  14
BRANCH   1  16
ATOM     16  C   UNL     1      33.326 -11.315 -22.871  0.00  0.00    +0.009 C 
BRANCH  16  17
ATOM     17  C   UNL     1      32.185 -10.439 -22.356  0.00  0.00    -0.070 C 
BRANCH  17  18
ATOM     18  N   UNL     1      32.455  -9.028 -22.728  0.00  0.00    +0.390 N 
BRANCH  18  19
ATOM     19  C   UNL     1      33.748  -8.917 -23.547  0.00  0.00    -0.073 C 
ATOM     20  C   UNL     1      34.522  -7.698 -23.094  0.00  0.00    -0.024 C 
ENDBRANCH  18  19
BRANCH  18  21
ATOM     21  C   UNL     1      31.305  -8.459 -23.572  0.00  0.00    -0.073 C 
ATOM     22  C   UNL     1      30.991  -7.054 -23.105  0.00  0.00    -0.024 C 
ENDBRANCH  18  21
BRANCH  18  23
ATOM     23  C   UNL     1      32.605  -8.154 -21.476  0.00  0.00    -0.073 C 
ATOM     24  C   UNL     1      32.223  -8.962 -20.255  0.00  0.00    -0.024 C 
ENDBRANCH  18  23
ENDBRANCH  17  18
ENDBRANCH  16  17
ENDBRANCH   1  16
TORSDOF 9
ENDMDL
MODEL 6
REMARK VINA RESULT:      -8.1      0.056      1.751
REMARK  Name = 20299
REMARK  9 active torsions:
REMARK  status: ('A' for Active; 'I' for Inactive)
REMARK    1  A    between atoms: C_1  and  C_2
REMARK    2  A    between atoms: C_1  and  C_8
REMARK    3  A    between atoms: C_1  and  O_14
REMARK    4  A    between atoms: C_1  and  C_16
REMARK    5  A    between atoms: C_16  and  C_17
REMARK    6  A    between atoms: C_17  and  N_18
REMARK    7  A    between atoms: N_18  and  C_19
REMARK    8  A    between atoms: N_18  and  C_21
REMARK    9  A    between atoms: N_18  and  C_23
REMARK                            x       y       z     vdW  Elec       q    Type
REMARK                         _______ _______ _______ _____ _____    ______ ____
ROOT
ATOM      1  C   UNL     1      35.032 -23.431 -15.895  0.00  0.00    +0.105 C 
ENDROOT
BRANCH   1   2
ATOM      2  C   UNL     1      33.687 -23.058 -15.275  0.00  0.00    +0.029 C 
ATOM      3  C   UNL     1      33.491 -23.779 -13.934  0.00  0.00    +0.003 C 
ATOM      4  C   UNL     1      32.538 -23.378 -16.240  0.00  0.00    +0.003 C 
ATOM      5  C   UNL     1      32.130 -23.464 -13.318  0.00  0.00    +0.000 C 
ATOM      6  C   UNL     1      31.178 -23.063 -15.620  0.00  0.00    +0.000 C 
ATOM      7  C   UNL     1      30.990 -23.775 -14.284  0.00  0.00    +0.000 C 
ENDBRANCH   1   2
BRANCH   1   8
ATOM      8  C   UNL     1      35.232 -22.678 -17.215  0.00  0.00    +0.002 C 
ATOM      9  C   UNL     1      36.415 -22.007 -17.417  0.00  0.00    -0.002 C 
ATOM     10  C   UNL     1      34.219 -22.704 -18.145  0.00  0.00    -0.002 C 
ATOM     11  C   UNL     1      36.596 -21.322 -18.618  0.00  0.00    -0.000 C 
ATOM     12  C   UNL     1      34.400 -22.020 -19.347  0.00  0.00    -0.000 C 
ATOM     13  C   UNL     1      35.589 -21.329 -19.583  0.00  0.00    -0.000 C 
ENDBRANCH   1   8
BRANCH   1  14
ATOM     14  O   UNL     1      35.001 -24.847 -16.134  0.00  0.00    -0.383 OA
ATOM     15  H   UNL     1      35.896 -25.161 -16.336  0.00  0.00    +0.211 HD
ENDBRANCH   1  14
BRANCH   1  16
ATOM     16  C   UNL     1      36.184 -23.158 -14.890  0.00  0.00    +0.009 C 
BRANCH  16  17
ATOM     17  C   UNL     1      37.295 -24.206 -14.925  0.00  0.00    -0.070 C 
BRANCH  17  18
ATOM     18  N   UNL     1      37.640 -24.590 -13.533  0.00  0.00    +0.390 N 
BRANCH  18  19
ATOM     19  C   UNL     1      36.789 -25.779 -13.069  0.00  0.00    -0.073 C 
ATOM     20  C   UNL     1      36.945 -26.918 -14.053  0.00  0.00    -0.024 C 
ENDBRANCH  18  19
BRANCH  18  21
ATOM     21  C   UNL     1      39.118 -24.993 -13.431  0.00  0.00    -0.073 C 
ATOM     22  C   UNL     1      39.734 -24.984 -14.813  0.00  0.00    -0.024 C 
ENDBRANCH  18  21
BRANCH  18  23
ATOM     23  C   UNL     1      37.396 -23.422 -12.569  0.00  0.00    -0.073 C 
ATOM     24  C   UNL     1      36.588 -23.912 -11.387  0.00  0.00    -0.024 C 
ENDBRANCH  18  23
ENDBRANCH  17  18
ENDBRANCH  16  17
ENDBRANCH   1  16
TORSDOF 9
ENDMDL
MODEL 7
REMARK VINA RESULT:      -7.7      1.831      5.312
REMARK  Name = 20299
REMARK  9 active torsions:
REMARK  status: ('A' for Active; 'I' for Inactive)
REMARK    1  A    between atoms: C_1  and  C_2
REMARK    2  A    between atoms: C_1  and  C_8
REMARK    3  A    between atoms: C_1  and  O_14
REMARK    4  A    between atoms: C_1  and  C_16
REMARK    5  A    between atoms: C_16  and  C_17
REMARK    6  A    between atoms: C_17  and  N_18
REMARK    7  A    between atoms: N_18  and  C_19
REMARK    8  A    between atoms: N_18  and  C_21
REMARK    9  A    between atoms: N_18  and  C_23
REMARK                            x       y       z     vdW  Elec       q    Type
REMARK                         _______ _______ _______ _____ _____    ______ ____
ROOT
ATOM      1  C   UNL     1      34.959 -23.394 -15.659  0.00  0.00    +0.105 C 
ENDROOT
BRANCH   1   2
ATOM      2  C   UNL     1      36.169 -24.212 -15.211  0.00  0.00    +0.029 C 
ATOM      3  C   UNL     1      35.860 -25.714 -15.272  0.00  0.00    +0.003 C 
ATOM      4  C   UNL     1      36.609 -23.802 -13.800  0.00  0.00    +0.003 C 
ATOM      5  C   UNL     1      37.036 -26.553 -14.778  0.00  0.00    +0.000 C 
ATOM      6  C   UNL     1      37.785 -24.643 -13.309  0.00  0.00    +0.000 C 
ATOM      7  C   UNL     1      37.476 -26.136 -13.378  0.00  0.00    +0.000 C 
ENDBRANCH   1   2
BRANCH   1   8
ATOM      8  C   UNL     1      35.256 -22.699 -16.992  0.00  0.00    +0.002 C 
ATOM      9  C   UNL     1      36.482 -22.099 -17.161  0.00  0.00    -0.002 C 
ATOM     10  C   UNL     1      34.285 -22.703 -17.965  0.00  0.00    -0.002 C 
ATOM     11  C   UNL     1      36.751 -21.465 -18.374  0.00  0.00    -0.000 C 
ATOM     12  C   UNL     1      34.555 -22.071 -19.178  0.00  0.00    -0.000 C 
ATOM     13  C   UNL     1      35.788 -21.452 -19.383  0.00  0.00    -0.000 C 
ENDBRANCH   1   8
BRANCH   1  14
ATOM     14  O   UNL     1      34.718 -22.416 -14.634  0.00  0.00    -0.383 OA
ATOM     15  H   UNL     1      35.018 -22.762 -13.780  0.00  0.00    +0.211 HD
ENDBRANCH   1  14
BRANCH   1  16
ATOM     16  C   UNL     1      33.699 -24.297 -15.740  0.00  0.00    +0.009 C 
BRANCH  16  17
ATOM     17  C   UNL     1      32.760 -24.157 -14.543  0.00  0.00    -0.070 C 
BRANCH  17  18
ATOM     18  N   UNL     1      31.372 -23.978 -15.036  0.00  0.00    +0.390 N 
BRANCH  18  19
ATOM     19  C   UNL     1      30.717 -25.335 -15.327  0.00  0.00    -0.073 C 
ATOM     20  C   UNL     1      29.396 -25.419 -14.595  0.00  0.00    -0.024 C 
ENDBRANCH  18  19
BRANCH  18  21
ATOM     21  C   UNL     1      30.514 -23.249 -13.992  0.00  0.00    -0.073 C 
ATOM     22  C   UNL     1      31.387 -22.844 -12.825  0.00  0.00    -0.024 C 
ENDBRANCH  18  21
BRANCH  18  23
ATOM     23  C   UNL     1      31.355 -23.152 -16.329  0.00  0.00    -0.073 C 
ATOM     24  C   UNL     1      29.967 -22.588 -16.542  0.00  0.00    -0.024 C 
ENDBRANCH  18  23
ENDBRANCH  17  18
ENDBRANCH  16  17
ENDBRANCH   1  16
TORSDOF 9
ENDMDL
MODEL 8
REMARK VINA RESULT:      -7.5      1.206      3.989
REMARK  Name = 20299
REMARK  9 active torsions:
REMARK  status: ('A' for Active; 'I' for Inactive)
REMARK    1  A    between atoms: C_1  and  C_2
REMARK    2  A    between atoms: C_1  and  C_8
REMARK    3  A    between atoms: C_1  and  O_14
REMARK    4  A    between atoms: C_1  and  C_16
REMARK    5  A    between atoms: C_16  and  C_17
REMARK    6  A    between atoms: C_17  and  N_18
REMARK    7  A    between atoms: N_18  and  C_19
REMARK    8  A    between atoms: N_18  and  C_21
REMARK    9  A    between atoms: N_18  and  C_23
REMARK                            x       y       z     vdW  Elec       q    Type
REMARK                         _______ _______ _______ _____ _____    ______ ____
ROOT
ATOM      1  C   UNL     1      34.632 -23.404 -15.210  0.00  0.00    +0.105 C 
ENDROOT
BRANCH   1   2
ATOM      2  C   UNL     1      34.764 -23.282 -16.727  0.00  0.00    +0.029 C 
ATOM      3  C   UNL     1      35.722 -22.141 -17.097  0.00  0.00    +0.003 C 
ATOM      4  C   UNL     1      33.390 -23.072 -17.376  0.00  0.00    +0.003 C 
ATOM      5  C   UNL     1      35.831 -21.963 -18.609  0.00  0.00    +0.000 C 
ATOM      6  C   UNL     1      33.502 -22.894 -18.888  0.00  0.00    +0.000 C 
ATOM      7  C   UNL     1      34.461 -21.765 -19.252  0.00  0.00    +0.000 C 
ENDBRANCH   1   2
BRANCH   1   8
ATOM      8  C   UNL     1      33.165 -23.626 -14.824  0.00  0.00    +0.002 C 
ATOM      9  C   UNL     1      32.790 -24.862 -14.351  0.00  0.00    -0.002 C 
ATOM     10  C   UNL     1      32.283 -22.581 -14.966  0.00  0.00    -0.002 C 
ATOM     11  C   UNL     1      31.455 -25.063 -14.001  0.00  0.00    -0.000 C 
ATOM     12  C   UNL     1      30.949 -22.782 -14.615  0.00  0.00    -0.000 C 
ATOM     13  C   UNL     1      30.535 -24.023 -14.132  0.00  0.00    -0.000 C 
ENDBRANCH   1   8
BRANCH   1  14
ATOM     14  O   UNL     1      35.109 -22.170 -14.651  0.00  0.00    -0.383 OA
ATOM     15  H   UNL     1      35.146 -21.494 -15.345  0.00  0.00    +0.211 HD
ENDBRANCH   1  14
BRANCH   1  16
ATOM     16  C   UNL     1      35.551 -24.537 -14.678  0.00  0.00    +0.009 C 
BRANCH  16  17
ATOM     17  C   UNL     1      36.921 -24.050 -14.209  0.00  0.00    -0.070 C 
BRANCH  17  18
ATOM     18  N   UNL     1      37.774 -25.228 -13.909  0.00  0.00    +0.390 N 
BRANCH  18  19
ATOM     19  C   UNL     1      38.329 -25.149 -12.480  0.00  0.00    -0.073 C 
ATOM     20  C   UNL     1      37.959 -23.813 -11.874  0.00  0.00    -0.024 C 
ENDBRANCH  18  19
BRANCH  18  21
ATOM     21  C   UNL     1      36.970 -26.529 -14.037  0.00  0.00    -0.073 C 
ATOM     22  C   UNL     1      37.116 -27.069 -15.443  0.00  0.00    -0.024 C 
ENDBRANCH  18  21
BRANCH  18  23
ATOM     23  C   UNL     1      38.961 -25.303 -14.879  0.00  0.00    -0.073 C 
ATOM     24  C   UNL     1      40.213 -25.659 -14.107  0.00  0.00    -0.024 C 
ENDBRANCH  18  23
ENDBRANCH  17  18
ENDBRANCH  16  17
ENDBRANCH   1  16
TORSDOF 9
ENDMDL
MODEL 9
REMARK VINA RESULT:      -7.4      1.170      4.295
REMARK  Name = 20299
REMARK  9 active torsions:
REMARK  status: ('A' for Active; 'I' for Inactive)
REMARK    1  A    between atoms: C_1  and  C_2
REMARK    2  A    between atoms: C_1  and  C_8
REMARK    3  A    between atoms: C_1  and  O_14
REMARK    4  A    between atoms: C_1  and  C_16
REMARK    5  A    between atoms: C_16  and  C_17
REMARK    6  A    between atoms: C_17  and  N_18
REMARK    7  A    between atoms: N_18  and  C_19
REMARK    8  A    between atoms: N_18  and  C_21
REMARK    9  A    between atoms: N_18  and  C_23
REMARK                            x       y       z     vdW  Elec       q    Type
REMARK                         _______ _______ _______ _____ _____    ______ ____
ROOT
ATOM      1  C   UNL     1      34.675 -23.348 -15.237  0.00  0.00    +0.105 C 
ENDROOT
BRANCH   1   2
ATOM      2  C   UNL     1      34.776 -23.241 -16.758  0.00  0.00    +0.029 C 
ATOM      3  C   UNL     1      35.740 -22.116 -17.159  0.00  0.00    +0.003 C 
ATOM      4  C   UNL     1      33.390 -23.019 -17.378  0.00  0.00    +0.003 C 
ATOM      5  C   UNL     1      35.817 -21.953 -18.675  0.00  0.00    +0.000 C 
ATOM      6  C   UNL     1      33.471 -22.856 -18.894  0.00  0.00    +0.000 C 
ATOM      7  C   UNL     1      34.437 -21.742 -19.289  0.00  0.00    +0.000 C 
ENDBRANCH   1   2
BRANCH   1   8
ATOM      8  C   UNL     1      33.224 -23.610 -14.821  0.00  0.00    +0.002 C 
ATOM      9  C   UNL     1      32.303 -22.600 -14.978  0.00  0.00    -0.002 C 
ATOM     10  C   UNL     1      32.900 -24.844 -14.308  0.00  0.00    -0.002 C 
ATOM     11  C   UNL     1      30.983 -22.839 -14.598  0.00  0.00    -0.000 C 
ATOM     12  C   UNL     1      31.579 -25.083 -13.930  0.00  0.00    -0.000 C 
ATOM     13  C   UNL     1      30.620 -24.080 -14.075  0.00  0.00    -0.000 C 
ENDBRANCH   1   8
BRANCH   1  14
ATOM     14  O   UNL     1      35.124 -22.093 -14.703  0.00  0.00    -0.383 OA
ATOM     15  H   UNL     1      35.054 -22.110 -13.735  0.00  0.00    +0.211 HD
ENDBRANCH   1  14
BRANCH   1  16
ATOM     16  C   UNL     1      35.639 -24.445 -14.709  0.00  0.00    +0.009 C 
BRANCH  16  17
ATOM     17  C   UNL     1      37.016 -23.916 -14.309  0.00  0.00    -0.070 C 
BRANCH  17  18
ATOM     18  N   UNL     1      37.838 -25.045 -13.805  0.00  0.00    +0.390 N 
BRANCH  18  19
ATOM     19  C   UNL     1      36.986 -26.310 -13.643  0.00  0.00    -0.073 C 
ATOM     20  C   UNL     1      37.202 -27.214 -14.837  0.00  0.00    -0.024 C 
ENDBRANCH  18  19
BRANCH  18  21
ATOM     21  C   UNL     1      38.982 -25.361 -14.780  0.00  0.00    -0.073 C 
ATOM     22  C   UNL     1      40.279 -25.471 -14.009  0.00  0.00    -0.024 C 
ENDBRANCH  18  21
BRANCH  18  23
ATOM     23  C   UNL     1      38.454 -24.704 -12.442  0.00  0.00    -0.073 C 
ATOM     24  C   UNL     1      37.823 -23.434 -11.913  0.00  0.00    -0.024 C 
ENDBRANCH  18  23
ENDBRANCH  17  18
ENDBRANCH  16  17
ENDBRANCH   1  16
TORSDOF 9
ENDMDL
