MODEL 1
REMARK VINA RESULT:      -8.6      0.000      0.000
REMARK  Name = 13945
REMARK  7 active torsions:
REMARK  status: ('A' for Active; 'I' for Inactive)
REMARK    1  A    between atoms: C_2  and  O_16
REMARK    2  A    between atoms: C_3  and  C_18
REMARK    3  A    between atoms: C_5  and  N_7
REMARK    4  A    between atoms: C_18  and  O_19
REMARK    5  A    between atoms: O_19  and  P_20
REMARK    6  A    between atoms: P_20  and  O_22
REMARK    7  A    between atoms: P_20  and  O_24
REMARK                            x       y       z     vdW  Elec       q    Type
REMARK                         _______ _______ _______ _____ _____    ______ ____
ROOT
ATOM      1  O   UNL     1      35.755 -24.942 -15.881  0.00  0.00    -0.334 OA
ATOM      2  C   UNL     1      37.292 -23.571 -14.708  0.00  0.00    +0.144 C 
ATOM      3  C   UNL     1      36.686 -24.964 -14.781  0.00  0.00    +0.174 C 
ATOM      4  C   UNL     1      36.191 -22.688 -15.249  0.00  0.00    +0.084 C 
ATOM      5  C   UNL     1      35.531 -23.584 -16.285  0.00  0.00    +0.209 C 
ENDROOT
BRANCH   5   7
ATOM      6  O   UNL     1      34.183 -23.000 -18.687  0.00  0.00    -0.193 OA
ATOM      7  N   UNL     1      34.122 -23.351 -16.406  0.00  0.00    -0.180 N 
ATOM      8  N   UNL     1      32.147 -22.848 -17.695  0.00  0.00    -0.306 NA
ATOM      9  N   UNL     1      30.064 -22.692 -16.673  0.00  0.00    -0.332 N 
ATOM     10  C   UNL     1      33.340 -23.411 -15.265  0.00  0.00    +0.083 C 
ATOM     11  C   UNL     1      33.514 -23.062 -17.653  0.00  0.00    +0.275 C 
ATOM     12  C   UNL     1      32.024 -23.207 -15.284  0.00  0.00    +0.065 C 
ATOM     13  C   UNL     1      31.421 -22.908 -16.609  0.00  0.00    +0.193 C 
ATOM     14  H   UNL     1      29.637 -22.492 -17.537  0.00  0.00    +0.145 HD
ATOM     15  H   UNL     1      29.520 -22.737 -15.854  0.00  0.00    +0.145 HD
ENDBRANCH   5   7
BRANCH   2  16
ATOM     16  O   UNL     1      38.432 -23.492 -15.562  0.00  0.00    -0.382 OA
ATOM     17  H   UNL     1      38.767 -22.581 -15.569  0.00  0.00    +0.210 HD
ENDBRANCH   2  16
BRANCH   3  18
ATOM     18  C   UNL     1      35.914 -25.341 -13.523  0.00  0.00    +0.186 C 
BRANCH  18  19
ATOM     19  O   UNL     1      36.692 -24.994 -12.388  0.00  0.00    -0.271 OA
BRANCH  19  20
ATOM     20  P   UNL     1      36.030 -24.038 -11.262  0.00  0.00    +0.473 P 
ATOM     21  O   UNL     1      36.962 -23.027 -10.662  0.00  0.00    -0.227 OA
BRANCH  20  22
ATOM     22  O   UNL     1      35.371 -25.080 -10.215  0.00  0.00    -0.303 OA
ATOM     23  H   UNL     1      35.715 -25.970 -10.383  0.00  0.00    +0.222 HD
ENDBRANCH  20  22
BRANCH  20  24
ATOM     24  O   UNL     1      34.747 -23.417 -12.026  0.00  0.00    -0.303 OA
ATOM     25  H   UNL     1      34.465 -22.605 -11.576  0.00  0.00    +0.222 HD
ENDBRANCH  20  24
ENDBRANCH  19  20
ENDBRANCH  18  19
ENDBRANCH   3  18
TORSDOF 7
ENDMDL
MODEL 2
REMARK VINA RESULT:      -8.3      2.376      3.832
REMARK  Name = 13945
REMARK  7 active torsions:
REMARK  status: ('A' for Active; 'I' for Inactive)
REMARK    1  A    between atoms: C_2  and  O_16
REMARK    2  A    between atoms: C_3  and  C_18
REMARK    3  A    between atoms: C_5  and  N_7
REMARK    4  A    between atoms: C_18  and  O_19
REMARK    5  A    between atoms: O_19  and  P_20
REMARK    6  A    between atoms: P_20  and  O_22
REMARK    7  A    between atoms: P_20  and  O_24
REMARK                            x       y       z     vdW  Elec       q    Type
REMARK                         _______ _______ _______ _____ _____    ______ ____
ROOT
ATOM      1  O   UNL     1      35.928 -22.935 -14.452  0.00  0.00    -0.334 OA
ATOM      2  C   UNL     1      36.022 -25.162 -13.644  0.00  0.00    +0.144 C 
ATOM      3  C   UNL     1      36.849 -23.919 -13.941  0.00  0.00    +0.174 C 
ATOM      4  C   UNL     1      34.894 -25.071 -14.647  0.00  0.00    +0.084 C 
ATOM      5  C   UNL     1      34.681 -23.570 -14.766  0.00  0.00    +0.209 C 
ENDROOT
BRANCH   5   7
ATOM      6  O   UNL     1      32.037 -23.675 -15.726  0.00  0.00    -0.193 OA
ATOM      7  N   UNL     1      34.262 -23.170 -16.077  0.00  0.00    -0.180 N 
ATOM      8  N   UNL     1      32.575 -22.848 -17.771  0.00  0.00    -0.306 NA
ATOM      9  N   UNL     1      33.134 -22.002 -19.863  0.00  0.00    -0.332 N 
ATOM     10  C   UNL     1      35.215 -22.692 -16.961  0.00  0.00    +0.083 C 
ATOM     11  C   UNL     1      32.909 -23.253 -16.489  0.00  0.00    +0.275 C 
ATOM     12  C   UNL     1      34.915 -22.300 -18.198  0.00  0.00    +0.065 C 
ATOM     13  C   UNL     1      33.486 -22.399 -18.594  0.00  0.00    +0.193 C 
ATOM     14  H   UNL     1      32.195 -22.056 -20.154  0.00  0.00    +0.145 HD
ATOM     15  H   UNL     1      33.821 -21.664 -20.482  0.00  0.00    +0.145 HD
ENDBRANCH   5   7
BRANCH   2  16
ATOM     16  O   UNL     1      35.494 -25.090 -12.321  0.00  0.00    -0.382 OA
ATOM     17  H   UNL     1      34.898 -24.328 -12.253  0.00  0.00    +0.210 HD
ENDBRANCH   2  16
BRANCH   3  18
ATOM     18  C   UNL     1      37.916 -24.157 -15.001  0.00  0.00    +0.186 C 
BRANCH  18  19
ATOM     19  O   UNL     1      39.142 -24.463 -14.356  0.00  0.00    -0.271 OA
BRANCH  19  20
ATOM     20  P   UNL     1      39.857 -25.875 -14.691  0.00  0.00    +0.473 P 
ATOM     21  O   UNL     1      40.966 -26.262 -13.756  0.00  0.00    -0.227 OA
BRANCH  20  22
ATOM     22  O   UNL     1      40.283 -25.731 -16.245  0.00  0.00    -0.303 OA
ATOM     23  H   UNL     1      41.127 -25.259 -16.307  0.00  0.00    +0.222 HD
ENDBRANCH  20  22
BRANCH  20  24
ATOM     24  O   UNL     1      38.613 -26.907 -14.740  0.00  0.00    -0.303 OA
ATOM     25  H   UNL     1      37.818 -26.472 -14.396  0.00  0.00    +0.222 HD
ENDBRANCH  20  24
ENDBRANCH  19  20
ENDBRANCH  18  19
ENDBRANCH   3  18
TORSDOF 7
ENDMDL
MODEL 3
REMARK VINA RESULT:      -8.3      4.211      6.396
REMARK  Name = 13945
REMARK  7 active torsions:
REMARK  status: ('A' for Active; 'I' for Inactive)
REMARK    1  A    between atoms: C_2  and  O_16
REMARK    2  A    between atoms: C_3  and  C_18
REMARK    3  A    between atoms: C_5  and  N_7
REMARK    4  A    between atoms: C_18  and  O_19
REMARK    5  A    between atoms: O_19  and  P_20
REMARK    6  A    between atoms: P_20  and  O_22
REMARK    7  A    between atoms: P_20  and  O_24
REMARK                            x       y       z     vdW  Elec       q    Type
REMARK                         _______ _______ _______ _____ _____    ______ ____
ROOT
ATOM      1  O   UNL     1      31.950 -24.894 -15.007  0.00  0.00    -0.334 OA
ATOM      2  C   UNL     1      30.467 -23.516 -13.774  0.00  0.00    +0.144 C 
ATOM      3  C   UNL     1      30.578 -24.804 -14.578  0.00  0.00    +0.174 C 
ATOM      4  C   UNL     1      31.526 -22.633 -14.394  0.00  0.00    +0.084 C 
ATOM      5  C   UNL     1      32.600 -23.635 -14.787  0.00  0.00    +0.209 C 
ENDROOT
BRANCH   5   7
ATOM      6  O   UNL     1      35.396 -23.378 -14.991  0.00  0.00    -0.193 OA
ATOM      7  N   UNL     1      33.311 -23.254 -15.972  0.00  0.00    -0.180 N 
ATOM      8  N   UNL     1      35.342 -22.772 -17.178  0.00  0.00    -0.306 NA
ATOM      9  N   UNL     1      35.280 -22.150 -19.417  0.00  0.00    -0.332 N 
ATOM     10  C   UNL     1      32.586 -22.982 -17.121  0.00  0.00    +0.083 C 
ATOM     11  C   UNL     1      34.723 -23.145 -15.997  0.00  0.00    +0.275 C 
ATOM     12  C   UNL     1      33.163 -22.620 -18.265  0.00  0.00    +0.065 C 
ATOM     13  C   UNL     1      34.646 -22.519 -18.255  0.00  0.00    +0.193 C 
ATOM     14  H   UNL     1      36.262 -22.074 -19.440  0.00  0.00    +0.145 HD
ATOM     15  H   UNL     1      34.753 -21.960 -20.227  0.00  0.00    +0.145 HD
ENDBRANCH   5   7
BRANCH   2  16
ATOM     16  O   UNL     1      30.791 -23.767 -12.408  0.00  0.00    -0.382 OA
ATOM     17  H   UNL     1      30.881 -22.922 -11.938  0.00  0.00    +0.210 HD
ENDBRANCH   2  16
BRANCH   3  18
ATOM     18  C   UNL     1      29.697 -24.804 -15.820  0.00  0.00    +0.186 C 
BRANCH  18  19
ATOM     19  O   UNL     1      28.493 -24.114 -15.528  0.00  0.00    -0.271 OA
BRANCH  19  20
ATOM     20  P   UNL     1      27.981 -22.982 -16.566  0.00  0.00    +0.473 P 
ATOM     21  O   UNL     1      29.004 -21.945 -16.927  0.00  0.00    -0.227 OA
BRANCH  20  22
ATOM     22  O   UNL     1      26.632 -22.414 -15.880  0.00  0.00    -0.303 OA
ATOM     23  H   UNL     1      25.862 -22.871 -16.251  0.00  0.00    +0.222 HD
ENDBRANCH  20  22
BRANCH  20  24
ATOM     24  O   UNL     1      27.427 -23.857 -17.808  0.00  0.00    -0.303 OA
ATOM     25  H   UNL     1      27.295 -24.774 -17.524  0.00  0.00    +0.222 HD
ENDBRANCH  20  24
ENDBRANCH  19  20
ENDBRANCH  18  19
ENDBRANCH   3  18
TORSDOF 7
ENDMDL
MODEL 4
REMARK VINA RESULT:      -8.2      2.444      3.960
REMARK  Name = 13945
REMARK  7 active torsions:
REMARK  status: ('A' for Active; 'I' for Inactive)
REMARK    1  A    between atoms: C_2  and  O_16
REMARK    2  A    between atoms: C_3  and  C_18
REMARK    3  A    between atoms: C_5  and  N_7
REMARK    4  A    between atoms: C_18  and  O_19
REMARK    5  A    between atoms: O_19  and  P_20
REMARK    6  A    between atoms: P_20  and  O_22
REMARK    7  A    between atoms: P_20  and  O_24
REMARK                            x       y       z     vdW  Elec       q    Type
REMARK                         _______ _______ _______ _____ _____    ______ ____
ROOT
ATOM      1  O   UNL     1      37.190 -23.462 -14.502  0.00  0.00    -0.334 OA
ATOM      2  C   UNL     1      36.262 -24.788 -12.770  0.00  0.00    +0.144 C 
ATOM      3  C   UNL     1      37.485 -24.590 -13.654  0.00  0.00    +0.174 C 
ATOM      4  C   UNL     1      35.129 -24.277 -13.631  0.00  0.00    +0.084 C 
ATOM      5  C   UNL     1      35.793 -23.153 -14.412  0.00  0.00    +0.209 C 
ENDROOT
BRANCH   5   7
ATOM      6  O   UNL     1      37.142 -21.987 -16.590  0.00  0.00    -0.193 OA
ATOM      7  N   UNL     1      35.255 -23.000 -15.731  0.00  0.00    -0.180 N 
ATOM      8  N   UNL     1      35.413 -22.286 -18.030  0.00  0.00    -0.306 NA
ATOM      9  N   UNL     1      33.638 -22.595 -19.499  0.00  0.00    -0.332 N 
ATOM     10  C   UNL     1      33.969 -23.452 -15.980  0.00  0.00    +0.083 C 
ATOM     11  C   UNL     1      35.996 -22.401 -16.779  0.00  0.00    +0.275 C 
ATOM     12  C   UNL     1      33.390 -23.350 -17.175  0.00  0.00    +0.065 C 
ATOM     13  C   UNL     1      34.199 -22.718 -18.249  0.00  0.00    +0.193 C 
ATOM     14  H   UNL     1      34.149 -22.180 -20.230  0.00  0.00    +0.145 HD
ATOM     15  H   UNL     1      32.723 -22.920 -19.662  0.00  0.00    +0.145 HD
ENDBRANCH   5   7
BRANCH   2  16
ATOM     16  O   UNL     1      36.374 -23.984 -11.598  0.00  0.00    -0.382 OA
ATOM     17  H   UNL     1      36.973 -24.414 -10.968  0.00  0.00    +0.210 HD
ENDBRANCH   2  16
BRANCH   3  18
ATOM     18  C   UNL     1      37.768 -25.788 -14.550  0.00  0.00    +0.186 C 
BRANCH  18  19
ATOM     19  O   UNL     1      38.929 -26.451 -14.075  0.00  0.00    -0.271 OA
BRANCH  19  20
ATOM     20  P   UNL     1      40.378 -25.878 -14.512  0.00  0.00    +0.473 P 
ATOM     21  O   UNL     1      40.746 -24.556 -13.902  0.00  0.00    -0.227 OA
BRANCH  20  22
ATOM     22  O   UNL     1      40.329 -25.905 -16.128  0.00  0.00    -0.303 OA
ATOM     23  H   UNL     1      39.666 -26.547 -16.421  0.00  0.00    +0.222 HD
ENDBRANCH  20  22
BRANCH  20  24
ATOM     24  O   UNL     1      41.374 -27.099 -14.149  0.00  0.00    -0.303 OA
ATOM     25  H   UNL     1      40.873 -27.804 -13.709  0.00  0.00    +0.222 HD
ENDBRANCH  20  24
ENDBRANCH  19  20
ENDBRANCH  18  19
ENDBRANCH   3  18
TORSDOF 7
ENDMDL
MODEL 5
REMARK VINA RESULT:      -8.1      7.482     10.166
REMARK  Name = 13945
REMARK  7 active torsions:
REMARK  status: ('A' for Active; 'I' for Inactive)
REMARK    1  A    between atoms: C_2  and  O_16
REMARK    2  A    between atoms: C_3  and  C_18
REMARK    3  A    between atoms: C_5  and  N_7
REMARK    4  A    between atoms: C_18  and  O_19
REMARK    5  A    between atoms: O_19  and  P_20
REMARK    6  A    between atoms: P_20  and  O_22
REMARK    7  A    between atoms: P_20  and  O_24
REMARK                            x       y       z     vdW  Elec       q    Type
REMARK                         _______ _______ _______ _____ _____    ______ ____
ROOT
ATOM      1  O   UNL     1      35.317 -17.445 -20.692  0.00  0.00    -0.334 OA
ATOM      2  C   UNL     1      34.785 -16.887 -22.934  0.00  0.00    +0.144 C 
ATOM      3  C   UNL     1      34.781 -16.379 -21.499  0.00  0.00    +0.174 C 
ATOM      4  C   UNL     1      34.623 -18.381 -22.769  0.00  0.00    +0.084 C 
ATOM      5  C   UNL     1      35.365 -18.650 -21.469  0.00  0.00    +0.209 C 
ENDROOT
BRANCH   5   7
ATOM      6  O   UNL     1      36.825 -20.645 -20.124  0.00  0.00    -0.193 OA
ATOM      7  N   UNL     1      34.793 -19.725 -20.714  0.00  0.00    -0.180 N 
ATOM      8  N   UNL     1      34.973 -21.706 -19.351  0.00  0.00    -0.306 NA
ATOM      9  N   UNL     1      33.072 -22.788 -18.563  0.00  0.00    -0.332 N 
ATOM     10  C   UNL     1      33.413 -19.812 -20.626  0.00  0.00    +0.083 C 
ATOM     11  C   UNL     1      35.594 -20.695 -20.063  0.00  0.00    +0.275 C 
ATOM     12  C   UNL     1      32.796 -20.778 -19.947  0.00  0.00    +0.065 C 
ATOM     13  C   UNL     1      33.670 -21.775 -19.276  0.00  0.00    +0.193 C 
ATOM     14  H   UNL     1      33.625 -23.464 -18.108  0.00  0.00    +0.145 HD
ATOM     15  H   UNL     1      32.090 -22.839 -18.508  0.00  0.00    +0.145 HD
ENDBRANCH   5   7
BRANCH   2  16
ATOM     16  O   UNL     1      36.042 -16.605 -23.545  0.00  0.00    -0.382 OA
ATOM     17  H   UNL     1      36.749 -17.045 -23.046  0.00  0.00    +0.210 HD
ENDBRANCH   2  16
BRANCH   3  18
ATOM     18  C   UNL     1      33.381 -16.062 -20.987  0.00  0.00    +0.186 C 
BRANCH  18  19
ATOM     19  O   UNL     1      32.674 -15.356 -21.994  0.00  0.00    -0.271 OA
BRANCH  19  20
ATOM     20  P   UNL     1      32.694 -13.738 -21.959  0.00  0.00    +0.473 P 
ATOM     21  O   UNL     1      32.513 -13.131 -20.599  0.00  0.00    -0.227 OA
BRANCH  20  22
ATOM     22  O   UNL     1      31.584 -13.317 -23.058  0.00  0.00    -0.303 OA
ATOM     23  H   UNL     1      30.709 -13.606 -22.760  0.00  0.00    +0.222 HD
ENDBRANCH  20  22
BRANCH  20  24
ATOM     24  O   UNL     1      34.093 -13.378 -22.687  0.00  0.00    -0.303 OA
ATOM     25  H   UNL     1      34.797 -13.944 -22.332  0.00  0.00    +0.222 HD
ENDBRANCH  20  24
ENDBRANCH  19  20
ENDBRANCH  18  19
ENDBRANCH   3  18
TORSDOF 7
ENDMDL
MODEL 6
REMARK VINA RESULT:      -8.0      2.520      4.396
REMARK  Name = 13945
REMARK  7 active torsions:
REMARK  status: ('A' for Active; 'I' for Inactive)
REMARK    1  A    between atoms: C_2  and  O_16
REMARK    2  A    between atoms: C_3  and  C_18
REMARK    3  A    between atoms: C_5  and  N_7
REMARK    4  A    between atoms: C_18  and  O_19
REMARK    5  A    between atoms: O_19  and  P_20
REMARK    6  A    between atoms: P_20  and  O_22
REMARK    7  A    between atoms: P_20  and  O_24
REMARK                            x       y       z     vdW  Elec       q    Type
REMARK                         _______ _______ _______ _____ _____    ______ ____
ROOT
ATOM      1  O   UNL     1      36.640 -22.918 -12.758  0.00  0.00    -0.334 OA
ATOM      2  C   UNL     1      36.453 -25.195 -12.126  0.00  0.00    +0.144 C 
ATOM      3  C   UNL     1      37.277 -23.928 -11.950  0.00  0.00    +0.174 C 
ATOM      4  C   UNL     1      35.883 -25.044 -13.518  0.00  0.00    +0.084 C 
ATOM      5  C   UNL     1      35.687 -23.540 -13.630  0.00  0.00    +0.209 C 
ENDROOT
BRANCH   5   7
ATOM      6  O   UNL     1      33.797 -23.723 -15.708  0.00  0.00    -0.193 OA
ATOM      7  N   UNL     1      35.876 -23.053 -14.965  0.00  0.00    -0.180 N 
ATOM      8  N   UNL     1      35.128 -22.687 -17.228  0.00  0.00    -0.306 NA
ATOM      9  N   UNL     1      36.496 -21.627 -18.780  0.00  0.00    -0.332 N 
ATOM     10  C   UNL     1      37.078 -22.441 -15.283  0.00  0.00    +0.083 C 
ATOM     11  C   UNL     1      34.876 -23.182 -15.959  0.00  0.00    +0.275 C 
ATOM     12  C   UNL     1      37.340 -21.960 -16.497  0.00  0.00    +0.065 C 
ATOM     13  C   UNL     1      36.266 -22.112 -17.514  0.00  0.00    +0.193 C 
ATOM     14  H   UNL     1      35.804 -21.713 -19.474  0.00  0.00    +0.145 HD
ATOM     15  H   UNL     1      37.355 -21.194 -18.993  0.00  0.00    +0.145 HD
ENDBRANCH   5   7
BRANCH   2  16
ATOM     16  O   UNL     1      35.392 -25.221 -11.173  0.00  0.00    -0.382 OA
ATOM     17  H   UNL     1      35.750 -25.050 -10.288  0.00  0.00    +0.210 HD
ENDBRANCH   2  16
BRANCH   3  18
ATOM     18  C   UNL     1      38.712 -24.082 -12.438  0.00  0.00    +0.186 C 
BRANCH  18  19
ATOM     19  O   UNL     1      38.922 -25.431 -12.822  0.00  0.00    -0.271 OA
BRANCH  19  20
ATOM     20  P   UNL     1      39.604 -25.725 -14.261  0.00  0.00    +0.473 P 
ATOM     21  O   UNL     1      39.800 -24.516 -15.128  0.00  0.00    -0.227 OA
BRANCH  20  22
ATOM     22  O   UNL     1      38.675 -26.888 -14.895  0.00  0.00    -0.303 OA
ATOM     23  H   UNL     1      38.527 -27.581 -14.233  0.00  0.00    +0.222 HD
ENDBRANCH  20  22
BRANCH  20  24
ATOM     24  O   UNL     1      40.961 -26.509 -13.863  0.00  0.00    -0.303 OA
ATOM     25  H   UNL     1      41.331 -26.124 -13.053  0.00  0.00    +0.222 HD
ENDBRANCH  20  24
ENDBRANCH  19  20
ENDBRANCH  18  19
ENDBRANCH   3  18
TORSDOF 7
ENDMDL
MODEL 7
REMARK VINA RESULT:      -7.9      2.746      4.311
REMARK  Name = 13945
REMARK  7 active torsions:
REMARK  status: ('A' for Active; 'I' for Inactive)
REMARK    1  A    between atoms: C_2  and  O_16
REMARK    2  A    between atoms: C_3  and  C_18
REMARK    3  A    between atoms: C_5  and  N_7
REMARK    4  A    between atoms: C_18  and  O_19
REMARK    5  A    between atoms: O_19  and  P_20
REMARK    6  A    between atoms: P_20  and  O_22
REMARK    7  A    between atoms: P_20  and  O_24
REMARK                            x       y       z     vdW  Elec       q    Type
REMARK                         _______ _______ _______ _____ _____    ______ ____
ROOT
ATOM      1  O   UNL     1      36.653 -23.444 -14.650  0.00  0.00    -0.334 OA
ATOM      2  C   UNL     1      35.078 -25.059 -13.922  0.00  0.00    +0.144 C 
ATOM      3  C   UNL     1      36.563 -24.757 -14.064  0.00  0.00    +0.174 C 
ATOM      4  C   UNL     1      34.459 -24.274 -15.056  0.00  0.00    +0.084 C 
ATOM      5  C   UNL     1      35.364 -23.056 -15.145  0.00  0.00    +0.209 C 
ENDROOT
BRANCH   5   7
ATOM      6  O   UNL     1      37.554 -21.576 -16.113  0.00  0.00    -0.193 OA
ATOM      7  N   UNL     1      35.499 -22.558 -16.482  0.00  0.00    -0.180 N 
ATOM      8  N   UNL     1      36.696 -21.369 -18.205  0.00  0.00    -0.306 NA
ATOM      9  N   UNL     1      35.811 -21.160 -20.345  0.00  0.00    -0.332 N 
ATOM     10  C   UNL     1      34.482 -22.811 -17.388  0.00  0.00    +0.083 C 
ATOM     11  C   UNL     1      36.633 -21.819 -16.897  0.00  0.00    +0.275 C 
ATOM     12  C   UNL     1      34.523 -22.386 -18.650  0.00  0.00    +0.065 C 
ATOM     13  C   UNL     1      35.729 -21.616 -19.050  0.00  0.00    +0.193 C 
ATOM     14  H   UNL     1      36.598 -20.647 -20.638  0.00  0.00    +0.145 HD
ATOM     15  H   UNL     1      35.081 -21.347 -20.979  0.00  0.00    +0.145 HD
ENDBRANCH   5   7
BRANCH   2  16
ATOM     16  O   UNL     1      34.598 -24.560 -12.675  0.00  0.00    -0.382 OA
ATOM     17  H   UNL     1      34.458 -25.301 -12.065  0.00  0.00    +0.210 HD
ENDBRANCH   2  16
BRANCH   3  18
ATOM     18  C   UNL     1      37.280 -25.733 -14.988  0.00  0.00    +0.186 C 
BRANCH  18  19
ATOM     19  O   UNL     1      38.550 -26.038 -14.434  0.00  0.00    -0.271 OA
BRANCH  19  20
ATOM     20  P   UNL     1      39.821 -25.140 -14.878  0.00  0.00    +0.473 P 
ATOM     21  O   UNL     1      40.708 -24.697 -13.751  0.00  0.00    -0.227 OA
BRANCH  20  22
ATOM     22  O   UNL     1      39.161 -23.947 -15.749  0.00  0.00    -0.303 OA
ATOM     23  H   UNL     1      39.852 -23.503 -16.264  0.00  0.00    +0.222 HD
ENDBRANCH  20  22
BRANCH  20  24
ATOM     24  O   UNL     1      40.542 -26.061 -15.994  0.00  0.00    -0.303 OA
ATOM     25  H   UNL     1      41.464 -25.778 -16.100  0.00  0.00    +0.222 HD
ENDBRANCH  20  24
ENDBRANCH  19  20
ENDBRANCH  18  19
ENDBRANCH   3  18
TORSDOF 7
ENDMDL
MODEL 8
REMARK VINA RESULT:      -7.8      2.281      3.947
REMARK  Name = 13945
REMARK  7 active torsions:
REMARK  status: ('A' for Active; 'I' for Inactive)
REMARK    1  A    between atoms: C_2  and  O_16
REMARK    2  A    between atoms: C_3  and  C_18
REMARK    3  A    between atoms: C_5  and  N_7
REMARK    4  A    between atoms: C_18  and  O_19
REMARK    5  A    between atoms: O_19  and  P_20
REMARK    6  A    between atoms: P_20  and  O_22
REMARK    7  A    between atoms: P_20  and  O_24
REMARK                            x       y       z     vdW  Elec       q    Type
REMARK                         _______ _______ _______ _____ _____    ______ ____
ROOT
ATOM      1  O   UNL     1      36.601 -23.634 -13.886  0.00  0.00    -0.334 OA
ATOM      2  C   UNL     1      36.484 -25.132 -12.054  0.00  0.00    +0.144 C 
ATOM      3  C   UNL     1      37.309 -24.725 -13.266  0.00  0.00    +0.174 C 
ATOM      4  C   UNL     1      35.073 -24.779 -12.464  0.00  0.00    +0.084 C 
ATOM      5  C   UNL     1      35.282 -23.546 -13.329  0.00  0.00    +0.209 C 
ENDROOT
BRANCH   5   7
ATOM      6  O   UNL     1      32.487 -23.514 -12.995  0.00  0.00    -0.193 OA
ATOM      7  N   UNL     1      34.325 -23.443 -14.390  0.00  0.00    -0.180 N 
ATOM      8  N   UNL     1      32.062 -23.330 -15.218  0.00  0.00    -0.306 NA
ATOM      9  N   UNL     1      31.633 -23.143 -17.495  0.00  0.00    -0.332 N 
ATOM     10  C   UNL     1      34.786 -23.352 -15.693  0.00  0.00    +0.083 C 
ATOM     11  C   UNL     1      32.930 -23.433 -14.144  0.00  0.00    +0.275 C 
ATOM     12  C   UNL     1      33.968 -23.254 -16.740  0.00  0.00    +0.065 C 
ATOM     13  C   UNL     1      32.512 -23.245 -16.442  0.00  0.00    +0.193 C 
ATOM     14  H   UNL     1      30.663 -23.135 -17.329  0.00  0.00    +0.145 HD
ATOM     15  H   UNL     1      31.975 -23.079 -18.417  0.00  0.00    +0.145 HD
ENDBRANCH   5   7
BRANCH   2  16
ATOM     16  O   UNL     1      36.865 -24.352 -10.922  0.00  0.00    -0.382 OA
ATOM     17  H   UNL     1      36.458 -23.474 -10.985  0.00  0.00    +0.210 HD
ENDBRANCH   2  16
BRANCH   3  18
ATOM     18  C   UNL     1      37.443 -25.841 -14.294  0.00  0.00    +0.186 C 
BRANCH  18  19
ATOM     19  O   UNL     1      38.791 -26.281 -14.319  0.00  0.00    -0.271 OA
BRANCH  19  20
ATOM     20  P   UNL     1      39.921 -25.271 -14.887  0.00  0.00    +0.473 P 
ATOM     21  O   UNL     1      40.870 -24.737 -13.854  0.00  0.00    -0.227 OA
BRANCH  20  22
ATOM     22  O   UNL     1      39.069 -24.153 -15.687  0.00  0.00    -0.303 OA
ATOM     23  H   UNL     1      38.722 -23.500 -15.060  0.00  0.00    +0.222 HD
ENDBRANCH  20  22
BRANCH  20  24
ATOM     24  O   UNL     1      40.611 -26.130 -16.070  0.00  0.00    -0.303 OA
ATOM     25  H   UNL     1      40.625 -27.068 -15.823  0.00  0.00    +0.222 HD
ENDBRANCH  20  24
ENDBRANCH  19  20
ENDBRANCH  18  19
ENDBRANCH   3  18
TORSDOF 7
ENDMDL
MODEL 9
REMARK VINA RESULT:      -7.5      8.550     11.400
REMARK  Name = 13945
REMARK  7 active torsions:
REMARK  status: ('A' for Active; 'I' for Inactive)
REMARK    1  A    between atoms: C_2  and  O_16
REMARK    2  A    between atoms: C_3  and  C_18
REMARK    3  A    between atoms: C_5  and  N_7
REMARK    4  A    between atoms: C_18  and  O_19
REMARK    5  A    between atoms: O_19  and  P_20
REMARK    6  A    between atoms: P_20  and  O_22
REMARK    7  A    between atoms: P_20  and  O_24
REMARK                            x       y       z     vdW  Elec       q    Type
REMARK                         _______ _______ _______ _____ _____    ______ ____
ROOT
ATOM      1  O   UNL     1      35.696 -16.881 -22.616  0.00  0.00    -0.334 OA
ATOM      2  C   UNL     1      34.403 -16.999 -24.599  0.00  0.00    +0.144 C 
ATOM      3  C   UNL     1      34.762 -16.122 -23.408  0.00  0.00    +0.174 C 
ATOM      4  C   UNL     1      34.556 -18.400 -24.052  0.00  0.00    +0.084 C 
ATOM      5  C   UNL     1      35.701 -18.243 -23.064  0.00  0.00    +0.209 C 
ENDROOT
BRANCH   5   7
ATOM      6  O   UNL     1      37.819 -18.997 -21.370  0.00  0.00    -0.193 OA
ATOM      7  N   UNL     1      35.584 -19.116 -21.933  0.00  0.00    -0.180 N 
ATOM      8  N   UNL     1      36.512 -20.300 -20.048  0.00  0.00    -0.306 NA
ATOM      9  N   UNL     1      35.168 -21.634 -18.699  0.00  0.00    -0.332 N 
ATOM     10  C   UNL     1      34.341 -19.646 -21.630  0.00  0.00    +0.083 C 
ATOM     11  C   UNL     1      36.699 -19.450 -21.125  0.00  0.00    +0.275 C 
ATOM     12  C   UNL     1      34.141 -20.465 -20.600  0.00  0.00    +0.065 C 
ATOM     13  C   UNL     1      35.332 -20.792 -19.774  0.00  0.00    +0.193 C 
ATOM     14  H   UNL     1      35.939 -21.868 -18.134  0.00  0.00    +0.145 HD
ATOM     15  H   UNL     1      34.278 -22.003 -18.495  0.00  0.00    +0.145 HD
ENDBRANCH   5   7
BRANCH   2  16
ATOM     16  O   UNL     1      35.340 -16.792 -25.655  0.00  0.00    -0.382 OA
ATOM     17  H   UNL     1      35.139 -15.955 -26.103  0.00  0.00    +0.210 HD
ENDBRANCH   2  16
BRANCH   3  18
ATOM     18  C   UNL     1      33.561 -15.795 -22.531  0.00  0.00    +0.186 C 
BRANCH  18  19
ATOM     19  O   UNL     1      33.555 -14.401 -22.264  0.00  0.00    -0.271 OA
BRANCH  19  20
ATOM     20  P   UNL     1      32.960 -13.403 -23.390  0.00  0.00    +0.473 P 
ATOM     21  O   UNL     1      32.524 -14.070 -24.662  0.00  0.00    -0.227 OA
BRANCH  20  22
ATOM     22  O   UNL     1      34.114 -12.282 -23.557  0.00  0.00    -0.303 OA
ATOM     23  H   UNL     1      34.627 -12.462 -24.360  0.00  0.00    +0.222 HD
ENDBRANCH  20  22
BRANCH  20  24
ATOM     24  O   UNL     1      31.791 -12.618 -22.595  0.00  0.00    -0.303 OA
ATOM     25  H   UNL     1      31.200 -12.187 -23.232  0.00  0.00    +0.222 HD
ENDBRANCH  20  24
ENDBRANCH  19  20
ENDBRANCH  18  19
ENDBRANCH   3  18
TORSDOF 7
ENDMDL
