MODEL 1
REMARK VINA RESULT:      -7.5      0.000      0.000
REMARK  Name = 6540478
REMARK  6 active torsions:
REMARK  status: ('A' for Active; 'I' for Inactive)
REMARK    1  A    between atoms: N_1  and  C_18
REMARK    2  A    between atoms: N_1  and  O_19
REMARK    3  A    between atoms: C_2  and  C_21
REMARK    4  A    between atoms: C_6  and  C_23
REMARK    5  A    between atoms: C_6  and  O_25
REMARK    6  A    between atoms: O_25  and  C_27
REMARK                            x       y       z     vdW  Elec       q    Type
REMARK                         _______ _______ _______ _____ _____    ______ ____
ROOT
ATOM      1  C   UNL     1      35.795 -24.020 -14.899  0.00  0.00    +0.045 C 
ATOM      2  C   UNL     1      34.700 -24.512 -13.923  0.00  0.00    +0.004 C 
ATOM      3  C   UNL     1      33.445 -23.636 -13.947  0.00  0.00    +0.000 C 
ATOM      4  C   UNL     1      32.853 -23.642 -15.398  0.00  0.00    +0.000 C 
ATOM      5  C   UNL     1      36.943 -25.023 -14.560  0.00  0.00    +0.189 C 
ATOM      6  C   UNL     1      35.221 -24.069 -16.328  0.00  0.00    +0.004 C 
ATOM      7  C   UNL     1      35.448 -24.686 -12.604  0.00  0.00    +0.005 C 
ATOM      8  C   UNL     1      33.915 -23.262 -16.455  0.00  0.00    +0.000 C 
ATOM      9  C   UNL     1      36.869 -25.130 -13.013  0.00  0.00    +0.053 C 
ATOM     10  C   UNL     1      31.592 -22.736 -15.434  0.00  0.00    +0.004 C 
ATOM     11  C   UNL     1      32.398 -24.098 -12.916  0.00  0.00    +0.000 C 
ATOM     12  C   UNL     1      31.106 -23.280 -13.005  0.00  0.00    +0.004 C 
ATOM     13  C   UNL     1      30.604 -23.293 -14.424  0.00  0.00    +0.023 C 
ATOM     14  C   UNL     1      30.935 -22.540 -16.811  0.00  0.00    +0.007 C 
ATOM     15  C   UNL     1      30.093 -23.733 -17.226  0.00  0.00    +0.048 C 
ATOM     16  C   UNL     1      29.419 -23.838 -14.745  0.00  0.00    -0.010 C 
ATOM     17  C   UNL     1      29.045 -24.008 -16.171  0.00  0.00    +0.081 C 
ENDROOT
BRANCH   1  18
ATOM     18  C   UNL     1      36.269 -22.565 -14.615  0.00  0.00    +0.004 C 
ATOM     19  C   UNL     1      36.937 -21.986 -15.834  0.00  0.00    +0.000 C 
ENDBRANCH   1  18
BRANCH   5  20
ATOM     20  C   UNL     1      36.745 -26.358 -15.158  0.00  0.00    -0.040 C 
ATOM     21  C   UNL     1      36.585 -27.444 -15.644  0.00  0.00    -0.011 C 
ENDBRANCH   5  20
BRANCH  17  22
ATOM     22  N   UNL     1      27.880 -24.430 -16.542  0.00  0.00    -0.139 NA
BRANCH  22  23
ATOM     23  O   UNL     1      27.508 -23.731 -17.690  0.00  0.00    -0.266 OA
ATOM     24  H   UNL     1      26.993 -22.952 -17.618  0.00  0.00    +0.247 HD
ENDBRANCH  22  23
ENDBRANCH  17  22
BRANCH   5  25
ATOM     25  O   UNL     1      38.216 -24.559 -14.983  0.00  0.00    -0.443 OA
BRANCH  25  27
ATOM     26  O   UNL     1      39.440 -24.354 -13.034  0.00  0.00    -0.250 OA
ATOM     27  C   UNL     1      39.259 -24.838 -14.144  0.00  0.00    +0.318 C 
ATOM     28  C   UNL     1      40.175 -25.839 -14.781  0.00  0.00    +0.121 C 
ENDBRANCH  25  27
ENDBRANCH   5  25
TORSDOF 6
ENDMDL
MODEL 2
REMARK VINA RESULT:      -7.4      1.439      3.100
REMARK  Name = 6540478
REMARK  6 active torsions:
REMARK  status: ('A' for Active; 'I' for Inactive)
REMARK    1  A    between atoms: N_1  and  C_18
REMARK    2  A    between atoms: N_1  and  O_19
REMARK    3  A    between atoms: C_2  and  C_21
REMARK    4  A    between atoms: C_6  and  C_23
REMARK    5  A    between atoms: C_6  and  O_25
REMARK    6  A    between atoms: O_25  and  C_27
REMARK                            x       y       z     vdW  Elec       q    Type
REMARK                         _______ _______ _______ _____ _____    ______ ____
ROOT
ATOM      1  C   UNL     1      36.268 -24.764 -14.423  0.00  0.00    +0.045 C 
ATOM      2  C   UNL     1      35.821 -23.563 -15.289  0.00  0.00    +0.004 C 
ATOM      3  C   UNL     1      34.512 -23.825 -16.040  0.00  0.00    +0.000 C 
ATOM      4  C   UNL     1      33.384 -24.129 -14.995  0.00  0.00    +0.000 C 
ATOM      5  C   UNL     1      37.641 -24.238 -13.901  0.00  0.00    +0.189 C 
ATOM      6  C   UNL     1      35.174 -25.031 -13.372  0.00  0.00    +0.004 C 
ATOM      7  C   UNL     1      37.072 -23.218 -16.094  0.00  0.00    +0.005 C 
ATOM      8  C   UNL     1      33.792 -25.253 -14.016  0.00  0.00    +0.000 C 
ATOM      9  C   UNL     1      38.249 -23.546 -15.152  0.00  0.00    +0.053 C 
ATOM     10  C   UNL     1      32.058 -24.418 -15.752  0.00  0.00    +0.004 C 
ATOM     11  C   UNL     1      34.125 -22.647 -16.954  0.00  0.00    +0.000 C 
ATOM     12  C   UNL     1      32.769 -22.870 -17.632  0.00  0.00    +0.004 C 
ATOM     13  C   UNL     1      31.735 -23.190 -16.586  0.00  0.00    +0.023 C 
ATOM     14  C   UNL     1      30.860 -24.839 -14.886  0.00  0.00    +0.007 C 
ATOM     15  C   UNL     1      30.207 -23.659 -14.188  0.00  0.00    +0.048 C 
ATOM     16  C   UNL     1      30.677 -22.390 -16.377  0.00  0.00    -0.010 C 
ATOM     17  C   UNL     1      29.787 -22.630 -15.213  0.00  0.00    +0.081 C 
ENDROOT
BRANCH   1  18
ATOM     18  C   UNL     1      36.483 -26.071 -15.241  0.00  0.00    +0.004 C 
ATOM     19  C   UNL     1      36.704 -27.237 -14.313  0.00  0.00    +0.000 C 
ENDBRANCH   1  18
BRANCH   5  20
ATOM     20  C   UNL     1      37.511 -23.256 -12.806  0.00  0.00    -0.040 C 
ATOM     21  C   UNL     1      37.404 -22.457 -11.917  0.00  0.00    -0.011 C 
ENDBRANCH   5  20
BRANCH  17  22
ATOM     22  N   UNL     1      28.699 -21.960 -15.017  0.00  0.00    -0.139 NA
BRANCH  22  23
ATOM     23  O   UNL     1      28.082 -21.755 -16.251  0.00  0.00    -0.266 OA
ATOM     24  H   UNL     1      27.653 -20.942 -16.432  0.00  0.00    +0.247 HD
ENDBRANCH  22  23
ENDBRANCH  17  22
BRANCH   5  25
ATOM     25  O   UNL     1      38.484 -25.279 -13.431  0.00  0.00    -0.443 OA
BRANCH  25  27
ATOM     26  O   UNL     1      40.617 -24.405 -13.292  0.00  0.00    -0.250 OA
ATOM     27  C   UNL     1      39.803 -25.179 -13.776  0.00  0.00    +0.318 C 
ATOM     28  C   UNL     1      40.125 -26.169 -14.855  0.00  0.00    +0.121 C 
ENDBRANCH  25  27
ENDBRANCH   5  25
TORSDOF 6
ENDMDL
MODEL 3
REMARK VINA RESULT:      -6.7     10.839     12.811
REMARK  Name = 6540478
REMARK  6 active torsions:
REMARK  status: ('A' for Active; 'I' for Inactive)
REMARK    1  A    between atoms: N_1  and  C_18
REMARK    2  A    between atoms: N_1  and  O_19
REMARK    3  A    between atoms: C_2  and  C_21
REMARK    4  A    between atoms: C_6  and  C_23
REMARK    5  A    between atoms: C_6  and  O_25
REMARK    6  A    between atoms: O_25  and  C_27
REMARK                            x       y       z     vdW  Elec       q    Type
REMARK                         _______ _______ _______ _____ _____    ______ ____
ROOT
ATOM      1  C   UNL     1      34.337 -17.105 -22.020  0.00  0.00    +0.045 C 
ATOM      2  C   UNL     1      34.378 -17.017 -23.563  0.00  0.00    +0.004 C 
ATOM      3  C   UNL     1      33.552 -15.851 -24.114  0.00  0.00    +0.000 C 
ATOM      4  C   UNL     1      34.114 -14.511 -23.526  0.00  0.00    +0.000 C 
ATOM      5  C   UNL     1      35.153 -18.416 -21.792  0.00  0.00    +0.189 C 
ATOM      6  C   UNL     1      34.930 -15.803 -21.448  0.00  0.00    +0.004 C 
ATOM      7  C   UNL     1      34.037 -18.435 -24.012  0.00  0.00    +0.005 C 
ATOM      8  C   UNL     1      34.207 -14.553 -21.984  0.00  0.00    +0.000 C 
ATOM      9  C   UNL     1      34.640 -19.348 -22.924  0.00  0.00    +0.053 C 
ATOM     10  C   UNL     1      33.265 -13.327 -24.064  0.00  0.00    +0.004 C 
ATOM     11  C   UNL     1      33.545 -15.825 -25.655  0.00  0.00    +0.000 C 
ATOM     12  C   UNL     1      32.797 -14.606 -26.203  0.00  0.00    +0.004 C 
ATOM     13  C   UNL     1      33.356 -13.356 -25.580  0.00  0.00    +0.023 C 
ATOM     14  C   UNL     1      33.612 -11.936 -23.508  0.00  0.00    +0.007 C 
ATOM     15  C   UNL     1      34.850 -11.345 -24.156  0.00  0.00    +0.048 C 
ATOM     16  C   UNL     1      33.953 -12.409 -26.321  0.00  0.00    -0.010 C 
ATOM     17  C   UNL     1      34.662 -11.287 -25.655  0.00  0.00    +0.081 C 
ENDROOT
BRANCH   1  18
ATOM     18  C   UNL     1      32.899 -17.276 -21.447  0.00  0.00    +0.004 C 
ATOM     19  C   UNL     1      32.548 -16.109 -20.562  0.00  0.00    +0.000 C 
ENDBRANCH   1  18
BRANCH   5  20
ATOM     20  C   UNL     1      36.611 -18.227 -21.930  0.00  0.00    -0.040 C 
ATOM     21  C   UNL     1      37.796 -18.073 -22.043  0.00  0.00    -0.011 C 
ENDBRANCH   5  20
BRANCH  17  22
ATOM     22  N   UNL     1      35.168 -10.293 -26.311  0.00  0.00    -0.139 NA
BRANCH  22  23
ATOM     23  O   UNL     1      35.829 -10.799 -27.430  0.00  0.00    -0.266 OA
ATOM     24  H   UNL     1      36.246 -10.215 -28.032  0.00  0.00    +0.247 HD
ENDBRANCH  22  23
ENDBRANCH  17  22
BRANCH   5  25
ATOM     25  O   UNL     1      34.924 -18.989 -20.513  0.00  0.00    -0.443 OA
BRANCH  25  27
ATOM     26  O   UNL     1      35.731 -21.149 -20.643  0.00  0.00    -0.250 OA
ATOM     27  C   UNL     1      34.817 -20.351 -20.482  0.00  0.00    +0.318 C 
ATOM     28  C   UNL     1      33.395 -20.746 -20.218  0.00  0.00    +0.121 C 
ENDBRANCH  25  27
ENDBRANCH   5  25
TORSDOF 6
ENDMDL
MODEL 4
REMARK VINA RESULT:      -6.6      7.913     10.666
REMARK  Name = 6540478
REMARK  6 active torsions:
REMARK  status: ('A' for Active; 'I' for Inactive)
REMARK    1  A    between atoms: N_1  and  C_18
REMARK    2  A    between atoms: N_1  and  O_19
REMARK    3  A    between atoms: C_2  and  C_21
REMARK    4  A    between atoms: C_6  and  C_23
REMARK    5  A    between atoms: C_6  and  O_25
REMARK    6  A    between atoms: O_25  and  C_27
REMARK                            x       y       z     vdW  Elec       q    Type
REMARK                         _______ _______ _______ _____ _____    ______ ____
ROOT
ATOM      1  C   UNL     1      34.483 -16.931 -22.188  0.00  0.00    +0.045 C 
ATOM      2  C   UNL     1      33.522 -17.507 -21.122  0.00  0.00    +0.004 C 
ATOM      3  C   UNL     1      33.590 -19.034 -21.022  0.00  0.00    +0.000 C 
ATOM      4  C   UNL     1      35.053 -19.450 -20.645  0.00  0.00    +0.000 C 
ATOM      5  C   UNL     1      34.101 -15.420 -22.123  0.00  0.00    +0.189 C 
ATOM      6  C   UNL     1      35.923 -17.308 -21.789  0.00  0.00    +0.004 C 
ATOM      7  C   UNL     1      32.184 -16.853 -21.457  0.00  0.00    +0.005 C 
ATOM      8  C   UNL     1      36.095 -18.827 -21.603  0.00  0.00    +0.000 C 
ATOM      9  C   UNL     1      32.553 -15.455 -21.997  0.00  0.00    +0.053 C 
ATOM     10  C   UNL     1      35.134 -20.999 -20.565  0.00  0.00    +0.004 C 
ATOM     11  C   UNL     1      32.572 -19.593 -20.010  0.00  0.00    +0.000 C 
ATOM     12  C   UNL     1      32.705 -21.109 -19.842  0.00  0.00    +0.004 C 
ATOM     13  C   UNL     1      34.134 -21.451 -19.515  0.00  0.00    +0.023 C 
ATOM     14  C   UNL     1      36.528 -21.594 -20.304  0.00  0.00    +0.007 C 
ATOM     15  C   UNL     1      36.936 -21.494 -18.845  0.00  0.00    +0.048 C 
ATOM     16  C   UNL     1      34.468 -22.027 -18.349  0.00  0.00    -0.010 C 
ATOM     17  C   UNL     1      35.898 -22.171 -17.979  0.00  0.00    +0.081 C 
ENDROOT
BRANCH   1  18
ATOM     18  C   UNL     1      34.219 -17.479 -23.621  0.00  0.00    +0.004 C 
ATOM     19  C   UNL     1      35.336 -17.076 -24.548  0.00  0.00    +0.000 C 
ENDBRANCH   1  18
BRANCH   5  20
ATOM     20  C   UNL     1      34.676 -14.722 -20.955  0.00  0.00    -0.040 C 
ATOM     21  C   UNL     1      35.144 -14.156 -20.006  0.00  0.00    -0.011 C 
ENDBRANCH   5  20
BRANCH  17  22
ATOM     22  N   UNL     1      36.286 -22.806 -16.921  0.00  0.00    -0.139 NA
BRANCH  22  23
ATOM     23  O   UNL     1      35.216 -23.569 -16.452  0.00  0.00    -0.266 OA
ATOM     24  H   UNL     1      35.176 -23.816 -15.550  0.00  0.00    +0.247 HD
ENDBRANCH  22  23
ENDBRANCH  17  22
BRANCH   5  25
ATOM     25  O   UNL     1      34.505 -14.702 -23.279  0.00  0.00    -0.443 OA
BRANCH  25  27
ATOM     26  O   UNL     1      33.330 -12.718 -23.152  0.00  0.00    -0.250 OA
ATOM     27  C   UNL     1      33.628 -13.755 -23.729  0.00  0.00    +0.318 C 
ATOM     28  C   UNL     1      33.066 -14.168 -25.056  0.00  0.00    +0.121 C 
ENDBRANCH  25  27
ENDBRANCH   5  25
TORSDOF 6
ENDMDL
MODEL 5
REMARK VINA RESULT:      -6.2      6.993      9.674
REMARK  Name = 6540478
REMARK  6 active torsions:
REMARK  status: ('A' for Active; 'I' for Inactive)
REMARK    1  A    between atoms: N_1  and  C_18
REMARK    2  A    between atoms: N_1  and  O_19
REMARK    3  A    between atoms: C_2  and  C_21
REMARK    4  A    between atoms: C_6  and  C_23
REMARK    5  A    between atoms: C_6  and  O_25
REMARK    6  A    between atoms: O_25  and  C_27
REMARK                            x       y       z     vdW  Elec       q    Type
REMARK                         _______ _______ _______ _____ _____    ______ ____
ROOT
ATOM      1  C   UNL     1      35.340 -18.459 -21.749  0.00  0.00    +0.045 C 
ATOM      2  C   UNL     1      34.156 -19.055 -20.951  0.00  0.00    +0.004 C 
ATOM      3  C   UNL     1      34.421 -20.484 -20.472  0.00  0.00    +0.000 C 
ATOM      4  C   UNL     1      35.687 -20.481 -19.549  0.00  0.00    +0.000 C 
ATOM      5  C   UNL     1      34.729 -17.088 -22.176  0.00  0.00    +0.189 C 
ATOM      6  C   UNL     1      36.571 -18.419 -20.823  0.00  0.00    +0.004 C 
ATOM      7  C   UNL     1      32.951 -18.794 -21.851  0.00  0.00    +0.005 C 
ATOM      8  C   UNL     1      36.897 -19.804 -20.233  0.00  0.00    +0.000 C 
ATOM      9  C   UNL     1      33.270 -17.460 -22.559  0.00  0.00    +0.053 C 
ATOM     10  C   UNL     1      35.975 -21.933 -19.078  0.00  0.00    +0.004 C 
ATOM     11  C   UNL     1      33.202 -21.085 -19.745  0.00  0.00    +0.000 C 
ATOM     12  C   UNL     1      33.500 -22.480 -19.185  0.00  0.00    +0.004 C 
ATOM     13  C   UNL     1      34.742 -22.421 -18.337  0.00  0.00    +0.023 C 
ATOM     14  C   UNL     1      37.249 -22.136 -18.241  0.00  0.00    +0.007 C 
ATOM     15  C   UNL     1      37.070 -21.701 -16.798  0.00  0.00    +0.048 C 
ATOM     16  C   UNL     1      34.709 -22.700 -17.024  0.00  0.00    -0.010 C 
ATOM     17  C   UNL     1      35.905 -22.444 -16.183  0.00  0.00    +0.081 C 
ENDROOT
BRANCH   1  18
ATOM     18  C   UNL     1      35.712 -19.286 -23.014  0.00  0.00    +0.004 C 
ATOM     19  C   UNL     1      34.525 -19.395 -23.935  0.00  0.00    +0.000 C 
ENDBRANCH   1  18
BRANCH   5  20
ATOM     20  C   UNL     1      34.716 -16.091 -21.088  0.00  0.00    -0.040 C 
ATOM     21  C   UNL     1      34.706 -15.280 -20.203  0.00  0.00    -0.011 C 
ENDBRANCH   5  20
BRANCH  17  22
ATOM     22  N   UNL     1      35.970 -22.785 -14.937  0.00  0.00    -0.139 NA
BRANCH  22  23
ATOM     23  O   UNL     1      34.676 -22.785 -14.417  0.00  0.00    -0.266 OA
ATOM     24  H   UNL     1      34.073 -22.111 -14.658  0.00  0.00    +0.247 HD
ENDBRANCH  22  23
ENDBRANCH  17  22
BRANCH   5  25
ATOM     25  O   UNL     1      35.413 -16.502 -23.273  0.00  0.00    -0.443 OA
BRANCH  25  27
ATOM     26  O   UNL     1      34.399 -14.463 -23.660  0.00  0.00    -0.250 OA
ATOM     27  C   UNL     1      34.697 -15.598 -24.007  0.00  0.00    +0.318 C 
ATOM     28  C   UNL     1      34.314 -16.199 -25.326  0.00  0.00    +0.121 C 
ENDBRANCH  25  27
ENDBRANCH   5  25
TORSDOF 6
ENDMDL
MODEL 6
REMARK VINA RESULT:      -6.0     14.527     17.154
REMARK  Name = 6540478
REMARK  6 active torsions:
REMARK  status: ('A' for Active; 'I' for Inactive)
REMARK    1  A    between atoms: N_1  and  C_18
REMARK    2  A    between atoms: N_1  and  O_19
REMARK    3  A    between atoms: C_2  and  C_21
REMARK    4  A    between atoms: C_6  and  C_23
REMARK    5  A    between atoms: C_6  and  O_25
REMARK    6  A    between atoms: O_25  and  C_27
REMARK                            x       y       z     vdW  Elec       q    Type
REMARK                         _______ _______ _______ _____ _____    ______ ____
ROOT
ATOM      1  C   UNL     1      32.045  -8.538 -23.108  0.00  0.00    +0.045 C 
ATOM      2  C   UNL     1      32.458  -9.031 -21.701  0.00  0.00    +0.004 C 
ATOM      3  C   UNL     1      31.928 -10.431 -21.382  0.00  0.00    +0.000 C 
ATOM      4  C   UNL     1      32.489 -11.438 -22.443  0.00  0.00    +0.000 C 
ATOM      5  C   UNL     1      32.625  -7.090 -23.079  0.00  0.00    +0.189 C 
ATOM      6  C   UNL     1      32.636  -9.509 -24.149  0.00  0.00    +0.004 C 
ATOM      7  C   UNL     1      32.068  -7.872 -20.787  0.00  0.00    +0.005 C 
ATOM      8  C   UNL     1      32.211 -10.966 -23.889  0.00  0.00    +0.000 C 
ATOM      9  C   UNL     1      32.287  -6.606 -21.642  0.00  0.00    +0.053 C 
ATOM     10  C   UNL     1      31.935 -12.857 -22.138  0.00  0.00    +0.004 C 
ATOM     11  C   UNL     1      32.286 -10.872 -19.950  0.00  0.00    +0.000 C 
ATOM     12  C   UNL     1      31.836 -12.308 -19.663  0.00  0.00    +0.004 C 
ATOM     13  C   UNL     1      32.375 -13.222 -20.731  0.00  0.00    +0.023 C 
ATOM     14  C   UNL     1      32.302 -13.960 -23.144  0.00  0.00    +0.007 C 
ATOM     15  C   UNL     1      33.719 -14.470 -22.953  0.00  0.00    +0.048 C 
ATOM     16  C   UNL     1      33.237 -14.210 -20.439  0.00  0.00    -0.010 C 
ATOM     17  C   UNL     1      33.896 -14.963 -21.535  0.00  0.00    +0.081 C 
ENDROOT
BRANCH   1  18
ATOM     18  C   UNL     1      30.504  -8.483 -23.317  0.00  0.00    +0.004 C 
ATOM     19  C   UNL     1      30.182  -8.102 -24.738  0.00  0.00    +0.000 C 
ENDBRANCH   1  18
BRANCH   5  20
ATOM     20  C   UNL     1      34.086  -7.042 -23.285  0.00  0.00    -0.040 C 
ATOM     21  C   UNL     1      35.274  -7.005 -23.454  0.00  0.00    -0.011 C 
ENDBRANCH   5  20
BRANCH  17  22
ATOM     22  N   UNL     1      34.655 -15.988 -21.320  0.00  0.00    -0.139 NA
BRANCH  22  23
ATOM     23  O   UNL     1      34.980 -16.015 -19.964  0.00  0.00    -0.266 OA
ATOM     24  H   UNL     1      34.414 -15.609 -19.338  0.00  0.00    +0.247 HD
ENDBRANCH  22  23
ENDBRANCH  17  22
BRANCH   5  25
ATOM     25  O   UNL     1      32.037  -6.245 -24.056  0.00  0.00    -0.443 OA
BRANCH  25  27
ATOM     26  O   UNL     1      30.494  -5.151 -22.730  0.00  0.00    -0.250 OA
ATOM     27  C   UNL     1      31.378  -5.147 -23.576  0.00  0.00    +0.318 C 
ATOM     28  C   UNL     1      31.897  -3.908 -24.241  0.00  0.00    +0.121 C 
ENDBRANCH  25  27
ENDBRANCH   5  25
TORSDOF 6
ENDMDL
MODEL 7
REMARK VINA RESULT:      -5.2     14.606     16.725
REMARK  Name = 6540478
REMARK  6 active torsions:
REMARK  status: ('A' for Active; 'I' for Inactive)
REMARK    1  A    between atoms: N_1  and  C_18
REMARK    2  A    between atoms: N_1  and  O_19
REMARK    3  A    between atoms: C_2  and  C_21
REMARK    4  A    between atoms: C_6  and  C_23
REMARK    5  A    between atoms: C_6  and  O_25
REMARK    6  A    between atoms: O_25  and  C_27
REMARK                            x       y       z     vdW  Elec       q    Type
REMARK                         _______ _______ _______ _____ _____    ______ ____
ROOT
ATOM      1  C   UNL     1      33.884 -12.541 -24.269  0.00  0.00    +0.045 C 
ATOM      2  C   UNL     1      32.550 -11.941 -23.767  0.00  0.00    +0.004 C 
ATOM      3  C   UNL     1      32.742 -10.656 -22.958  0.00  0.00    +0.000 C 
ATOM      4  C   UNL     1      33.454  -9.592 -23.862  0.00  0.00    +0.000 C 
ATOM      5  C   UNL     1      33.369 -13.855 -24.934  0.00  0.00    +0.189 C 
ATOM      6  C   UNL     1      34.559 -11.507 -25.191  0.00  0.00    +0.004 C 
ATOM      7  C   UNL     1      31.851 -13.127 -23.107  0.00  0.00    +0.005 C 
ATOM      8  C   UNL     1      34.751 -10.147 -24.493  0.00  0.00    +0.000 C 
ATOM      9  C   UNL     1      32.289 -14.354 -23.934  0.00  0.00    +0.053 C 
ATOM     10  C   UNL     1      33.672  -8.293 -23.038  0.00  0.00    +0.004 C 
ATOM     11  C   UNL     1      31.409 -10.117 -22.405  0.00  0.00    +0.000 C 
ATOM     12  C   UNL     1      31.590  -8.782 -21.675  0.00  0.00    +0.004 C 
ATOM     13  C   UNL     1      32.307  -7.813 -22.577  0.00  0.00    +0.023 C 
ATOM     14  C   UNL     1      34.454  -7.169 -23.738  0.00  0.00    +0.007 C 
ATOM     15  C   UNL     1      33.600  -6.400 -24.729  0.00  0.00    +0.048 C 
ATOM     16  C   UNL     1      31.725  -6.675 -22.988  0.00  0.00    -0.010 C 
ATOM     17  C   UNL     1      32.381  -5.843 -24.028  0.00  0.00    +0.081 C 
ENDROOT
BRANCH   1  18
ATOM     18  C   UNL     1      34.877 -12.888 -23.121  0.00  0.00    +0.004 C 
ATOM     19  C   UNL     1      34.282 -13.932 -22.213  0.00  0.00    +0.000 C 
ENDBRANCH   1  18
BRANCH   5  20
ATOM     20  C   UNL     1      32.753 -13.636 -26.258  0.00  0.00    -0.040 C 
ATOM     21  C   UNL     1      32.252 -13.458 -27.334  0.00  0.00    -0.011 C 
ENDBRANCH   5  20
BRANCH  17  22
ATOM     22  N   UNL     1      31.924  -4.689 -24.391  0.00  0.00    -0.139 NA
BRANCH  22  23
ATOM     23  O   UNL     1      30.759  -4.434 -23.667  0.00  0.00    -0.266 OA
ATOM     24  H   UNL     1      30.141  -3.803 -23.980  0.00  0.00    +0.247 HD
ENDBRANCH  22  23
ENDBRANCH  17  22
BRANCH   5  25
ATOM     25  O   UNL     1      34.395 -14.822 -25.105  0.00  0.00    -0.443 OA
BRANCH  25  27
ATOM     26  O   UNL     1      33.218 -16.517 -26.143  0.00  0.00    -0.250 OA
ATOM     27  C   UNL     1      33.975 -16.112 -25.271  0.00  0.00    +0.318 C 
ATOM     28  C   UNL     1      34.581 -16.986 -24.214  0.00  0.00    +0.121 C 
ENDBRANCH  25  27
ENDBRANCH   5  25
TORSDOF 6
ENDMDL
MODEL 8
REMARK VINA RESULT:      -4.6      3.945      6.474
REMARK  Name = 6540478
REMARK  6 active torsions:
REMARK  status: ('A' for Active; 'I' for Inactive)
REMARK    1  A    between atoms: N_1  and  C_18
REMARK    2  A    between atoms: N_1  and  O_19
REMARK    3  A    between atoms: C_2  and  C_21
REMARK    4  A    between atoms: C_6  and  C_23
REMARK    5  A    between atoms: C_6  and  O_25
REMARK    6  A    between atoms: O_25  and  C_27
REMARK                            x       y       z     vdW  Elec       q    Type
REMARK                         _______ _______ _______ _____ _____    ______ ____
ROOT
ATOM      1  C   UNL     1      33.694 -23.973 -15.471  0.00  0.00    +0.045 C 
ATOM      2  C   UNL     1      34.744 -22.842 -15.353  0.00  0.00    +0.004 C 
ATOM      3  C   UNL     1      35.618 -22.709 -16.603  0.00  0.00    +0.000 C 
ATOM      4  C   UNL     1      34.696 -22.402 -17.833  0.00  0.00    +0.000 C 
ATOM      5  C   UNL     1      33.067 -23.924 -14.043  0.00  0.00    +0.189 C 
ATOM      6  C   UNL     1      32.766 -23.643 -16.656  0.00  0.00    +0.004 C 
ATOM      7  C   UNL     1      35.418 -23.119 -14.012  0.00  0.00    +0.005 C 
ATOM      8  C   UNL     1      33.549 -23.430 -17.965  0.00  0.00    +0.000 C 
ATOM      9  C   UNL     1      34.303 -23.713 -13.126  0.00  0.00    +0.053 C 
ATOM     10  C   UNL     1      35.576 -22.288 -19.109  0.00  0.00    +0.004 C 
ATOM     11  C   UNL     1      36.704 -21.629 -16.436  0.00  0.00    +0.000 C 
ATOM     12  C   UNL     1      37.517 -21.432 -17.719  0.00  0.00    +0.004 C 
ATOM     13  C   UNL     1      36.580 -21.175 -18.869  0.00  0.00    +0.023 C 
ATOM     14  C   UNL     1      34.825 -22.089 -20.436  0.00  0.00    +0.007 C 
ATOM     15  C   UNL     1      34.357 -20.658 -20.628  0.00  0.00    +0.048 C 
ATOM     16  C   UNL     1      36.601 -20.015 -19.545  0.00  0.00    -0.010 C 
ATOM     17  C   UNL     1      35.540 -19.720 -20.540  0.00  0.00    +0.081 C 
ENDROOT
BRANCH   1  18
ATOM     18  C   UNL     1      34.321 -25.376 -15.722  0.00  0.00    +0.004 C 
ATOM     19  C   UNL     1      35.761 -25.390 -15.284  0.00  0.00    +0.000 C 
ENDBRANCH   1  18
BRANCH   5  20
ATOM     20  C   UNL     1      32.119 -22.806 -13.860  0.00  0.00    -0.040 C 
ATOM     21  C   UNL     1      31.349 -21.898 -13.712  0.00  0.00    -0.011 C 
ENDBRANCH   5  20
BRANCH  17  22
ATOM     22  N   UNL     1      35.562 -18.669 -21.294  0.00  0.00    -0.139 NA
BRANCH  22  23
ATOM     23  O   UNL     1      35.449 -17.543 -20.478  0.00  0.00    -0.266 OA
ATOM     24  H   UNL     1      36.130 -17.334 -19.871  0.00  0.00    +0.247 HD
ENDBRANCH  22  23
ENDBRANCH  17  22
BRANCH   5  25
ATOM     25  O   UNL     1      32.377 -25.117 -13.707  0.00  0.00    -0.443 OA
BRANCH  25  27
ATOM     26  O   UNL     1      30.477 -24.621 -12.489  0.00  0.00    -0.250 OA
ATOM     27  C   UNL     1      31.028 -24.992 -13.517  0.00  0.00    +0.318 C 
ATOM     28  C   UNL     1      30.298 -25.379 -14.768  0.00  0.00    +0.121 C 
ENDBRANCH  25  27
ENDBRANCH   5  25
TORSDOF 6
ENDMDL
MODEL 9
REMARK VINA RESULT:      -4.6     15.934     18.618
REMARK  Name = 6540478
REMARK  6 active torsions:
REMARK  status: ('A' for Active; 'I' for Inactive)
REMARK    1  A    between atoms: N_1  and  C_18
REMARK    2  A    between atoms: N_1  and  O_19
REMARK    3  A    between atoms: C_2  and  C_21
REMARK    4  A    between atoms: C_6  and  C_23
REMARK    5  A    between atoms: C_6  and  O_25
REMARK    6  A    between atoms: O_25  and  C_27
REMARK                            x       y       z     vdW  Elec       q    Type
REMARK                         _______ _______ _______ _____ _____    ______ ____
ROOT
ATOM      1  C   UNL     1      32.770  -7.710 -23.044  0.00  0.00    +0.045 C 
ATOM      2  C   UNL     1      33.447  -8.044 -24.394  0.00  0.00    +0.004 C 
ATOM      3  C   UNL     1      34.177  -9.390 -24.377  0.00  0.00    +0.000 C 
ATOM      4  C   UNL     1      33.143 -10.521 -24.048  0.00  0.00    +0.000 C 
ATOM      5  C   UNL     1      32.232  -6.277 -23.348  0.00  0.00    +0.189 C 
ATOM      6  C   UNL     1      31.725  -8.803 -22.747  0.00  0.00    +0.004 C 
ATOM      7  C   UNL     1      34.242  -6.783 -24.718  0.00  0.00    +0.005 C 
ATOM      8  C   UNL     1      32.342 -10.214 -22.761  0.00  0.00    +0.000 C 
ATOM      9  C   UNL     1      33.398  -5.626 -24.142  0.00  0.00    +0.053 C 
ATOM     10  C   UNL     1      33.882 -11.887 -24.005  0.00  0.00    +0.004 C 
ATOM     11  C   UNL     1      34.906  -9.670 -25.705  0.00  0.00    +0.000 C 
ATOM     12  C   UNL     1      35.557 -11.056 -25.719  0.00  0.00    +0.004 C 
ATOM     13  C   UNL     1      34.527 -12.095 -25.365  0.00  0.00    +0.023 C 
ATOM     14  C   UNL     1      33.038 -13.104 -23.594  0.00  0.00    +0.007 C 
ATOM     15  C   UNL     1      32.162 -13.610 -24.725  0.00  0.00    +0.048 C 
ATOM     16  C   UNL     1      34.172 -13.056 -26.232  0.00  0.00    -0.010 C 
ATOM     17  C   UNL     1      33.020 -13.940 -25.925  0.00  0.00    +0.081 C 
ENDROOT
BRANCH   1  18
ATOM     18  C   UNL     1      33.767  -7.655 -21.849  0.00  0.00    +0.004 C 
ATOM     19  C   UNL     1      33.024  -7.768 -20.544  0.00  0.00    +0.000 C 
ENDBRANCH   1  18
BRANCH   5  20
ATOM     20  C   UNL     1      31.009  -6.276 -24.175  0.00  0.00    -0.040 C 
ATOM     21  C   UNL     1      30.015  -6.276 -24.848  0.00  0.00    -0.011 C 
ENDBRANCH   5  20
BRANCH  17  22
ATOM     22  N   UNL     1      32.693 -14.946 -26.670  0.00  0.00    -0.139 NA
BRANCH  22  23
ATOM     23  O   UNL     1      33.492 -16.032 -26.313  0.00  0.00    -0.266 OA
ATOM     24  H   UNL     1      33.611 -16.743 -26.910  0.00  0.00    +0.247 HD
ENDBRANCH  22  23
ENDBRANCH  17  22
BRANCH   5  25
ATOM     25  O   UNL     1      31.940  -5.541 -22.169  0.00  0.00    -0.443 OA
BRANCH  25  27
ATOM     26  O   UNL     1      29.733  -4.954 -21.822  0.00  0.00    -0.250 OA
ATOM     27  C   UNL     1      30.857  -4.709 -22.240  0.00  0.00    +0.318 C 
ATOM     28  C   UNL     1      31.240  -3.427 -22.916  0.00  0.00    +0.121 C 
ENDBRANCH  25  27
ENDBRANCH   5  25
TORSDOF 6
ENDMDL
