MODEL 1
REMARK VINA RESULT:      -7.5      0.000      0.000
REMARK  Name = 4737
REMARK  4 active torsions:
REMARK  status: ('A' for Active; 'I' for Inactive)
REMARK    1  A    between atoms: C_6  and  C_12
REMARK    2  A    between atoms: C_6  and  C_17
REMARK    3  A    between atoms: C_12  and  C_14
REMARK    4  A    between atoms: C_14  and  C_15
REMARK                            x       y       z     vdW  Elec       q    Type
REMARK                         _______ _______ _______ _____ _____    ______ ____
ROOT
ATOM      1  O   UNL     1      38.223 -22.358 -12.145  0.00  0.00    -0.274 OA
ATOM      2  O   UNL     1      34.592 -24.072 -14.579  0.00  0.00    -0.274 OA
ATOM      3  O   UNL     1      35.211 -25.205 -10.176  0.00  0.00    -0.252 OA
ATOM      4  N   UNL     1      36.773 -23.858 -11.191  0.00  0.00    -0.239 N 
ATOM      5  N   UNL     1      34.959 -24.715 -12.407  0.00  0.00    -0.239 N 
ATOM      6  C   UNL     1      36.777 -23.612 -13.633  0.00  0.00    +0.138 C 
ATOM      7  C   UNL     1      37.321 -23.185 -12.273  0.00  0.00    +0.237 C 
ATOM      8  C   UNL     1      35.339 -24.120 -13.602  0.00  0.00    +0.237 C 
ATOM      9  C   UNL     1      35.628 -24.645 -11.192  0.00  0.00    +0.312 C 
ATOM     10  H   UNL     1      37.245 -23.768 -10.332  0.00  0.00    +0.159 HD
ATOM     11  H   UNL     1      34.126 -25.240 -12.423  0.00  0.00    +0.159 HD
ENDROOT
BRANCH   6  12
ATOM     12  C   UNL     1      37.655 -24.776 -14.124  0.00  0.00    +0.016 C 
ATOM     13  C   UNL     1      36.780 -26.002 -14.403  0.00  0.00    +0.001 C 
BRANCH  12  14
ATOM     14  C   UNL     1      38.760 -25.147 -13.118  0.00  0.00    +0.001 C 
BRANCH  14  15
ATOM     15  C   UNL     1      39.992 -25.780 -13.770  0.00  0.00    +0.000 C 
ATOM     16  C   UNL     1      40.240 -25.209 -15.158  0.00  0.00    +0.000 C 
ENDBRANCH  14  15
ENDBRANCH  12  14
ENDBRANCH   6  12
BRANCH   6  17
ATOM     17  C   UNL     1      36.886 -22.442 -14.621  0.00  0.00    +0.017 C 
ATOM     18  C   UNL     1      37.620 -22.860 -15.875  0.00  0.00    +0.001 C 
ENDBRANCH   6  17
TORSDOF 4
ENDMDL
MODEL 2
REMARK VINA RESULT:      -7.4      2.237      3.915
REMARK  Name = 4737
REMARK  4 active torsions:
REMARK  status: ('A' for Active; 'I' for Inactive)
REMARK    1  A    between atoms: C_6  and  C_12
REMARK    2  A    between atoms: C_6  and  C_17
REMARK    3  A    between atoms: C_12  and  C_14
REMARK    4  A    between atoms: C_14  and  C_15
REMARK                            x       y       z     vdW  Elec       q    Type
REMARK                         _______ _______ _______ _____ _____    ______ ____
ROOT
ATOM      1  O   UNL     1      39.839 -24.648 -14.443  0.00  0.00    -0.274 OA
ATOM      2  O   UNL     1      35.745 -25.309 -12.243  0.00  0.00    -0.274 OA
ATOM      3  O   UNL     1      36.655 -27.446 -16.200  0.00  0.00    -0.252 OA
ATOM      4  N   UNL     1      38.208 -25.969 -15.369  0.00  0.00    -0.239 N 
ATOM      5  N   UNL     1      36.162 -26.299 -14.270  0.00  0.00    -0.239 N 
ATOM      6  C   UNL     1      37.596 -24.443 -13.548  0.00  0.00    +0.138 C 
ATOM      7  C   UNL     1      38.669 -25.028 -14.461  0.00  0.00    +0.237 C 
ATOM      8  C   UNL     1      36.433 -25.388 -13.259  0.00  0.00    +0.237 C 
ATOM      9  C   UNL     1      36.979 -26.616 -15.348  0.00  0.00    +0.312 C 
ATOM     10  H   UNL     1      38.816 -26.204 -16.106  0.00  0.00    +0.159 HD
ATOM     11  H   UNL     1      35.299 -26.771 -14.217  0.00  0.00    +0.159 HD
ENDROOT
BRANCH   6  12
ATOM     12  C   UNL     1      37.010 -23.216 -14.270  0.00  0.00    +0.016 C 
ATOM     13  C   UNL     1      35.490 -23.362 -14.384  0.00  0.00    +0.001 C 
BRANCH  12  14
ATOM     14  C   UNL     1      37.617 -23.009 -15.669  0.00  0.00    +0.001 C 
BRANCH  14  15
ATOM     15  C   UNL     1      37.253 -21.663 -16.299  0.00  0.00    +0.000 C 
ATOM     16  C   UNL     1      36.734 -21.837 -17.718  0.00  0.00    +0.000 C 
ENDBRANCH  14  15
ENDBRANCH  12  14
ENDBRANCH   6  12
BRANCH   6  17
ATOM     17  C   UNL     1      38.234 -23.996 -12.225  0.00  0.00    +0.017 C 
ATOM     18  C   UNL     1      37.677 -22.663 -11.779  0.00  0.00    +0.001 C 
ENDBRANCH   6  17
TORSDOF 4
ENDMDL
MODEL 3
REMARK VINA RESULT:      -7.4     17.150     18.809
REMARK  Name = 4737
REMARK  4 active torsions:
REMARK  status: ('A' for Active; 'I' for Inactive)
REMARK    1  A    between atoms: C_6  and  C_12
REMARK    2  A    between atoms: C_6  and  C_17
REMARK    3  A    between atoms: C_12  and  C_14
REMARK    4  A    between atoms: C_14  and  C_15
REMARK                            x       y       z     vdW  Elec       q    Type
REMARK                         _______ _______ _______ _____ _____    ______ ____
ROOT
ATOM      1  O   UNL     1      32.983  -7.401 -19.958  0.00  0.00    -0.274 OA
ATOM      2  O   UNL     1      31.045  -8.021 -24.190  0.00  0.00    -0.274 OA
ATOM      3  O   UNL     1      31.042 -11.403 -21.088  0.00  0.00    -0.252 OA
ATOM      4  N   UNL     1      32.100  -9.432 -20.560  0.00  0.00    -0.239 N 
ATOM      5  N   UNL     1      31.132  -9.742 -22.674  0.00  0.00    -0.239 N 
ATOM      6  C   UNL     1      32.565  -7.782 -22.316  0.00  0.00    +0.138 C 
ATOM      7  C   UNL     1      32.556  -8.151 -20.836  0.00  0.00    +0.237 C 
ATOM      8  C   UNL     1      31.499  -8.489 -23.146  0.00  0.00    +0.237 C 
ATOM      9  C   UNL     1      31.414 -10.277 -21.423  0.00  0.00    +0.312 C 
ATOM     10  H   UNL     1      32.281  -9.778 -19.656  0.00  0.00    +0.159 HD
ATOM     11  H   UNL     1      30.617 -10.311 -23.291  0.00  0.00    +0.159 HD
ENDROOT
BRANCH   6  12
ATOM     12  C   UNL     1      33.932  -8.211 -22.879  0.00  0.00    +0.016 C 
ATOM     13  C   UNL     1      34.503  -7.093 -23.755  0.00  0.00    +0.001 C 
BRANCH  12  14
ATOM     14  C   UNL     1      33.851  -9.517 -23.692  0.00  0.00    +0.001 C 
BRANCH  14  15
ATOM     15  C   UNL     1      35.044  -9.727 -24.628  0.00  0.00    +0.000 C 
ATOM     16  C   UNL     1      34.815 -10.906 -25.561  0.00  0.00    +0.000 C 
ENDBRANCH  14  15
ENDBRANCH  12  14
ENDBRANCH   6  12
BRANCH   6  17
ATOM     17  C   UNL     1      32.409  -6.262 -22.467  0.00  0.00    +0.017 C 
ATOM     18  C   UNL     1      31.070  -5.800 -21.937  0.00  0.00    +0.001 C 
ENDBRANCH   6  17
TORSDOF 4
ENDMDL
MODEL 4
REMARK VINA RESULT:      -7.3      2.593      4.488
REMARK  Name = 4737
REMARK  4 active torsions:
REMARK  status: ('A' for Active; 'I' for Inactive)
REMARK    1  A    between atoms: C_6  and  C_12
REMARK    2  A    between atoms: C_6  and  C_17
REMARK    3  A    between atoms: C_12  and  C_14
REMARK    4  A    between atoms: C_14  and  C_15
REMARK                            x       y       z     vdW  Elec       q    Type
REMARK                         _______ _______ _______ _____ _____    ______ ____
ROOT
ATOM      1  O   UNL     1      37.592 -22.649 -14.775  0.00  0.00    -0.274 OA
ATOM      2  O   UNL     1      36.407 -25.854 -11.555  0.00  0.00    -0.274 OA
ATOM      3  O   UNL     1      39.341 -26.889 -14.927  0.00  0.00    -0.252 OA
ATOM      4  N   UNL     1      38.389 -24.797 -14.906  0.00  0.00    -0.239 N 
ATOM      5  N   UNL     1      37.796 -26.398 -13.297  0.00  0.00    -0.239 N 
ATOM      6  C   UNL     1      36.470 -24.339 -13.446  0.00  0.00    +0.138 C 
ATOM      7  C   UNL     1      37.534 -23.823 -14.411  0.00  0.00    +0.237 C 
ATOM      8  C   UNL     1      36.887 -25.573 -12.652  0.00  0.00    +0.237 C 
ATOM      9  C   UNL     1      38.551 -26.089 -14.422  0.00  0.00    +0.312 C 
ATOM     10  H   UNL     1      38.938 -24.546 -15.683  0.00  0.00    +0.159 HD
ATOM     11  H   UNL     1      37.920 -27.298 -12.917  0.00  0.00    +0.159 HD
ENDROOT
BRANCH   6  12
ATOM     12  C   UNL     1      35.251 -24.741 -14.295  0.00  0.00    +0.016 C 
ATOM     13  C   UNL     1      35.340 -24.080 -15.673  0.00  0.00    +0.001 C 
BRANCH  12  14
ATOM     14  C   UNL     1      33.916 -24.365 -13.625  0.00  0.00    +0.001 C 
BRANCH  14  15
ATOM     15  C   UNL     1      32.980 -23.567 -14.537  0.00  0.00    +0.000 C 
ATOM     16  C   UNL     1      31.701 -23.177 -13.811  0.00  0.00    +0.000 C 
ENDBRANCH  14  15
ENDBRANCH  12  14
ENDBRANCH   6  12
BRANCH   6  17
ATOM     17  C   UNL     1      36.067 -23.218 -12.479  0.00  0.00    +0.017 C 
ATOM     18  C   UNL     1      37.216 -22.851 -11.566  0.00  0.00    +0.001 C 
ENDBRANCH   6  17
TORSDOF 4
ENDMDL
MODEL 5
REMARK VINA RESULT:      -7.3      1.332      3.570
REMARK  Name = 4737
REMARK  4 active torsions:
REMARK  status: ('A' for Active; 'I' for Inactive)
REMARK    1  A    between atoms: C_6  and  C_12
REMARK    2  A    between atoms: C_6  and  C_17
REMARK    3  A    between atoms: C_12  and  C_14
REMARK    4  A    between atoms: C_14  and  C_15
REMARK                            x       y       z     vdW  Elec       q    Type
REMARK                         _______ _______ _______ _____ _____    ______ ____
ROOT
ATOM      1  O   UNL     1      36.574 -26.221 -14.833  0.00  0.00    -0.274 OA
ATOM      2  O   UNL     1      39.258 -23.474 -12.131  0.00  0.00    -0.274 OA
ATOM      3  O   UNL     1      35.174 -24.952 -10.652  0.00  0.00    -0.252 OA
ATOM      4  N   UNL     1      35.833 -25.505 -12.783  0.00  0.00    -0.239 N 
ATOM      5  N   UNL     1      37.174 -24.132 -11.434  0.00  0.00    -0.239 N 
ATOM      6  C   UNL     1      37.749 -24.364 -13.808  0.00  0.00    +0.138 C 
ATOM      7  C   UNL     1      36.696 -25.466 -13.869  0.00  0.00    +0.237 C 
ATOM      8  C   UNL     1      38.162 -23.967 -12.394  0.00  0.00    +0.237 C 
ATOM      9  C   UNL     1      35.995 -24.856 -11.566  0.00  0.00    +0.312 C 
ATOM     10  H   UNL     1      35.021 -26.051 -12.887  0.00  0.00    +0.159 HD
ATOM     11  H   UNL     1      37.325 -23.691 -10.566  0.00  0.00    +0.159 HD
ENDROOT
BRANCH   6  12
ATOM     12  C   UNL     1      37.133 -23.116 -14.465  0.00  0.00    +0.016 C 
ATOM     13  C   UNL     1      35.611 -23.269 -14.538  0.00  0.00    +0.001 C 
BRANCH  12  14
ATOM     14  C   UNL     1      37.696 -22.851 -15.873  0.00  0.00    +0.001 C 
BRANCH  14  15
ATOM     15  C   UNL     1      37.188 -21.550 -16.499  0.00  0.00    +0.000 C 
ATOM     16  C   UNL     1      36.692 -21.774 -17.919  0.00  0.00    +0.000 C 
ENDBRANCH  14  15
ENDBRANCH  12  14
ENDBRANCH   6  12
BRANCH   6  17
ATOM     17  C   UNL     1      38.990 -24.795 -14.602  0.00  0.00    +0.017 C 
ATOM     18  C   UNL     1      39.739 -25.894 -13.882  0.00  0.00    +0.001 C 
ENDBRANCH   6  17
TORSDOF 4
ENDMDL
MODEL 6
REMARK VINA RESULT:      -6.9      1.976      4.202
REMARK  Name = 4737
REMARK  4 active torsions:
REMARK  status: ('A' for Active; 'I' for Inactive)
REMARK    1  A    between atoms: C_6  and  C_12
REMARK    2  A    between atoms: C_6  and  C_17
REMARK    3  A    between atoms: C_12  and  C_14
REMARK    4  A    between atoms: C_14  and  C_15
REMARK                            x       y       z     vdW  Elec       q    Type
REMARK                         _______ _______ _______ _____ _____    ______ ____
ROOT
ATOM      1  O   UNL     1      36.339 -26.364 -15.645  0.00  0.00    -0.274 OA
ATOM      2  O   UNL     1      37.693 -22.663 -13.092  0.00  0.00    -0.274 OA
ATOM      3  O   UNL     1      33.430 -24.323 -12.742  0.00  0.00    -0.252 OA
ATOM      4  N   UNL     1      34.857 -25.282 -14.267  0.00  0.00    -0.239 N 
ATOM      5  N   UNL     1      35.534 -23.433 -12.992  0.00  0.00    -0.239 N 
ATOM      6  C   UNL     1      36.957 -24.157 -14.855  0.00  0.00    +0.138 C 
ATOM      7  C   UNL     1      36.057 -25.385 -14.955  0.00  0.00    +0.237 C 
ATOM      8  C   UNL     1      36.797 -23.364 -13.561  0.00  0.00    +0.237 C 
ATOM      9  C   UNL     1      34.525 -24.335 -13.306  0.00  0.00    +0.312 C 
ATOM     10  H   UNL     1      34.169 -25.952 -14.481  0.00  0.00    +0.159 HD
ATOM     11  H   UNL     1      35.332 -22.773 -12.289  0.00  0.00    +0.159 HD
ENDROOT
BRANCH   6  12
ATOM     12  C   UNL     1      36.567 -23.218 -16.010  0.00  0.00    +0.016 C 
ATOM     13  C   UNL     1      37.571 -22.065 -16.100  0.00  0.00    +0.001 C 
BRANCH  12  14
ATOM     14  C   UNL     1      35.143 -22.653 -15.855  0.00  0.00    +0.001 C 
BRANCH  14  15
ATOM     15  C   UNL     1      34.231 -22.963 -17.044  0.00  0.00    +0.000 C 
ATOM     16  C   UNL     1      32.825 -23.321 -16.586  0.00  0.00    +0.000 C 
ENDBRANCH  14  15
ENDBRANCH  12  14
ENDBRANCH   6  12
BRANCH   6  17
ATOM     17  C   UNL     1      38.424 -24.580 -15.019  0.00  0.00    +0.017 C 
ATOM     18  C   UNL     1      38.862 -25.470 -13.877  0.00  0.00    +0.001 C 
ENDBRANCH   6  17
TORSDOF 4
ENDMDL
MODEL 7
REMARK VINA RESULT:      -6.8      1.657      3.073
REMARK  Name = 4737
REMARK  4 active torsions:
REMARK  status: ('A' for Active; 'I' for Inactive)
REMARK    1  A    between atoms: C_6  and  C_12
REMARK    2  A    between atoms: C_6  and  C_17
REMARK    3  A    between atoms: C_12  and  C_14
REMARK    4  A    between atoms: C_14  and  C_15
REMARK                            x       y       z     vdW  Elec       q    Type
REMARK                         _______ _______ _______ _____ _____    ______ ____
ROOT
ATOM      1  O   UNL     1      34.953 -24.818 -11.475  0.00  0.00    -0.274 OA
ATOM      2  O   UNL     1      37.609 -22.712 -14.724  0.00  0.00    -0.274 OA
ATOM      3  O   UNL     1      33.091 -23.210 -15.348  0.00  0.00    -0.252 OA
ATOM      4  N   UNL     1      34.041 -24.102 -13.454  0.00  0.00    -0.239 N 
ATOM      5  N   UNL     1      35.368 -23.050 -15.078  0.00  0.00    -0.239 N 
ATOM      6  C   UNL     1      36.481 -24.306 -13.287  0.00  0.00    +0.138 C 
ATOM      7  C   UNL     1      35.109 -24.417 -12.628  0.00  0.00    +0.237 C 
ATOM      8  C   UNL     1      36.560 -23.267 -14.401  0.00  0.00    +0.237 C 
ATOM      9  C   UNL     1      34.099 -23.452 -14.681  0.00  0.00    +0.312 C 
ATOM     10  H   UNL     1      33.147 -24.366 -13.138  0.00  0.00    +0.159 HD
ATOM     11  H   UNL     1      35.429 -22.558 -15.929  0.00  0.00    +0.159 HD
ENDROOT
BRANCH   6  12
ATOM     12  C   UNL     1      36.785 -25.673 -13.924  0.00  0.00    +0.016 C 
ATOM     13  C   UNL     1      37.263 -26.650 -12.846  0.00  0.00    +0.001 C 
BRANCH  12  14
ATOM     14  C   UNL     1      37.839 -25.581 -15.043  0.00  0.00    +0.001 C 
BRANCH  14  15
ATOM     15  C   UNL     1      39.193 -26.183 -14.658  0.00  0.00    +0.000 C 
ATOM     16  C   UNL     1      40.311 -25.159 -14.785  0.00  0.00    +0.000 C 
ENDBRANCH  14  15
ENDBRANCH  12  14
ENDBRANCH   6  12
BRANCH   6  17
ATOM     17  C   UNL     1      37.540 -23.996 -12.220  0.00  0.00    +0.017 C 
ATOM     18  C   UNL     1      37.234 -22.693 -11.516  0.00  0.00    +0.001 C 
ENDBRANCH   6  17
TORSDOF 4
ENDMDL
MODEL 8
REMARK VINA RESULT:      -6.7     18.297     20.111
REMARK  Name = 4737
REMARK  4 active torsions:
REMARK  status: ('A' for Active; 'I' for Inactive)
REMARK    1  A    between atoms: C_6  and  C_12
REMARK    2  A    between atoms: C_6  and  C_17
REMARK    3  A    between atoms: C_12  and  C_14
REMARK    4  A    between atoms: C_14  and  C_15
REMARK                            x       y       z     vdW  Elec       q    Type
REMARK                         _______ _______ _______ _____ _____    ______ ____
ROOT
ATOM      1  O   UNL     1      30.869  -8.273 -24.027  0.00  0.00    -0.274 OA
ATOM      2  O   UNL     1      32.917  -7.230 -19.933  0.00  0.00    -0.274 OA
ATOM      3  O   UNL     1      29.984  -4.303 -21.903  0.00  0.00    -0.252 OA
ATOM      4  N   UNL     1      30.504  -6.247 -23.013  0.00  0.00    -0.239 N 
ATOM      5  N   UNL     1      31.528  -5.726 -20.967  0.00  0.00    -0.239 N 
ATOM      6  C   UNL     1      32.405  -7.610 -22.272  0.00  0.00    +0.138 C 
ATOM      7  C   UNL     1      31.186  -7.444 -23.175  0.00  0.00    +0.237 C 
ATOM      8  C   UNL     1      32.305  -6.875 -20.939  0.00  0.00    +0.237 C 
ATOM      9  C   UNL     1      30.639  -5.345 -21.965  0.00  0.00    +0.312 C 
ATOM     10  H   UNL     1      29.855  -6.013 -23.715  0.00  0.00    +0.159 HD
ATOM     11  H   UNL     1      31.614  -5.118 -20.198  0.00  0.00    +0.159 HD
ENDROOT
BRANCH   6  12
ATOM     12  C   UNL     1      33.608  -7.014 -23.025  0.00  0.00    +0.016 C 
ATOM     13  C   UNL     1      33.146  -6.453 -24.373  0.00  0.00    +0.001 C 
BRANCH  12  14
ATOM     14  C   UNL     1      34.732  -8.042 -23.250  0.00  0.00    +0.001 C 
BRANCH  14  15
ATOM     15  C   UNL     1      34.828  -8.535 -24.696  0.00  0.00    +0.000 C 
ATOM     16  C   UNL     1      35.007 -10.045 -24.756  0.00  0.00    +0.000 C 
ENDBRANCH  14  15
ENDBRANCH  12  14
ENDBRANCH   6  12
BRANCH   6  17
ATOM     17  C   UNL     1      32.656  -9.103 -22.017  0.00  0.00    +0.017 C 
ATOM     18  C   UNL     1      31.582  -9.688 -21.127  0.00  0.00    +0.001 C 
ENDBRANCH   6  17
TORSDOF 4
ENDMDL
MODEL 9
REMARK VINA RESULT:      -6.7      2.661      4.440
REMARK  Name = 4737
REMARK  4 active torsions:
REMARK  status: ('A' for Active; 'I' for Inactive)
REMARK    1  A    between atoms: C_6  and  C_12
REMARK    2  A    between atoms: C_6  and  C_17
REMARK    3  A    between atoms: C_12  and  C_14
REMARK    4  A    between atoms: C_14  and  C_15
REMARK                            x       y       z     vdW  Elec       q    Type
REMARK                         _______ _______ _______ _____ _____    ______ ____
ROOT
ATOM      1  O   UNL     1      37.765 -22.961 -12.944  0.00  0.00    -0.274 OA
ATOM      2  O   UNL     1      35.736 -26.595 -15.117  0.00  0.00    -0.274 OA
ATOM      3  O   UNL     1      40.270 -25.940 -15.374  0.00  0.00    -0.252 OA
ATOM      4  N   UNL     1      39.002 -24.394 -14.240  0.00  0.00    -0.239 N 
ATOM      5  N   UNL     1      37.988 -26.210 -15.326  0.00  0.00    -0.239 N 
ATOM      6  C   UNL     1      36.559 -24.408 -14.471  0.00  0.00    +0.138 C 
ATOM      7  C   UNL     1      37.806 -23.858 -13.785  0.00  0.00    +0.237 C 
ATOM      8  C   UNL     1      36.698 -25.842 -14.972  0.00  0.00    +0.237 C 
ATOM      9  C   UNL     1      39.162 -25.533 -15.019  0.00  0.00    +0.312 C 
ATOM     10  H   UNL     1      39.823 -23.918 -13.982  0.00  0.00    +0.159 HD
ATOM     11  H   UNL     1      38.081 -27.039 -15.849  0.00  0.00    +0.159 HD
ENDROOT
BRANCH   6  12
ATOM     12  C   UNL     1      36.295 -23.524 -15.703  0.00  0.00    +0.016 C 
ATOM     13  C   UNL     1      37.371 -22.439 -15.799  0.00  0.00    +0.001 C 
BRANCH  12  14
ATOM     14  C   UNL     1      34.901 -22.871 -15.673  0.00  0.00    +0.001 C 
BRANCH  14  15
ATOM     15  C   UNL     1      33.942 -23.431 -16.727  0.00  0.00    +0.000 C 
ATOM     16  C   UNL     1      34.079 -22.691 -18.049  0.00  0.00    +0.000 C 
ENDBRANCH  14  15
ENDBRANCH  12  14
ENDBRANCH   6  12
BRANCH   6  17
ATOM     17  C   UNL     1      35.362 -24.313 -13.513  0.00  0.00    +0.017 C 
ATOM     18  C   UNL     1      35.714 -24.868 -12.151  0.00  0.00    +0.001 C 
ENDBRANCH   6  17
TORSDOF 4
ENDMDL
