MODEL 1
REMARK VINA RESULT:      -8.6      0.000      0.000
REMARK  Name = 5311
REMARK  9 active torsions:
REMARK  status: ('A' for Active; 'I' for Inactive)
REMARK    1  A    between atoms: C_1  and  C_2
REMARK    2  A    between atoms: C_1  and  C_12
REMARK    3  A    between atoms: C_2  and  C_3
REMARK    4  A    between atoms: C_3  and  C_4
REMARK    5  A    between atoms: C_4  and  C_5
REMARK    6  A    between atoms: C_5  and  C_8
REMARK    7  A    between atoms: N_7  and  O_10
REMARK    8  A    between atoms: C_12  and  C_15
REMARK    9  A    between atoms: N_14  and  C_17
REMARK                            x       y       z     vdW  Elec       q    Type
REMARK                         _______ _______ _______ _____ _____    ______ ____
ROOT
ATOM      1  C   UNL     1      34.099 -14.556 -22.257  0.00  0.00    +0.010 C 
ENDROOT
BRANCH   1   2
ATOM      2  C   UNL     1      32.678 -14.794 -21.738  0.00  0.00    +0.001 C 
BRANCH   2   3
ATOM      3  C   UNL     1      32.352 -13.860 -20.569  0.00  0.00    +0.001 C 
BRANCH   3   4
ATOM      4  C   UNL     1      31.917 -12.479 -21.068  0.00  0.00    +0.010 C 
BRANCH   4   5
ATOM      5  C   UNL     1      31.716 -11.483 -19.927  0.00  0.00    +0.087 C 
BRANCH   5   8
ATOM      6  O   UNL     1      31.750  -9.666 -21.495  0.00  0.00    -0.273 OA
ATOM      7  N   UNL     1      32.491  -9.280 -19.339  0.00  0.00    -0.197 N 
ATOM      8  C   UNL     1      31.981 -10.053 -20.351  0.00  0.00    +0.244 C 
ATOM      9  H   UNL     1      32.657  -9.642 -18.439  0.00  0.00    +0.182 HD
BRANCH   7  10
ATOM     10  O   UNL     1      32.763  -7.945 -19.665  0.00  0.00    -0.295 OA
ATOM     11  H   UNL     1      32.299  -7.710 -20.483  0.00  0.00    +0.241 HD
ENDBRANCH   7  10
ENDBRANCH   5   8
ENDBRANCH   4   5
ENDBRANCH   3   4
ENDBRANCH   2   3
ENDBRANCH   1   2
BRANCH   1  12
ATOM     12  C   UNL     1      34.825 -15.860 -22.584  0.00  0.00    +0.085 C 
BRANCH  12  15
ATOM     13  O   UNL     1      35.236 -16.528 -20.305  0.00  0.00    -0.275 OA
ATOM     14  N   UNL     1      34.459 -18.114 -21.852  0.00  0.00    -0.284 N 
ATOM     15  C   UNL     1      34.865 -16.852 -21.427  0.00  0.00    +0.226 C 
ATOM     16  H   UNL     1      34.212 -18.195 -22.801  0.00  0.00    +0.155 HD
BRANCH  14  17
ATOM     17  C   UNL     1      34.362 -19.294 -21.077  0.00  0.00    +0.050 C 
ATOM     18  C   UNL     1      35.516 -19.995 -20.725  0.00  0.00    +0.015 C 
ATOM     19  C   UNL     1      33.112 -19.758 -20.666  0.00  0.00    +0.015 C 
ATOM     20  C   UNL     1      35.420 -21.157 -19.961  0.00  0.00    +0.001 C 
ATOM     21  C   UNL     1      33.016 -20.921 -19.902  0.00  0.00    +0.001 C 
ATOM     22  C   UNL     1      34.171 -21.621 -19.549  0.00  0.00    +0.000 C 
ENDBRANCH  14  17
ENDBRANCH  12  15
ENDBRANCH   1  12
TORSDOF 9
ENDMDL
MODEL 2
REMARK VINA RESULT:      -8.5      5.639      9.250
REMARK  Name = 5311
REMARK  9 active torsions:
REMARK  status: ('A' for Active; 'I' for Inactive)
REMARK    1  A    between atoms: C_1  and  C_2
REMARK    2  A    between atoms: C_1  and  C_12
REMARK    3  A    between atoms: C_2  and  C_3
REMARK    4  A    between atoms: C_3  and  C_4
REMARK    5  A    between atoms: C_4  and  C_5
REMARK    6  A    between atoms: C_5  and  C_8
REMARK    7  A    between atoms: N_7  and  O_10
REMARK    8  A    between atoms: C_12  and  C_15
REMARK    9  A    between atoms: N_14  and  C_17
REMARK                            x       y       z     vdW  Elec       q    Type
REMARK                         _______ _______ _______ _____ _____    ______ ____
ROOT
ATOM      1  C   UNL     1      33.211 -22.652 -18.315  0.00  0.00    +0.010 C 
ENDROOT
BRANCH   1   2
ATOM      2  C   UNL     1      33.702 -23.243 -16.990  0.00  0.00    +0.001 C 
BRANCH   2   3
ATOM      3  C   UNL     1      32.542 -23.455 -16.013  0.00  0.00    +0.001 C 
BRANCH   3   4
ATOM      4  C   UNL     1      31.234 -22.890 -16.575  0.00  0.00    +0.010 C 
BRANCH   4   5
ATOM      5  C   UNL     1      30.139 -22.791 -15.514  0.00  0.00    +0.087 C 
BRANCH   5   8
ATOM      6  O   UNL     1      27.902 -21.920 -15.554  0.00  0.00    -0.273 OA
ATOM      7  N   UNL     1      28.606 -23.241 -17.316  0.00  0.00    -0.197 N 
ATOM      8  C   UNL     1      28.763 -22.595 -16.116  0.00  0.00    +0.244 C 
ATOM      9  H   UNL     1      29.330 -23.769 -17.722  0.00  0.00    +0.182 HD
BRANCH   7  10
ATOM     10  O   UNL     1      27.353 -23.104 -17.927  0.00  0.00    -0.295 OA
ATOM     11  H   UNL     1      27.472 -22.849 -18.855  0.00  0.00    +0.241 HD
ENDBRANCH   7  10
ENDBRANCH   5   8
ENDBRANCH   4   5
ENDBRANCH   3   4
ENDBRANCH   2   3
ENDBRANCH   1   2
BRANCH   1  12
ATOM     12  C   UNL     1      34.336 -21.993 -19.111  0.00  0.00    +0.085 C 
BRANCH  12  15
ATOM     13  O   UNL     1      32.716 -20.436 -19.984  0.00  0.00    -0.275 OA
ATOM     14  N   UNL     1      34.954 -20.284 -20.675  0.00  0.00    -0.284 N 
ATOM     15  C   UNL     1      33.883 -20.811 -19.959  0.00  0.00    +0.226 C 
ATOM     16  H   UNL     1      35.824 -20.726 -20.544  0.00  0.00    +0.155 HD
BRANCH  14  17
ATOM     17  C   UNL     1      34.938 -19.186 -21.569  0.00  0.00    +0.050 C 
ATOM     18  C   UNL     1      35.006 -17.883 -21.075  0.00  0.00    +0.015 C 
ATOM     19  C   UNL     1      34.855 -19.408 -22.943  0.00  0.00    +0.015 C 
ATOM     20  C   UNL     1      34.991 -16.803 -21.956  0.00  0.00    +0.001 C 
ATOM     21  C   UNL     1      34.839 -18.326 -23.824  0.00  0.00    +0.001 C 
ATOM     22  C   UNL     1      34.907 -17.023 -23.330  0.00  0.00    +0.000 C 
ENDBRANCH  14  17
ENDBRANCH  12  15
ENDBRANCH   1  12
TORSDOF 9
ENDMDL
MODEL 3
REMARK VINA RESULT:      -8.4      7.140      9.733
REMARK  Name = 5311
REMARK  9 active torsions:
REMARK  status: ('A' for Active; 'I' for Inactive)
REMARK    1  A    between atoms: C_1  and  C_2
REMARK    2  A    between atoms: C_1  and  C_12
REMARK    3  A    between atoms: C_2  and  C_3
REMARK    4  A    between atoms: C_3  and  C_4
REMARK    5  A    between atoms: C_4  and  C_5
REMARK    6  A    between atoms: C_5  and  C_8
REMARK    7  A    between atoms: N_7  and  O_10
REMARK    8  A    between atoms: C_12  and  C_15
REMARK    9  A    between atoms: N_14  and  C_17
REMARK                            x       y       z     vdW  Elec       q    Type
REMARK                         _______ _______ _______ _____ _____    ______ ____
ROOT
ATOM      1  C   UNL     1      33.361 -23.523 -15.430  0.00  0.00    +0.010 C 
ENDROOT
BRANCH   1   2
ATOM      2  C   UNL     1      32.161 -23.056 -14.601  0.00  0.00    +0.001 C 
BRANCH   2   3
ATOM      3  C   UNL     1      30.927 -23.919 -14.879  0.00  0.00    +0.001 C 
BRANCH   3   4
ATOM      4  C   UNL     1      29.668 -23.058 -15.017  0.00  0.00    +0.010 C 
BRANCH   4   5
ATOM      5  C   UNL     1      29.361 -22.703 -16.472  0.00  0.00    +0.087 C 
BRANCH   5   8
ATOM      6  O   UNL     1      27.449 -23.266 -17.809  0.00  0.00    -0.273 OA
ATOM      7  N   UNL     1      27.111 -22.160 -15.807  0.00  0.00    -0.197 N 
ATOM      8  C   UNL     1      27.879 -22.748 -16.780  0.00  0.00    +0.244 C 
ATOM      9  H   UNL     1      27.509 -21.759 -15.001  0.00  0.00    +0.182 HD
BRANCH   7  10
ATOM     10  O   UNL     1      25.728 -22.163 -16.032  0.00  0.00    -0.295 OA
ATOM     11  H   UNL     1      25.284 -21.684 -15.315  0.00  0.00    +0.241 HD
ENDBRANCH   7  10
ENDBRANCH   5   8
ENDBRANCH   4   5
ENDBRANCH   3   4
ENDBRANCH   2   3
ENDBRANCH   1   2
BRANCH   1  12
ATOM     12  C   UNL     1      33.044 -23.595 -16.923  0.00  0.00    +0.085 C 
BRANCH  12  15
ATOM     13  O   UNL     1      35.191 -22.770 -17.646  0.00  0.00    -0.275 OA
ATOM     14  N   UNL     1      33.241 -22.001 -18.704  0.00  0.00    -0.284 N 
ATOM     15  C   UNL     1      33.974 -22.757 -17.793  0.00  0.00    +0.226 C 
ATOM     16  H   UNL     1      32.263 -22.104 -18.667  0.00  0.00    +0.155 HD
BRANCH  14  17
ATOM     17  C   UNL     1      33.739 -21.102 -19.677  0.00  0.00    +0.050 C 
ATOM     18  C   UNL     1      35.107 -21.053 -19.946  0.00  0.00    +0.015 C 
ATOM     19  C   UNL     1      32.862 -20.265 -20.366  0.00  0.00    +0.015 C 
ATOM     20  C   UNL     1      35.597 -20.168 -20.905  0.00  0.00    +0.001 C 
ATOM     21  C   UNL     1      33.353 -19.379 -21.325  0.00  0.00    +0.001 C 
ATOM     22  C   UNL     1      34.722 -19.331 -21.595  0.00  0.00    +0.000 C 
ENDBRANCH  14  17
ENDBRANCH  12  15
ENDBRANCH   1  12
TORSDOF 9
ENDMDL
MODEL 4
REMARK VINA RESULT:      -8.2      2.962      3.375
REMARK  Name = 5311
REMARK  9 active torsions:
REMARK  status: ('A' for Active; 'I' for Inactive)
REMARK    1  A    between atoms: C_1  and  C_2
REMARK    2  A    between atoms: C_1  and  C_12
REMARK    3  A    between atoms: C_2  and  C_3
REMARK    4  A    between atoms: C_3  and  C_4
REMARK    5  A    between atoms: C_4  and  C_5
REMARK    6  A    between atoms: C_5  and  C_8
REMARK    7  A    between atoms: N_7  and  O_10
REMARK    8  A    between atoms: C_12  and  C_15
REMARK    9  A    between atoms: N_14  and  C_17
REMARK                            x       y       z     vdW  Elec       q    Type
REMARK                         _______ _______ _______ _____ _____    ______ ____
ROOT
ATOM      1  C   UNL     1      34.740 -17.204 -24.133  0.00  0.00    +0.010 C 
ENDROOT
BRANCH   1   2
ATOM      2  C   UNL     1      34.012 -16.094 -24.896  0.00  0.00    +0.001 C 
BRANCH   2   3
ATOM      3  C   UNL     1      33.793 -14.864 -24.010  0.00  0.00    +0.001 C 
BRANCH   3   4
ATOM      4  C   UNL     1      32.861 -13.853 -24.685  0.00  0.00    +0.010 C 
BRANCH   4   5
ATOM      5  C   UNL     1      33.627 -12.730 -25.383  0.00  0.00    +0.087 C 
BRANCH   5   8
ATOM      6  O   UNL     1      33.146 -11.289 -23.524  0.00  0.00    -0.273 OA
ATOM      7  N   UNL     1      35.008 -10.839 -24.819  0.00  0.00    -0.197 N 
ATOM      8  C   UNL     1      33.888 -11.550 -24.470  0.00  0.00    +0.244 C 
ATOM      9  H   UNL     1      35.568 -11.093 -25.588  0.00  0.00    +0.182 HD
BRANCH   7  10
ATOM     10  O   UNL     1      35.306  -9.730 -24.017  0.00  0.00    -0.295 OA
ATOM     11  H   UNL     1      34.574  -9.094 -24.059  0.00  0.00    +0.241 HD
ENDBRANCH   7  10
ENDBRANCH   5   8
ENDBRANCH   4   5
ENDBRANCH   3   4
ENDBRANCH   2   3
ENDBRANCH   1   2
BRANCH   1  12
ATOM     12  C   UNL     1      35.497 -16.674 -22.916  0.00  0.00    +0.085 C 
BRANCH  12  15
ATOM     13  O   UNL     1      35.227 -16.893 -20.531  0.00  0.00    -0.275 OA
ATOM     14  N   UNL     1      34.968 -18.781 -21.902  0.00  0.00    -0.284 N 
ATOM     15  C   UNL     1      35.210 -17.437 -21.629  0.00  0.00    +0.226 C 
ATOM     16  H   UNL     1      35.013 -19.047 -22.848  0.00  0.00    +0.155 HD
BRANCH  14  17
ATOM     17  C   UNL     1      34.666 -19.809 -20.976  0.00  0.00    +0.050 C 
ATOM     18  C   UNL     1      33.343 -20.046 -20.606  0.00  0.00    +0.015 C 
ATOM     19  C   UNL     1      35.692 -20.583 -20.435  0.00  0.00    +0.015 C 
ATOM     20  C   UNL     1      33.045 -21.059 -19.695  0.00  0.00    +0.001 C 
ATOM     21  C   UNL     1      35.394 -21.596 -19.523  0.00  0.00    +0.001 C 
ATOM     22  C   UNL     1      34.069 -21.834 -19.153  0.00  0.00    +0.000 C 
ENDBRANCH  14  17
ENDBRANCH  12  15
ENDBRANCH   1  12
TORSDOF 9
ENDMDL
MODEL 5
REMARK VINA RESULT:      -8.2      1.221      1.707
REMARK  Name = 5311
REMARK  9 active torsions:
REMARK  status: ('A' for Active; 'I' for Inactive)
REMARK    1  A    between atoms: C_1  and  C_2
REMARK    2  A    between atoms: C_1  and  C_12
REMARK    3  A    between atoms: C_2  and  C_3
REMARK    4  A    between atoms: C_3  and  C_4
REMARK    5  A    between atoms: C_4  and  C_5
REMARK    6  A    between atoms: C_5  and  C_8
REMARK    7  A    between atoms: N_7  and  O_10
REMARK    8  A    between atoms: C_12  and  C_15
REMARK    9  A    between atoms: N_14  and  C_17
REMARK                            x       y       z     vdW  Elec       q    Type
REMARK                         _______ _______ _______ _____ _____    ______ ____
ROOT
ATOM      1  C   UNL     1      34.228 -14.600 -22.134  0.00  0.00    +0.010 C 
ENDROOT
BRANCH   1   2
ATOM      2  C   UNL     1      32.734 -14.269 -22.071  0.00  0.00    +0.001 C 
BRANCH   2   3
ATOM      3  C   UNL     1      32.422 -13.333 -20.900  0.00  0.00    +0.001 C 
BRANCH   3   4
ATOM      4  C   UNL     1      31.586 -12.134 -21.355  0.00  0.00    +0.010 C 
BRANCH   4   5
ATOM      5  C   UNL     1      31.339 -11.133 -20.228  0.00  0.00    +0.087 C 
BRANCH   5   8
ATOM      6  O   UNL     1      31.937  -9.304 -21.663  0.00  0.00    -0.273 OA
ATOM      7  N   UNL     1      32.422  -9.145 -19.408  0.00  0.00    -0.197 N 
ATOM      8  C   UNL     1      31.925  -9.768 -20.524  0.00  0.00    +0.244 C 
ATOM      9  H   UNL     1      32.387  -9.563 -18.518  0.00  0.00    +0.182 HD
BRANCH   7  10
ATOM     10  O   UNL     1      32.984  -7.878 -19.613  0.00  0.00    -0.295 OA
ATOM     11  H   UNL     1      33.831  -7.820 -19.144  0.00  0.00    +0.241 HD
ENDBRANCH   7  10
ENDBRANCH   5   8
ENDBRANCH   4   5
ENDBRANCH   3   4
ENDBRANCH   2   3
ENDBRANCH   1   2
BRANCH   1  12
ATOM     12  C   UNL     1      34.599 -15.378 -23.396  0.00  0.00    +0.085 C 
BRANCH  12  15
ATOM     13  O   UNL     1      34.687 -17.679 -24.108  0.00  0.00    -0.275 OA
ATOM     14  N   UNL     1      34.871 -17.168 -21.824  0.00  0.00    -0.284 N 
ATOM     15  C   UNL     1      34.731 -16.880 -23.179  0.00  0.00    +0.226 C 
ATOM     16  H   UNL     1      34.867 -16.396 -21.213  0.00  0.00    +0.155 HD
BRANCH  14  17
ATOM     17  C   UNL     1      35.019 -18.441 -21.224  0.00  0.00    +0.050 C 
ATOM     18  C   UNL     1      33.893 -19.218 -20.950  0.00  0.00    +0.015 C 
ATOM     19  C   UNL     1      36.290 -18.919 -20.905  0.00  0.00    +0.015 C 
ATOM     20  C   UNL     1      34.039 -20.472 -20.359  0.00  0.00    +0.001 C 
ATOM     21  C   UNL     1      36.436 -20.173 -20.313  0.00  0.00    +0.001 C 
ATOM     22  C   UNL     1      35.310 -20.951 -20.040  0.00  0.00    +0.000 C 
ENDBRANCH  14  17
ENDBRANCH  12  15
ENDBRANCH   1  12
TORSDOF 9
ENDMDL
MODEL 6
REMARK VINA RESULT:      -8.1      5.273      7.898
REMARK  Name = 5311
REMARK  9 active torsions:
REMARK  status: ('A' for Active; 'I' for Inactive)
REMARK    1  A    between atoms: C_1  and  C_2
REMARK    2  A    between atoms: C_1  and  C_12
REMARK    3  A    between atoms: C_2  and  C_3
REMARK    4  A    between atoms: C_3  and  C_4
REMARK    5  A    between atoms: C_4  and  C_5
REMARK    6  A    between atoms: C_5  and  C_8
REMARK    7  A    between atoms: N_7  and  O_10
REMARK    8  A    between atoms: C_12  and  C_15
REMARK    9  A    between atoms: N_14  and  C_17
REMARK                            x       y       z     vdW  Elec       q    Type
REMARK                         _______ _______ _______ _____ _____    ______ ____
ROOT
ATOM      1  C   UNL     1      34.980 -22.050 -19.284  0.00  0.00    +0.010 C 
ENDROOT
BRANCH   1   2
ATOM      2  C   UNL     1      35.218 -20.786 -20.116  0.00  0.00    +0.001 C 
BRANCH   2   3
ATOM      3  C   UNL     1      33.894 -20.151 -20.550  0.00  0.00    +0.001 C 
BRANCH   3   4
ATOM      4  C   UNL     1      34.131 -18.943 -21.461  0.00  0.00    +0.010 C 
BRANCH   4   5
ATOM      5  C   UNL     1      34.769 -19.334 -22.793  0.00  0.00    +0.087 C 
BRANCH   5   8
ATOM      6  O   UNL     1      34.656 -18.201 -24.906  0.00  0.00    -0.273 OA
ATOM      7  N   UNL     1      35.495 -17.057 -23.081  0.00  0.00    -0.197 N 
ATOM      8  C   UNL     1      34.960 -18.148 -23.716  0.00  0.00    +0.244 C 
ATOM      9  H   UNL     1      35.721 -17.069 -22.123  0.00  0.00    +0.182 HD
BRANCH   7  10
ATOM     10  O   UNL     1      35.703 -15.924 -23.879  0.00  0.00    -0.295 OA
ATOM     11  H   UNL     1      34.916 -15.762 -24.423  0.00  0.00    +0.241 HD
ENDBRANCH   7  10
ENDBRANCH   5   8
ENDBRANCH   4   5
ENDBRANCH   3   4
ENDBRANCH   2   3
ENDBRANCH   1   2
BRANCH   1  12
ATOM     12  C   UNL     1      33.509 -22.233 -18.911  0.00  0.00    +0.085 C 
BRANCH  12  15
ATOM     13  O   UNL     1      34.155 -23.752 -17.155  0.00  0.00    -0.275 OA
ATOM     14  N   UNL     1      32.011 -22.797 -17.127  0.00  0.00    -0.284 N 
ATOM     15  C   UNL     1      33.291 -23.020 -17.625  0.00  0.00    +0.226 C 
ATOM     16  H   UNL     1      31.441 -22.187 -17.649  0.00  0.00    +0.155 HD
BRANCH  14  17
ATOM     17  C   UNL     1      31.432 -23.346 -15.957  0.00  0.00    +0.050 C 
ATOM     18  C   UNL     1      31.884 -22.942 -14.701  0.00  0.00    +0.015 C 
ATOM     19  C   UNL     1      30.411 -24.291 -16.061  0.00  0.00    +0.015 C 
ATOM     20  C   UNL     1      31.313 -23.482 -13.549  0.00  0.00    +0.001 C 
ATOM     21  C   UNL     1      29.841 -24.831 -14.908  0.00  0.00    +0.001 C 
ATOM     22  C   UNL     1      30.293 -24.426 -13.651  0.00  0.00    +0.000 C 
ENDBRANCH  14  17
ENDBRANCH  12  15
ENDBRANCH   1  12
TORSDOF 9
ENDMDL
MODEL 7
REMARK VINA RESULT:      -8.1      5.576     10.740
REMARK  Name = 5311
REMARK  9 active torsions:
REMARK  status: ('A' for Active; 'I' for Inactive)
REMARK    1  A    between atoms: C_1  and  C_2
REMARK    2  A    between atoms: C_1  and  C_12
REMARK    3  A    between atoms: C_2  and  C_3
REMARK    4  A    between atoms: C_3  and  C_4
REMARK    5  A    between atoms: C_4  and  C_5
REMARK    6  A    between atoms: C_5  and  C_8
REMARK    7  A    between atoms: N_7  and  O_10
REMARK    8  A    between atoms: C_12  and  C_15
REMARK    9  A    between atoms: N_14  and  C_17
REMARK                            x       y       z     vdW  Elec       q    Type
REMARK                         _______ _______ _______ _____ _____    ______ ____
ROOT
ATOM      1  C   UNL     1      36.121 -21.700 -19.188  0.00  0.00    +0.010 C 
ENDROOT
BRANCH   1   2
ATOM      2  C   UNL     1      36.692 -21.678 -17.767  0.00  0.00    +0.001 C 
BRANCH   2   3
ATOM      3  C   UNL     1      35.871 -22.563 -16.825  0.00  0.00    +0.001 C 
BRANCH   3   4
ATOM      4  C   UNL     1      36.752 -23.184 -15.739  0.00  0.00    +0.010 C 
BRANCH   4   5
ATOM      5  C   UNL     1      36.030 -24.283 -14.959  0.00  0.00    +0.087 C 
BRANCH   5   8
ATOM      6  O   UNL     1      36.111 -26.559 -15.718  0.00  0.00    -0.273 OA
ATOM      7  N   UNL     1      37.929 -25.711 -14.571  0.00  0.00    -0.197 N 
ATOM      8  C   UNL     1      36.680 -25.640 -15.132  0.00  0.00    +0.244 C 
ATOM      9  H   UNL     1      38.339 -24.943 -14.111  0.00  0.00    +0.182 HD
BRANCH   7  10
ATOM     10  O   UNL     1      38.587 -26.943 -14.690  0.00  0.00    -0.295 OA
ATOM     11  H   UNL     1      39.395 -26.932 -14.154  0.00  0.00    +0.241 HD
ENDBRANCH   7  10
ENDBRANCH   5   8
ENDBRANCH   4   5
ENDBRANCH   3   4
ENDBRANCH   2   3
ENDBRANCH   1   2
BRANCH   1  12
ATOM     12  C   UNL     1      34.595 -21.621 -19.203  0.00  0.00    +0.085 C 
BRANCH  12  15
ATOM     13  O   UNL     1      32.836 -20.512 -20.422  0.00  0.00    -0.275 OA
ATOM     14  N   UNL     1      35.072 -19.923 -20.827  0.00  0.00    -0.284 N 
ATOM     15  C   UNL     1      34.038 -20.622 -20.210  0.00  0.00    +0.226 C 
ATOM     16  H   UNL     1      35.985 -20.156 -20.543  0.00  0.00    +0.155 HD
BRANCH  14  17
ATOM     17  C   UNL     1      34.962 -18.916 -21.815  0.00  0.00    +0.050 C 
ATOM     18  C   UNL     1      34.951 -17.571 -21.443  0.00  0.00    +0.015 C 
ATOM     19  C   UNL     1      34.866 -19.267 -23.162  0.00  0.00    +0.015 C 
ATOM     20  C   UNL     1      34.844 -16.579 -22.416  0.00  0.00    +0.001 C 
ATOM     21  C   UNL     1      34.758 -18.274 -24.136  0.00  0.00    +0.001 C 
ATOM     22  C   UNL     1      34.748 -16.929 -23.762  0.00  0.00    +0.000 C 
ENDBRANCH  14  17
ENDBRANCH  12  15
ENDBRANCH   1  12
TORSDOF 9
ENDMDL
MODEL 8
REMARK VINA RESULT:      -8.0      5.591     10.439
REMARK  Name = 5311
REMARK  9 active torsions:
REMARK  status: ('A' for Active; 'I' for Inactive)
REMARK    1  A    between atoms: C_1  and  C_2
REMARK    2  A    between atoms: C_1  and  C_12
REMARK    3  A    between atoms: C_2  and  C_3
REMARK    4  A    between atoms: C_3  and  C_4
REMARK    5  A    between atoms: C_4  and  C_5
REMARK    6  A    between atoms: C_5  and  C_8
REMARK    7  A    between atoms: N_7  and  O_10
REMARK    8  A    between atoms: C_12  and  C_15
REMARK    9  A    between atoms: N_14  and  C_17
REMARK                            x       y       z     vdW  Elec       q    Type
REMARK                         _______ _______ _______ _____ _____    ______ ____
ROOT
ATOM      1  C   UNL     1      33.677 -21.865 -19.283  0.00  0.00    +0.010 C 
ENDROOT
BRANCH   1   2
ATOM      2  C   UNL     1      33.296 -22.740 -18.085  0.00  0.00    +0.001 C 
BRANCH   2   3
ATOM      3  C   UNL     1      34.469 -22.888 -17.111  0.00  0.00    +0.001 C 
BRANCH   3   4
ATOM      4  C   UNL     1      34.045 -23.634 -15.843  0.00  0.00    +0.010 C 
BRANCH   4   5
ATOM      5  C   UNL     1      35.147 -23.654 -14.783  0.00  0.00    +0.087 C 
BRANCH   5   8
ATOM      6  O   UNL     1      36.099 -25.680 -15.648  0.00  0.00    -0.273 OA
ATOM      7  N   UNL     1      36.029 -25.381 -13.357  0.00  0.00    -0.197 N 
ATOM      8  C   UNL     1      35.808 -25.011 -14.659  0.00  0.00    +0.244 C 
ATOM      9  H   UNL     1      35.775 -24.805 -12.600  0.00  0.00    +0.182 HD
BRANCH   7  10
ATOM     10  O   UNL     1      36.635 -26.631 -13.169  0.00  0.00    -0.295 OA
ATOM     11  H   UNL     1      36.877 -26.735 -12.236  0.00  0.00    +0.241 HD
ENDBRANCH   7  10
ENDBRANCH   5   8
ENDBRANCH   4   5
ENDBRANCH   3   4
ENDBRANCH   2   3
ENDBRANCH   1   2
BRANCH   1  12
ATOM     12  C   UNL     1      35.187 -21.820 -19.514  0.00  0.00    +0.085 C 
BRANCH  12  15
ATOM     13  O   UNL     1      36.751 -20.022 -19.876  0.00  0.00    -0.275 OA
ATOM     14  N   UNL     1      34.726 -20.048 -21.063  0.00  0.00    -0.284 N 
ATOM     15  C   UNL     1      35.674 -20.530 -20.164  0.00  0.00    +0.226 C 
ATOM     16  H   UNL     1      33.904 -20.581 -21.155  0.00  0.00    +0.155 HD
BRANCH  14  17
ATOM     17  C   UNL     1      34.808 -18.881 -21.859  0.00  0.00    +0.050 C 
ATOM     18  C   UNL     1      34.755 -17.623 -21.260  0.00  0.00    +0.015 C 
ATOM     19  C   UNL     1      34.942 -18.989 -23.243  0.00  0.00    +0.015 C 
ATOM     20  C   UNL     1      34.837 -16.473 -22.044  0.00  0.00    +0.001 C 
ATOM     21  C   UNL     1      35.023 -17.839 -24.028  0.00  0.00    +0.001 C 
ATOM     22  C   UNL     1      34.970 -16.580 -23.428  0.00  0.00    +0.000 C 
ENDBRANCH  14  17
ENDBRANCH  12  15
ENDBRANCH   1  12
TORSDOF 9
ENDMDL
MODEL 9
REMARK VINA RESULT:      -8.0      4.008      8.614
REMARK  Name = 5311
REMARK  9 active torsions:
REMARK  status: ('A' for Active; 'I' for Inactive)
REMARK    1  A    between atoms: C_1  and  C_2
REMARK    2  A    between atoms: C_1  and  C_12
REMARK    3  A    between atoms: C_2  and  C_3
REMARK    4  A    between atoms: C_3  and  C_4
REMARK    5  A    between atoms: C_4  and  C_5
REMARK    6  A    between atoms: C_5  and  C_8
REMARK    7  A    between atoms: N_7  and  O_10
REMARK    8  A    between atoms: C_12  and  C_15
REMARK    9  A    between atoms: N_14  and  C_17
REMARK                            x       y       z     vdW  Elec       q    Type
REMARK                         _______ _______ _______ _____ _____    ______ ____
ROOT
ATOM      1  C   UNL     1      35.844 -18.532 -21.368  0.00  0.00    +0.010 C 
ENDROOT
BRANCH   1   2
ATOM      2  C   UNL     1      35.208 -19.821 -20.841  0.00  0.00    +0.001 C 
BRANCH   2   3
ATOM      3  C   UNL     1      33.681 -19.707 -20.796  0.00  0.00    +0.001 C 
BRANCH   3   4
ATOM      4  C   UNL     1      33.065 -20.838 -19.968  0.00  0.00    +0.010 C 
BRANCH   4   5
ATOM      5  C   UNL     1      34.114 -21.828 -19.461  0.00  0.00    +0.087 C 
BRANCH   5   8
ATOM      6  O   UNL     1      34.396 -23.339 -17.618  0.00  0.00    -0.273 OA
ATOM      7  N   UNL     1      32.305 -22.425 -17.988  0.00  0.00    -0.197 N 
ATOM      8  C   UNL     1      33.636 -22.614 -18.258  0.00  0.00    +0.244 C 
ATOM      9  H   UNL     1      31.741 -21.831 -18.535  0.00  0.00    +0.182 HD
BRANCH   7  10
ATOM     10  O   UNL     1      31.796 -23.128 -16.888  0.00  0.00    -0.295 OA
ATOM     11  H   UNL     1      31.237 -22.539 -16.358  0.00  0.00    +0.241 HD
ENDBRANCH   7  10
ENDBRANCH   5   8
ENDBRANCH   4   5
ENDBRANCH   3   4
ENDBRANCH   2   3
ENDBRANCH   1   2
BRANCH   1  12
ATOM     12  C   UNL     1      35.762 -18.422 -22.890  0.00  0.00    +0.085 C 
BRANCH  12  15
ATOM     13  O   UNL     1      34.448 -17.235 -24.525  0.00  0.00    -0.275 OA
ATOM     14  N   UNL     1      34.697 -16.337 -22.370  0.00  0.00    -0.284 N 
ATOM     15  C   UNL     1      34.883 -17.278 -23.380  0.00  0.00    +0.226 C 
ATOM     16  H   UNL     1      35.139 -16.528 -21.512  0.00  0.00    +0.155 HD
BRANCH  14  17
ATOM     17  C   UNL     1      33.947 -15.139 -22.435  0.00  0.00    +0.050 C 
ATOM     18  C   UNL     1      34.196 -14.215 -23.450  0.00  0.00    +0.015 C 
ATOM     19  C   UNL     1      32.960 -14.882 -21.484  0.00  0.00    +0.015 C 
ATOM     20  C   UNL     1      33.456 -13.035 -23.514  0.00  0.00    +0.001 C 
ATOM     21  C   UNL     1      32.221 -13.700 -21.548  0.00  0.00    +0.001 C 
ATOM     22  C   UNL     1      32.469 -12.776 -22.564  0.00  0.00    +0.000 C 
ENDBRANCH  14  17
ENDBRANCH  12  15
ENDBRANCH   1  12
TORSDOF 9
ENDMDL
