MODEL 1
REMARK VINA RESULT:     -10.4      0.000      0.000
REMARK  Name = 3764
REMARK  3 active torsions:
REMARK  status: ('A' for Active; 'I' for Inactive)
REMARK    1  A    between atoms: C_4  and  C_12
REMARK    2  A    between atoms: C_10  and  O_20
REMARK    3  A    between atoms: C_17  and  O_18
REMARK                            x       y       z     vdW  Elec       q    Type
REMARK                         _______ _______ _______ _____ _____    ______ ____
ROOT
ATOM      1  O   UNL     1      36.782 -20.140 -20.032  0.00  0.00    -0.450 OA
ATOM      2  O   UNL     1      32.952 -20.140 -21.440  0.00  0.00    -0.286 OA
ATOM      3  C   UNL     1      34.497 -20.941 -19.854  0.00  0.00    +0.074 C 
ATOM      4  C   UNL     1      35.165 -19.283 -21.630  0.00  0.00    +0.077 C 
ATOM      5  C   UNL     1      35.823 -20.910 -19.424  0.00  0.00    +0.151 C 
ATOM      6  C   UNL     1      34.099 -20.119 -21.012  0.00  0.00    +0.202 C 
ATOM      7  C   UNL     1      33.563 -21.746 -19.197  0.00  0.00    +0.009 C 
ATOM      8  C   UNL     1      36.394 -19.363 -21.097  0.00  0.00    +0.183 C 
ATOM      9  C   UNL     1      36.224 -21.683 -18.334  0.00  0.00    +0.074 C 
ATOM     10  C   UNL     1      35.292 -22.487 -17.676  0.00  0.00    +0.142 C 
ATOM     11  C   UNL     1      33.965 -22.518 -18.107  0.00  0.00    +0.037 C 
ENDROOT
BRANCH   4  12
ATOM     12  C   UNL     1      34.894 -18.387 -22.766  0.00  0.00    +0.006 C 
ATOM     13  C   UNL     1      34.723 -18.913 -24.048  0.00  0.00    +0.003 C 
ATOM     14  C   UNL     1      34.807 -17.008 -22.565  0.00  0.00    +0.003 C 
ATOM     15  C   UNL     1      34.466 -18.065 -25.125  0.00  0.00    +0.037 C 
ATOM     16  C   UNL     1      34.550 -16.159 -23.642  0.00  0.00    +0.037 C 
ATOM     17  C   UNL     1      34.379 -16.688 -24.921  0.00  0.00    +0.134 C 
BRANCH  17  18
ATOM     18  O   UNL     1      34.129 -15.859 -25.971  0.00  0.00    -0.506 OA
ATOM     19  H   UNL     1      33.695 -15.041 -25.829  0.00  0.00    +0.292 HD
ENDBRANCH  17  18
ENDBRANCH   4  12
BRANCH  10  20
ATOM     20  O   UNL     1      35.679 -23.242 -16.611  0.00  0.00    -0.471 OA
ATOM     21  C   UNL     1      36.880 -22.858 -15.944  0.00  0.00    +0.252 C 
ENDBRANCH  10  20
TORSDOF 3
ENDMDL
MODEL 2
REMARK VINA RESULT:     -10.1      2.012      7.844
REMARK  Name = 3764
REMARK  3 active torsions:
REMARK  status: ('A' for Active; 'I' for Inactive)
REMARK    1  A    between atoms: C_4  and  C_12
REMARK    2  A    between atoms: C_10  and  O_20
REMARK    3  A    between atoms: C_17  and  O_18
REMARK                            x       y       z     vdW  Elec       q    Type
REMARK                         _______ _______ _______ _____ _____    ______ ____
ROOT
ATOM      1  O   UNL     1      34.277 -17.437 -24.490  0.00  0.00    -0.450 OA
ATOM      2  O   UNL     1      34.726 -16.367 -20.578  0.00  0.00    -0.286 OA
ATOM      3  C   UNL     1      34.264 -15.704 -22.790  0.00  0.00    +0.074 C 
ATOM      4  C   UNL     1      34.702 -18.113 -22.196  0.00  0.00    +0.077 C 
ATOM      5  C   UNL     1      34.133 -16.126 -24.113  0.00  0.00    +0.151 C 
ATOM      6  C   UNL     1      34.573 -16.699 -21.746  0.00  0.00    +0.202 C 
ATOM      7  C   UNL     1      34.109 -14.354 -22.463  0.00  0.00    +0.009 C 
ATOM      8  C   UNL     1      34.544 -18.358 -23.506  0.00  0.00    +0.183 C 
ATOM      9  C   UNL     1      33.845 -15.201 -25.117  0.00  0.00    +0.074 C 
ATOM     10  C   UNL     1      33.689 -13.853 -24.793  0.00  0.00    +0.142 C 
ATOM     11  C   UNL     1      33.820 -13.431 -23.468  0.00  0.00    +0.037 C 
ENDROOT
BRANCH   4  12
ATOM     12  C   UNL     1      34.969 -19.210 -21.252  0.00  0.00    +0.006 C 
ATOM     13  C   UNL     1      33.911 -19.949 -20.719  0.00  0.00    +0.003 C 
ATOM     14  C   UNL     1      36.281 -19.516 -20.887  0.00  0.00    +0.003 C 
ATOM     15  C   UNL     1      34.163 -20.989 -19.824  0.00  0.00    +0.037 C 
ATOM     16  C   UNL     1      36.535 -20.557 -19.992  0.00  0.00    +0.037 C 
ATOM     17  C   UNL     1      35.475 -21.293 -19.461  0.00  0.00    +0.134 C 
BRANCH  17  18
ATOM     18  O   UNL     1      35.723 -22.307 -18.588  0.00  0.00    -0.506 OA
ATOM     19  H   UNL     1      35.322 -22.304 -17.741  0.00  0.00    +0.292 HD
ENDBRANCH  17  18
ENDBRANCH   4  12
BRANCH  10  20
ATOM     20  O   UNL     1      33.407 -12.947 -25.769  0.00  0.00    -0.471 OA
ATOM     21  C   UNL     1      33.219 -13.454 -27.090  0.00  0.00    +0.252 C 
ENDBRANCH  10  20
TORSDOF 3
ENDMDL
MODEL 3
REMARK VINA RESULT:      -9.9      0.935      2.303
REMARK  Name = 3764
REMARK  3 active torsions:
REMARK  status: ('A' for Active; 'I' for Inactive)
REMARK    1  A    between atoms: C_4  and  C_12
REMARK    2  A    between atoms: C_10  and  O_20
REMARK    3  A    between atoms: C_17  and  O_18
REMARK                            x       y       z     vdW  Elec       q    Type
REMARK                         _______ _______ _______ _____ _____    ______ ____
ROOT
ATOM      1  O   UNL     1      33.016 -21.037 -20.133  0.00  0.00    -0.450 OA
ATOM      2  O   UNL     1      36.727 -19.519 -20.892  0.00  0.00    -0.286 OA
ATOM      3  C   UNL     1      35.379 -20.940 -19.585  0.00  0.00    +0.074 C 
ATOM      4  C   UNL     1      34.429 -19.614 -21.505  0.00  0.00    +0.077 C 
ATOM      5  C   UNL     1      34.087 -21.417 -19.365  0.00  0.00    +0.151 C 
ATOM      6  C   UNL     1      35.614 -19.984 -20.684  0.00  0.00    +0.202 C 
ATOM      7  C   UNL     1      36.433 -21.361 -18.769  0.00  0.00    +0.009 C 
ATOM      8  C   UNL     1      33.252 -20.162 -21.167  0.00  0.00    +0.183 C 
ATOM      9  C   UNL     1      33.841 -22.318 -18.329  0.00  0.00    +0.074 C 
ATOM     10  C   UNL     1      34.892 -22.741 -17.514  0.00  0.00    +0.142 C 
ATOM     11  C   UNL     1      36.185 -22.263 -17.735  0.00  0.00    +0.037 C 
ENDROOT
BRANCH   4  12
ATOM     12  C   UNL     1      34.531 -18.701 -22.655  0.00  0.00    +0.006 C 
ATOM     13  C   UNL     1      34.642 -17.324 -22.449  0.00  0.00    +0.003 C 
ATOM     14  C   UNL     1      34.518 -19.208 -23.956  0.00  0.00    +0.003 C 
ATOM     15  C   UNL     1      34.740 -16.459 -23.539  0.00  0.00    +0.037 C 
ATOM     16  C   UNL     1      34.615 -18.343 -25.046  0.00  0.00    +0.037 C 
ATOM     17  C   UNL     1      34.726 -16.969 -24.836  0.00  0.00    +0.134 C 
BRANCH  17  18
ATOM     18  O   UNL     1      34.820 -16.125 -25.900  0.00  0.00    -0.506 OA
ATOM     19  H   UNL     1      34.547 -15.232 -25.816  0.00  0.00    +0.292 HD
ENDBRANCH  17  18
ENDBRANCH   4  12
BRANCH  10  20
ATOM     20  O   UNL     1      34.656 -23.621 -16.503  0.00  0.00    -0.471 OA
ATOM     21  C   UNL     1      33.427 -23.479 -15.792  0.00  0.00    +0.252 C 
ENDBRANCH  10  20
TORSDOF 3
ENDMDL
MODEL 4
REMARK VINA RESULT:      -9.6      2.162      7.816
REMARK  Name = 3764
REMARK  3 active torsions:
REMARK  status: ('A' for Active; 'I' for Inactive)
REMARK    1  A    between atoms: C_4  and  C_12
REMARK    2  A    between atoms: C_10  and  O_20
REMARK    3  A    between atoms: C_17  and  O_18
REMARK                            x       y       z     vdW  Elec       q    Type
REMARK                         _______ _______ _______ _____ _____    ______ ____
ROOT
ATOM      1  O   UNL     1      34.172 -15.355 -21.788  0.00  0.00    -0.450 OA
ATOM      2  O   UNL     1      34.389 -18.785 -23.987  0.00  0.00    -0.286 OA
ATOM      3  C   UNL     1      34.118 -16.446 -23.955  0.00  0.00    +0.074 C 
ATOM      4  C   UNL     1      34.502 -17.761 -21.840  0.00  0.00    +0.077 C 
ATOM      5  C   UNL     1      34.041 -15.309 -23.152  0.00  0.00    +0.151 C 
ATOM      6  C   UNL     1      34.345 -17.758 -23.321  0.00  0.00    +0.202 C 
ATOM      7  C   UNL     1      33.975 -16.340 -25.341  0.00  0.00    +0.009 C 
ATOM      8  C   UNL     1      34.405 -16.580 -21.211  0.00  0.00    +0.183 C 
ATOM      9  C   UNL     1      33.822 -14.058 -23.730  0.00  0.00    +0.074 C 
ATOM     10  C   UNL     1      33.680 -13.949 -25.113  0.00  0.00    +0.142 C 
ATOM     11  C   UNL     1      33.757 -15.088 -25.917  0.00  0.00    +0.037 C 
ENDROOT
BRANCH   4  12
ATOM     12  C   UNL     1      34.773 -18.996 -21.087  0.00  0.00    +0.006 C 
ATOM     13  C   UNL     1      36.088 -19.377 -20.816  0.00  0.00    +0.003 C 
ATOM     14  C   UNL     1      33.715 -19.791 -20.642  0.00  0.00    +0.003 C 
ATOM     15  C   UNL     1      36.346 -20.548 -20.102  0.00  0.00    +0.037 C 
ATOM     16  C   UNL     1      33.971 -20.962 -19.927  0.00  0.00    +0.037 C 
ATOM     17  C   UNL     1      35.287 -21.339 -19.658  0.00  0.00    +0.134 C 
BRANCH  17  18
ATOM     18  O   UNL     1      35.537 -22.482 -18.962  0.00  0.00    -0.506 OA
ATOM     19  H   UNL     1      36.141 -22.471 -18.245  0.00  0.00    +0.292 HD
ENDBRANCH  17  18
ENDBRANCH   4  12
BRANCH  10  20
ATOM     20  O   UNL     1      33.467 -12.730 -25.681  0.00  0.00    -0.471 OA
ATOM     21  C   UNL     1      33.932 -11.589 -24.962  0.00  0.00    +0.252 C 
ENDBRANCH  10  20
TORSDOF 3
ENDMDL
MODEL 5
REMARK VINA RESULT:      -9.4      6.248     10.928
REMARK  Name = 3764
REMARK  3 active torsions:
REMARK  status: ('A' for Active; 'I' for Inactive)
REMARK    1  A    between atoms: C_4  and  C_12
REMARK    2  A    between atoms: C_10  and  O_20
REMARK    3  A    between atoms: C_17  and  O_18
REMARK                            x       y       z     vdW  Elec       q    Type
REMARK                         _______ _______ _______ _____ _____    ______ ____
ROOT
ATOM      1  O   UNL     1      31.914 -10.950 -22.083  0.00  0.00    -0.450 OA
ATOM      2  O   UNL     1      34.703 -11.137 -25.055  0.00  0.00    -0.286 OA
ATOM      3  C   UNL     1      33.509  -9.813 -23.517  0.00  0.00    +0.074 C 
ATOM      4  C   UNL     1      33.190 -12.310 -23.640  0.00  0.00    +0.077 C 
ATOM      5  C   UNL     1      32.540  -9.809 -22.513  0.00  0.00    +0.151 C 
ATOM      6  C   UNL     1      33.880 -11.092 -24.150  0.00  0.00    +0.202 C 
ATOM      7  C   UNL     1      34.113  -8.619 -23.917  0.00  0.00    +0.009 C 
ATOM      8  C   UNL     1      32.283 -12.138 -22.666  0.00  0.00    +0.183 C 
ATOM      9  C   UNL     1      32.171  -8.609 -21.903  0.00  0.00    +0.074 C 
ATOM     10  C   UNL     1      32.774  -7.415 -22.301  0.00  0.00    +0.142 C 
ATOM     11  C   UNL     1      33.743  -7.421 -23.305  0.00  0.00    +0.037 C 
ENDROOT
BRANCH   4  12
ATOM     12  C   UNL     1      33.495 -13.653 -24.157  0.00  0.00    +0.006 C 
ATOM     13  C   UNL     1      34.275 -14.533 -23.404  0.00  0.00    +0.003 C 
ATOM     14  C   UNL     1      33.006 -14.053 -25.402  0.00  0.00    +0.003 C 
ATOM     15  C   UNL     1      34.564 -15.808 -23.893  0.00  0.00    +0.037 C 
ATOM     16  C   UNL     1      33.295 -15.327 -25.892  0.00  0.00    +0.037 C 
ATOM     17  C   UNL     1      34.074 -16.203 -25.137  0.00  0.00    +0.134 C 
BRANCH  17  18
ATOM     18  O   UNL     1      34.356 -17.446 -25.616  0.00  0.00    -0.506 OA
ATOM     19  H   UNL     1      33.793 -18.166 -25.410  0.00  0.00    +0.292 HD
ENDBRANCH  17  18
ENDBRANCH   4  12
BRANCH  10  20
ATOM     20  O   UNL     1      32.417  -6.244 -21.707  0.00  0.00    -0.471 OA
ATOM     21  C   UNL     1      31.134  -5.713 -22.036  0.00  0.00    +0.252 C 
ENDBRANCH  10  20
TORSDOF 3
ENDMDL
MODEL 6
REMARK VINA RESULT:      -9.2      2.773      7.894
REMARK  Name = 3764
REMARK  3 active torsions:
REMARK  status: ('A' for Active; 'I' for Inactive)
REMARK    1  A    between atoms: C_4  and  C_12
REMARK    2  A    between atoms: C_10  and  O_20
REMARK    3  A    between atoms: C_17  and  O_18
REMARK                            x       y       z     vdW  Elec       q    Type
REMARK                         _______ _______ _______ _____ _____    ______ ____
ROOT
ATOM      1  O   UNL     1      35.235 -15.667 -23.606  0.00  0.00    -0.450 OA
ATOM      2  O   UNL     1      32.769 -16.497 -20.462  0.00  0.00    -0.286 OA
ATOM      3  C   UNL     1      33.392 -15.003 -22.172  0.00  0.00    +0.074 C 
ATOM      4  C   UNL     1      34.548 -17.221 -21.869  0.00  0.00    +0.077 C 
ATOM      5  C   UNL     1      34.269 -14.768 -23.230  0.00  0.00    +0.151 C 
ATOM      6  C   UNL     1      33.500 -16.265 -21.416  0.00  0.00    +0.202 C 
ATOM      7  C   UNL     1      32.429 -14.049 -21.832  0.00  0.00    +0.009 C 
ATOM      8  C   UNL     1      35.312 -16.849 -22.908  0.00  0.00    +0.183 C 
ATOM      9  C   UNL     1      34.188 -13.579 -23.956  0.00  0.00    +0.074 C 
ATOM     10  C   UNL     1      33.227 -12.627 -23.619  0.00  0.00    +0.142 C 
ATOM     11  C   UNL     1      32.349 -12.862 -22.560  0.00  0.00    +0.037 C 
ENDROOT
BRANCH   4  12
ATOM     12  C   UNL     1      34.736 -18.533 -21.229  0.00  0.00    +0.006 C 
ATOM     13  C   UNL     1      36.021 -18.982 -20.916  0.00  0.00    +0.003 C 
ATOM     14  C   UNL     1      33.631 -19.333 -20.932  0.00  0.00    +0.003 C 
ATOM     15  C   UNL     1      36.200 -20.225 -20.308  0.00  0.00    +0.037 C 
ATOM     16  C   UNL     1      33.809 -20.576 -20.324  0.00  0.00    +0.037 C 
ATOM     17  C   UNL     1      35.094 -21.021 -20.013  0.00  0.00    +0.134 C 
BRANCH  17  18
ATOM     18  O   UNL     1      35.268 -22.234 -19.421  0.00  0.00    -0.506 OA
ATOM     19  H   UNL     1      36.124 -22.614 -19.372  0.00  0.00    +0.292 HD
ENDBRANCH  17  18
ENDBRANCH   4  12
BRANCH  10  20
ATOM     20  O   UNL     1      33.143 -11.466 -24.325  0.00  0.00    -0.471 OA
ATOM     21  C   UNL     1      33.375 -10.253 -23.611  0.00  0.00    +0.252 C 
ENDBRANCH  10  20
TORSDOF 3
ENDMDL
MODEL 7
REMARK VINA RESULT:      -9.1      6.806      9.714
REMARK  Name = 3764
REMARK  3 active torsions:
REMARK  status: ('A' for Active; 'I' for Inactive)
REMARK    1  A    between atoms: C_4  and  C_12
REMARK    2  A    between atoms: C_10  and  O_20
REMARK    3  A    between atoms: C_17  and  O_18
REMARK                            x       y       z     vdW  Elec       q    Type
REMARK                         _______ _______ _______ _____ _____    ______ ____
ROOT
ATOM      1  O   UNL     1      33.286 -23.129 -17.052  0.00  0.00    -0.450 OA
ATOM      2  O   UNL     1      33.291 -24.481 -13.201  0.00  0.00    -0.286 OA
ATOM      3  C   UNL     1      32.066 -23.587 -15.003  0.00  0.00    +0.074 C 
ATOM      4  C   UNL     1      34.525 -24.099 -15.201  0.00  0.00    +0.077 C 
ATOM      5  C   UNL     1      32.127 -23.127 -16.318  0.00  0.00    +0.151 C 
ATOM      6  C   UNL     1      33.294 -24.096 -14.363  0.00  0.00    +0.202 C 
ATOM      7  C   UNL     1      30.857 -23.559 -14.303  0.00  0.00    +0.009 C 
ATOM      8  C   UNL     1      34.418 -23.625 -16.452  0.00  0.00    +0.183 C 
ATOM      9  C   UNL     1      30.979 -22.637 -16.942  0.00  0.00    +0.074 C 
ATOM     10  C   UNL     1      29.770 -22.610 -16.245  0.00  0.00    +0.142 C 
ATOM     11  C   UNL     1      29.710 -23.070 -14.928  0.00  0.00    +0.037 C 
ENDROOT
BRANCH   4  12
ATOM     12  C   UNL     1      35.808 -24.617 -14.699  0.00  0.00    +0.006 C 
ATOM     13  C   UNL     1      36.596 -23.834 -13.852  0.00  0.00    +0.003 C 
ATOM     14  C   UNL     1      36.243 -25.891 -15.068  0.00  0.00    +0.003 C 
ATOM     15  C   UNL     1      37.812 -24.324 -13.375  0.00  0.00    +0.037 C 
ATOM     16  C   UNL     1      37.459 -26.382 -14.592  0.00  0.00    +0.037 C 
ATOM     17  C   UNL     1      38.243 -25.597 -13.746  0.00  0.00    +0.134 C 
BRANCH  17  18
ATOM     18  O   UNL     1      39.430 -26.076 -13.282  0.00  0.00    -0.506 OA
ATOM     19  H   UNL     1      39.897 -26.725 -13.772  0.00  0.00    +0.292 HD
ENDBRANCH  17  18
ENDBRANCH   4  12
BRANCH  10  20
ATOM     20  O   UNL     1      28.647 -22.134 -16.850  0.00  0.00    -0.471 OA
ATOM     21  C   UNL     1      27.406 -22.358 -16.184  0.00  0.00    +0.252 C 
ENDBRANCH  10  20
TORSDOF 3
ENDMDL
MODEL 8
REMARK VINA RESULT:      -9.1      6.972     10.270
REMARK  Name = 3764
REMARK  3 active torsions:
REMARK  status: ('A' for Active; 'I' for Inactive)
REMARK    1  A    between atoms: C_4  and  C_12
REMARK    2  A    between atoms: C_10  and  O_20
REMARK    3  A    between atoms: C_17  and  O_18
REMARK                            x       y       z     vdW  Elec       q    Type
REMARK                         _______ _______ _______ _____ _____    ______ ____
ROOT
ATOM      1  O   UNL     1      33.795 -11.409 -24.249  0.00  0.00    -0.450 OA
ATOM      2  O   UNL     1      31.163 -10.985 -21.160  0.00  0.00    -0.286 OA
ATOM      3  C   UNL     1      32.516 -12.417 -22.449  0.00  0.00    +0.074 C 
ATOM      4  C   UNL     1      32.435  -9.936 -22.878  0.00  0.00    +0.077 C 
ATOM      5  C   UNL     1      33.403 -12.504 -23.522  0.00  0.00    +0.151 C 
ATOM      6  C   UNL     1      31.968 -11.100 -22.075  0.00  0.00    +0.202 C 
ATOM      7  C   UNL     1      32.150 -13.568 -21.745  0.00  0.00    +0.009 C 
ATOM      8  C   UNL     1      33.294 -10.184 -23.878  0.00  0.00    +0.183 C 
ATOM      9  C   UNL     1      33.931 -13.740 -23.896  0.00  0.00    +0.074 C 
ATOM     10  C   UNL     1      33.568 -14.889 -23.193  0.00  0.00    +0.142 C 
ATOM     11  C   UNL     1      32.679 -14.802 -22.120  0.00  0.00    +0.037 C 
ENDROOT
BRANCH   4  12
ATOM     12  C   UNL     1      31.996  -8.562 -22.585  0.00  0.00    +0.006 C 
ATOM     13  C   UNL     1      32.457  -7.908 -21.441  0.00  0.00    +0.003 C 
ATOM     14  C   UNL     1      31.118  -7.907 -23.451  0.00  0.00    +0.003 C 
ATOM     15  C   UNL     1      32.043  -6.605 -21.163  0.00  0.00    +0.037 C 
ATOM     16  C   UNL     1      30.703  -6.604 -23.174  0.00  0.00    +0.037 C 
ATOM     17  C   UNL     1      31.166  -5.954 -22.030  0.00  0.00    +0.134 C 
BRANCH  17  18
ATOM     18  O   UNL     1      30.760  -4.683 -21.759  0.00  0.00    -0.506 OA
ATOM     19  H   UNL     1      30.991  -3.984 -22.339  0.00  0.00    +0.292 HD
ENDBRANCH  17  18
ENDBRANCH   4  12
BRANCH  10  20
ATOM     20  O   UNL     1      34.081 -16.097 -23.555  0.00  0.00    -0.471 OA
ATOM     21  C   UNL     1      34.255 -16.337 -24.950  0.00  0.00    +0.252 C 
ENDBRANCH  10  20
TORSDOF 3
ENDMDL
MODEL 9
REMARK VINA RESULT:      -8.9      2.367      8.718
REMARK  Name = 3764
REMARK  3 active torsions:
REMARK  status: ('A' for Active; 'I' for Inactive)
REMARK    1  A    between atoms: C_4  and  C_12
REMARK    2  A    between atoms: C_10  and  O_20
REMARK    3  A    between atoms: C_17  and  O_18
REMARK                            x       y       z     vdW  Elec       q    Type
REMARK                         _______ _______ _______ _____ _____    ______ ____
ROOT
ATOM      1  O   UNL     1      37.049 -21.599 -17.895  0.00  0.00    -0.450 OA
ATOM      2  O   UNL     1      33.737 -23.536 -16.505  0.00  0.00    -0.286 OA
ATOM      3  C   UNL     1      34.701 -22.160 -18.155  0.00  0.00    +0.074 C 
ATOM      4  C   UNL     1      36.054 -23.059 -16.229  0.00  0.00    +0.077 C 
ATOM      5  C   UNL     1      35.861 -21.510 -18.576  0.00  0.00    +0.151 C 
ATOM      6  C   UNL     1      34.741 -22.974 -16.926  0.00  0.00    +0.202 C 
ATOM      7  C   UNL     1      33.519 -22.032 -18.888  0.00  0.00    +0.009 C 
ATOM      8  C   UNL     1      37.078 -22.378 -16.764  0.00  0.00    +0.183 C 
ATOM      9  C   UNL     1      35.846 -20.731 -19.733  0.00  0.00    +0.074 C 
ATOM     10  C   UNL     1      34.666 -20.603 -20.467  0.00  0.00    +0.142 C 
ATOM     11  C   UNL     1      33.506 -21.253 -20.045  0.00  0.00    +0.037 C 
ENDROOT
BRANCH   4  12
ATOM     12  C   UNL     1      36.241 -23.870 -15.015  0.00  0.00    +0.006 C 
ATOM     13  C   UNL     1      36.753 -25.165 -15.110  0.00  0.00    +0.003 C 
ATOM     14  C   UNL     1      35.906 -23.347 -13.764  0.00  0.00    +0.003 C 
ATOM     15  C   UNL     1      36.931 -25.934 -13.959  0.00  0.00    +0.037 C 
ATOM     16  C   UNL     1      36.084 -24.115 -12.613  0.00  0.00    +0.037 C 
ATOM     17  C   UNL     1      36.596 -25.409 -12.712  0.00  0.00    +0.134 C 
BRANCH  17  18
ATOM     18  O   UNL     1      36.768 -26.158 -11.589  0.00  0.00    -0.506 OA
ATOM     19  H   UNL     1      36.725 -27.093 -11.638  0.00  0.00    +0.292 HD
ENDBRANCH  17  18
ENDBRANCH   4  12
BRANCH  10  20
ATOM     20  O   UNL     1      34.648 -19.844 -21.597  0.00  0.00    -0.471 OA
ATOM     21  C   UNL     1      35.453 -18.667 -21.602  0.00  0.00    +0.252 C 
ENDBRANCH  10  20
TORSDOF 3
ENDMDL
