MODEL 1
REMARK VINA RESULT:     -10.1      0.000      0.000
REMARK  Name = 15897928
REMARK  2 active torsions:
REMARK  status: ('A' for Active; 'I' for Inactive)
REMARK    1  A    between atoms: C_6  and  C_14
REMARK    2  A    between atoms: C_19  and  O_20
REMARK                            x       y       z     vdW  Elec       q    Type
REMARK                         _______ _______ _______ _____ _____    ______ ____
ROOT
ATOM      1  N   UNL     1      34.155 -15.262 -22.093  0.00  0.00    -0.240 N 
ATOM      2  N   UNL     1      34.651 -15.743 -24.211  0.00  0.00    -0.319 NA
ATOM      3  N   UNL     1      34.929 -18.136 -23.913  0.00  0.00    -0.181 NA
ATOM      4  N   UNL     1      34.205 -13.460 -23.604  0.00  0.00    -0.320 N 
ATOM      5  C   UNL     1      34.353 -16.616 -22.126  0.00  0.00    +0.130 C 
ATOM      6  C   UNL     1      34.574 -18.904 -21.618  0.00  0.00    +0.022 C 
ATOM      7  C   UNL     1      34.660 -16.888 -23.455  0.00  0.00    +0.105 C 
ATOM      8  C   UNL     1      34.300 -17.617 -21.162  0.00  0.00    +0.028 C 
ATOM      9  C   UNL     1      34.345 -14.785 -23.363  0.00  0.00    +0.250 C 
ATOM     10  C   UNL     1      34.873 -19.099 -22.962  0.00  0.00    +0.111 C 
ATOM     11  C   UNL     1      33.808 -14.490 -20.920  0.00  0.00    +0.122 C 
ATOM     12  H   UNL     1      33.970 -12.848 -22.869  0.00  0.00    +0.146 HD
ATOM     13  H   UNL     1      34.339 -13.108 -24.514  0.00  0.00    +0.146 HD
ENDROOT
BRANCH   6  14
ATOM     14  C   UNL     1      34.548 -20.022 -20.704  0.00  0.00    +0.002 C 
ATOM     15  C   UNL     1      35.742 -20.614 -20.290  0.00  0.00    +0.003 C 
ATOM     16  C   UNL     1      33.329 -20.511 -20.232  0.00  0.00    +0.003 C 
ATOM     17  C   UNL     1      35.718 -21.693 -19.407  0.00  0.00    +0.037 C 
ATOM     18  C   UNL     1      33.304 -21.591 -19.348  0.00  0.00    +0.037 C 
ATOM     19  C   UNL     1      34.499 -22.181 -18.937  0.00  0.00    +0.134 C 
BRANCH  19  20
ATOM     20  O   UNL     1      34.475 -23.235 -18.074  0.00  0.00    -0.506 OA
ATOM     21  H   UNL     1      35.254 -23.485 -17.618  0.00  0.00    +0.292 HD
ENDBRANCH  19  20
ENDBRANCH   6  14
TORSDOF 2
ENDMDL
MODEL 2
REMARK VINA RESULT:      -9.7      1.644      2.419
REMARK  Name = 15897928
REMARK  2 active torsions:
REMARK  status: ('A' for Active; 'I' for Inactive)
REMARK    1  A    between atoms: C_6  and  C_14
REMARK    2  A    between atoms: C_19  and  O_20
REMARK                            x       y       z     vdW  Elec       q    Type
REMARK                         _______ _______ _______ _____ _____    ______ ____
ROOT
ATOM      1  N   UNL     1      33.815 -14.681 -24.241  0.00  0.00    -0.240 N 
ATOM      2  N   UNL     1      33.668 -15.673 -26.230  0.00  0.00    -0.319 NA
ATOM      3  N   UNL     1      34.311 -17.897 -25.498  0.00  0.00    -0.181 NA
ATOM      4  N   UNL     1      33.168 -13.328 -26.054  0.00  0.00    -0.320 N 
ATOM      5  C   UNL     1      34.152 -15.989 -24.024  0.00  0.00    +0.130 C 
ATOM      6  C   UNL     1      34.795 -18.059 -23.105  0.00  0.00    +0.022 C 
ATOM      7  C   UNL     1      34.053 -16.583 -25.277  0.00  0.00    +0.105 C 
ATOM      8  C   UNL     1      34.527 -16.708 -22.895  0.00  0.00    +0.028 C 
ATOM      9  C   UNL     1      33.534 -14.541 -25.574  0.00  0.00    +0.250 C 
ATOM     10  C   UNL     1      34.674 -18.583 -24.387  0.00  0.00    +0.111 C 
ATOM     11  C   UNL     1      33.766 -13.645 -23.232  0.00  0.00    +0.122 C 
ATOM     12  H   UNL     1      33.106 -12.556 -25.446  0.00  0.00    +0.146 HD
ATOM     13  H   UNL     1      32.964 -13.219 -27.011  0.00  0.00    +0.146 HD
ENDROOT
BRANCH   6  14
ATOM     14  C   UNL     1      35.193 -18.903 -22.003  0.00  0.00    +0.002 C 
ATOM     15  C   UNL     1      34.262 -19.750 -21.399  0.00  0.00    +0.003 C 
ATOM     16  C   UNL     1      36.510 -18.875 -21.541  0.00  0.00    +0.003 C 
ATOM     17  C   UNL     1      34.646 -20.565 -20.336  0.00  0.00    +0.037 C 
ATOM     18  C   UNL     1      36.895 -19.692 -20.477  0.00  0.00    +0.037 C 
ATOM     19  C   UNL     1      35.962 -20.536 -19.875  0.00  0.00    +0.134 C 
BRANCH  19  20
ATOM     20  O   UNL     1      36.338 -21.333 -18.836  0.00  0.00    -0.506 OA
ATOM     21  H   UNL     1      36.415 -22.259 -18.960  0.00  0.00    +0.292 HD
ENDBRANCH  19  20
ENDBRANCH   6  14
TORSDOF 2
ENDMDL
MODEL 3
REMARK VINA RESULT:      -9.2      1.384      2.481
REMARK  Name = 15897928
REMARK  2 active torsions:
REMARK  status: ('A' for Active; 'I' for Inactive)
REMARK    1  A    between atoms: C_6  and  C_14
REMARK    2  A    between atoms: C_19  and  O_20
REMARK                            x       y       z     vdW  Elec       q    Type
REMARK                         _______ _______ _______ _____ _____    ______ ____
ROOT
ATOM      1  N   UNL     1      33.820 -15.097 -24.499  0.00  0.00    -0.240 N 
ATOM      2  N   UNL     1      34.027 -13.436 -23.029  0.00  0.00    -0.319 NA
ATOM      3  N   UNL     1      34.535 -14.815 -21.097  0.00  0.00    -0.181 NA
ATOM      4  N   UNL     1      33.499 -12.914 -25.316  0.00  0.00    -0.320 N 
ATOM      5  C   UNL     1      34.117 -15.697 -23.307  0.00  0.00    +0.130 C 
ATOM      6  C   UNL     1      34.593 -17.214 -21.570  0.00  0.00    +0.022 C 
ATOM      7  C   UNL     1      34.241 -14.642 -22.410  0.00  0.00    +0.105 C 
ATOM      8  C   UNL     1      34.290 -17.021 -22.916  0.00  0.00    +0.028 C 
ATOM      9  C   UNL     1      33.776 -13.745 -24.283  0.00  0.00    +0.250 C 
ATOM     10  C   UNL     1      34.700 -16.109 -20.733  0.00  0.00    +0.111 C 
ATOM     11  C   UNL     1      33.596 -15.781 -25.754  0.00  0.00    +0.122 C 
ATOM     12  H   UNL     1      33.330 -13.283 -26.213  0.00  0.00    +0.146 HD
ATOM     13  H   UNL     1      33.466 -11.941 -25.169  0.00  0.00    +0.146 HD
ENDROOT
BRANCH   6  14
ATOM     14  C   UNL     1      34.793 -18.548 -21.052  0.00  0.00    +0.002 C 
ATOM     15  C   UNL     1      36.086 -19.023 -20.827  0.00  0.00    +0.003 C 
ATOM     16  C   UNL     1      33.694 -19.362 -20.775  0.00  0.00    +0.003 C 
ATOM     17  C   UNL     1      36.280 -20.310 -20.327  0.00  0.00    +0.037 C 
ATOM     18  C   UNL     1      33.888 -20.650 -20.274  0.00  0.00    +0.037 C 
ATOM     19  C   UNL     1      35.181 -21.123 -20.050  0.00  0.00    +0.134 C 
BRANCH  19  20
ATOM     20  O   UNL     1      35.370 -22.380 -19.562  0.00  0.00    -0.506 OA
ATOM     21  H   UNL     1      34.733 -23.048 -19.727  0.00  0.00    +0.292 HD
ENDBRANCH  19  20
ENDBRANCH   6  14
TORSDOF 2
ENDMDL
MODEL 4
REMARK VINA RESULT:      -9.1      4.055      6.655
REMARK  Name = 15897928
REMARK  2 active torsions:
REMARK  status: ('A' for Active; 'I' for Inactive)
REMARK    1  A    between atoms: C_6  and  C_14
REMARK    2  A    between atoms: C_19  and  O_20
REMARK                            x       y       z     vdW  Elec       q    Type
REMARK                         _______ _______ _______ _____ _____    ______ ____
ROOT
ATOM      1  N   UNL     1      34.451 -21.400 -19.363  0.00  0.00    -0.240 N 
ATOM      2  N   UNL     1      36.579 -21.205 -18.734  0.00  0.00    -0.319 NA
ATOM      3  N   UNL     1      37.229 -19.563 -20.400  0.00  0.00    -0.181 NA
ATOM      4  N   UNL     1      35.141 -22.716 -17.539  0.00  0.00    -0.320 N 
ATOM      5  C   UNL     1      35.003 -20.484 -20.216  0.00  0.00    +0.130 C 
ATOM      6  C   UNL     1      35.420 -18.900 -21.907  0.00  0.00    +0.022 C 
ATOM      7  C   UNL     1      36.327 -20.381 -19.803  0.00  0.00    +0.105 C 
ATOM      8  C   UNL     1      34.505 -19.745 -21.283  0.00  0.00    +0.028 C 
ATOM      9  C   UNL     1      35.432 -21.802 -18.496  0.00  0.00    +0.250 C 
ATOM     10  C   UNL     1      36.728 -18.851 -21.438  0.00  0.00    +0.111 C 
ATOM     11  C   UNL     1      33.076 -21.850 -19.385  0.00  0.00    +0.122 C 
ATOM     12  H   UNL     1      34.230 -23.085 -17.471  0.00  0.00    +0.146 HD
ATOM     13  H   UNL     1      35.840 -23.011 -16.911  0.00  0.00    +0.146 HD
ENDROOT
BRANCH   6  14
ATOM     14  C   UNL     1      35.013 -18.085 -23.028  0.00  0.00    +0.002 C 
ATOM     15  C   UNL     1      34.678 -18.685 -24.243  0.00  0.00    +0.003 C 
ATOM     16  C   UNL     1      34.952 -16.697 -22.898  0.00  0.00    +0.003 C 
ATOM     17  C   UNL     1      34.285 -17.899 -25.325  0.00  0.00    +0.037 C 
ATOM     18  C   UNL     1      34.558 -15.910 -23.981  0.00  0.00    +0.037 C 
ATOM     19  C   UNL     1      34.225 -16.512 -25.194  0.00  0.00    +0.134 C 
BRANCH  19  20
ATOM     20  O   UNL     1      33.841 -15.744 -26.251  0.00  0.00    -0.506 OA
ATOM     21  H   UNL     1      33.212 -15.060 -26.129  0.00  0.00    +0.292 HD
ENDBRANCH  19  20
ENDBRANCH   6  14
TORSDOF 2
ENDMDL
MODEL 5
REMARK VINA RESULT:      -8.9      4.694      7.879
REMARK  Name = 15897928
REMARK  2 active torsions:
REMARK  status: ('A' for Active; 'I' for Inactive)
REMARK    1  A    between atoms: C_6  and  C_14
REMARK    2  A    between atoms: C_19  and  O_20
REMARK                            x       y       z     vdW  Elec       q    Type
REMARK                         _______ _______ _______ _____ _____    ______ ____
ROOT
ATOM      1  N   UNL     1      34.666 -17.229 -23.387  0.00  0.00    -0.240 N 
ATOM      2  N   UNL     1      34.295 -17.645 -25.544  0.00  0.00    -0.319 NA
ATOM      3  N   UNL     1      33.548 -15.416 -26.150  0.00  0.00    -0.181 NA
ATOM      4  N   UNL     1      35.099 -19.418 -24.133  0.00  0.00    -0.320 N 
ATOM      5  C   UNL     1      34.224 -16.048 -23.918  0.00  0.00    +0.130 C 
ATOM      6  C   UNL     1      33.532 -13.829 -24.288  0.00  0.00    +0.022 C 
ATOM      7  C   UNL     1      34.000 -16.334 -25.260  0.00  0.00    +0.105 C 
ATOM      8  C   UNL     1      33.996 -14.783 -23.387  0.00  0.00    +0.028 C 
ATOM      9  C   UNL     1      34.692 -18.153 -24.398  0.00  0.00    +0.250 C 
ATOM     10  C   UNL     1      33.332 -14.189 -25.616  0.00  0.00    +0.111 C 
ATOM     11  C   UNL     1      35.038 -17.445 -22.006  0.00  0.00    +0.122 C 
ATOM     12  H   UNL     1      35.373 -19.666 -23.220  0.00  0.00    +0.146 HD
ATOM     13  H   UNL     1      35.122 -20.088 -24.854  0.00  0.00    +0.146 HD
ENDROOT
BRANCH   6  14
ATOM     14  C   UNL     1      33.261 -12.480 -23.847  0.00  0.00    +0.002 C 
ATOM     15  C   UNL     1      33.907 -11.403 -24.455  0.00  0.00    +0.003 C 
ATOM     16  C   UNL     1      32.352 -12.252 -22.813  0.00  0.00    +0.003 C 
ATOM     17  C   UNL     1      33.645 -10.101 -24.030  0.00  0.00    +0.037 C 
ATOM     18  C   UNL     1      32.089 -10.950 -22.387  0.00  0.00    +0.037 C 
ATOM     19  C   UNL     1      32.737  -9.874 -22.996  0.00  0.00    +0.134 C 
BRANCH  19  20
ATOM     20  O   UNL     1      32.481  -8.603 -22.581  0.00  0.00    -0.506 OA
ATOM     21  H   UNL     1      32.275  -8.436 -21.682  0.00  0.00    +0.292 HD
ENDBRANCH  19  20
ENDBRANCH   6  14
TORSDOF 2
ENDMDL
MODEL 6
REMARK VINA RESULT:      -8.8      4.972      7.577
REMARK  Name = 15897928
REMARK  2 active torsions:
REMARK  status: ('A' for Active; 'I' for Inactive)
REMARK    1  A    between atoms: C_6  and  C_14
REMARK    2  A    between atoms: C_19  and  O_20
REMARK                            x       y       z     vdW  Elec       q    Type
REMARK                         _______ _______ _______ _____ _____    ______ ____
ROOT
ATOM      1  N   UNL     1      36.020 -22.858 -16.575  0.00  0.00    -0.240 N 
ATOM      2  N   UNL     1      33.982 -23.757 -16.590  0.00  0.00    -0.319 NA
ATOM      3  N   UNL     1      33.164 -22.598 -18.560  0.00  0.00    -0.181 NA
ATOM      4  N   UNL     1      35.530 -24.400 -14.867  0.00  0.00    -0.320 N 
ATOM      5  C   UNL     1      35.384 -22.308 -17.654  0.00  0.00    +0.130 C 
ATOM      6  C   UNL     1      34.795 -21.084 -19.577  0.00  0.00    +0.022 C 
ATOM      7  C   UNL     1      34.119 -22.884 -17.641  0.00  0.00    +0.105 C 
ATOM      8  C   UNL     1      35.765 -21.388 -18.625  0.00  0.00    +0.028 C 
ATOM      9  C   UNL     1      35.142 -23.718 -15.971  0.00  0.00    +0.250 C 
ATOM     10  C   UNL     1      33.550 -21.700 -19.498  0.00  0.00    +0.111 C 
ATOM     11  C   UNL     1      37.377 -22.574 -16.162  0.00  0.00    +0.122 C 
ATOM     12  H   UNL     1      36.437 -24.275 -14.505  0.00  0.00    +0.146 HD
ATOM     13  H   UNL     1      34.905 -25.020 -14.426  0.00  0.00    +0.146 HD
ENDROOT
BRANCH   6  14
ATOM     14  C   UNL     1      35.079 -20.140 -20.632  0.00  0.00    +0.002 C 
ATOM     15  C   UNL     1      34.086 -19.800 -21.552  0.00  0.00    +0.003 C 
ATOM     16  C   UNL     1      36.347 -19.565 -20.733  0.00  0.00    +0.003 C 
ATOM     17  C   UNL     1      34.360 -18.889 -22.571  0.00  0.00    +0.037 C 
ATOM     18  C   UNL     1      36.621 -18.652 -21.752  0.00  0.00    +0.037 C 
ATOM     19  C   UNL     1      35.627 -18.315 -22.671  0.00  0.00    +0.134 C 
BRANCH  19  20
ATOM     20  O   UNL     1      35.895 -17.424 -23.666  0.00  0.00    -0.506 OA
ATOM     21  H   UNL     1      35.227 -16.836 -23.960  0.00  0.00    +0.292 HD
ENDBRANCH  19  20
ENDBRANCH   6  14
TORSDOF 2
ENDMDL
MODEL 7
REMARK VINA RESULT:      -8.8      7.962     10.146
REMARK  Name = 15897928
REMARK  2 active torsions:
REMARK  status: ('A' for Active; 'I' for Inactive)
REMARK    1  A    between atoms: C_6  and  C_14
REMARK    2  A    between atoms: C_19  and  O_20
REMARK                            x       y       z     vdW  Elec       q    Type
REMARK                         _______ _______ _______ _____ _____    ______ ____
ROOT
ATOM      1  N   UNL     1      37.522 -25.465 -13.860  0.00  0.00    -0.240 N 
ATOM      2  N   UNL     1      38.763 -24.165 -15.175  0.00  0.00    -0.319 NA
ATOM      3  N   UNL     1      36.934 -22.902 -16.151  0.00  0.00    -0.181 NA
ATOM      4  N   UNL     1      39.850 -25.798 -13.786  0.00  0.00    -0.320 N 
ATOM      5  C   UNL     1      36.636 -24.654 -14.515  0.00  0.00    +0.130 C 
ATOM      6  C   UNL     1      34.723 -23.554 -15.333  0.00  0.00    +0.022 C 
ATOM      7  C   UNL     1      37.434 -23.855 -15.326  0.00  0.00    +0.105 C 
ATOM      8  C   UNL     1      35.251 -24.529 -14.492  0.00  0.00    +0.028 C 
ATOM      9  C   UNL     1      38.780 -25.135 -14.288  0.00  0.00    +0.250 C 
ATOM     10  C   UNL     1      35.584 -22.793 -16.116  0.00  0.00    +0.111 C 
ATOM     11  C   UNL     1      37.175 -26.483 -12.891  0.00  0.00    +0.122 C 
ATOM     12  H   UNL     1      39.718 -26.511 -13.119  0.00  0.00    +0.146 HD
ATOM     13  H   UNL     1      40.758 -25.567 -14.087  0.00  0.00    +0.146 HD
ENDROOT
BRANCH   6  14
ATOM     14  C   UNL     1      33.295 -23.337 -15.391  0.00  0.00    +0.002 C 
ATOM     15  C   UNL     1      32.663 -23.176 -16.625  0.00  0.00    +0.003 C 
ATOM     16  C   UNL     1      32.547 -23.288 -14.214  0.00  0.00    +0.003 C 
ATOM     17  C   UNL     1      31.286 -22.967 -16.682  0.00  0.00    +0.037 C 
ATOM     18  C   UNL     1      31.169 -23.079 -14.271  0.00  0.00    +0.037 C 
ATOM     19  C   UNL     1      30.539 -22.918 -15.505  0.00  0.00    +0.134 C 
BRANCH  19  20
ATOM     20  O   UNL     1      29.193 -22.714 -15.560  0.00  0.00    -0.506 OA
ATOM     21  H   UNL     1      28.611 -23.313 -15.135  0.00  0.00    +0.292 HD
ENDBRANCH  19  20
ENDBRANCH   6  14
TORSDOF 2
ENDMDL
MODEL 8
REMARK VINA RESULT:      -8.7      5.421      7.391
REMARK  Name = 15897928
REMARK  2 active torsions:
REMARK  status: ('A' for Active; 'I' for Inactive)
REMARK    1  A    between atoms: C_6  and  C_14
REMARK    2  A    between atoms: C_19  and  O_20
REMARK                            x       y       z     vdW  Elec       q    Type
REMARK                         _______ _______ _______ _____ _____    ______ ____
ROOT
ATOM      1  N   UNL     1      33.561  -9.007 -23.360  0.00  0.00    -0.240 N 
ATOM      2  N   UNL     1      31.888  -9.092 -21.891  0.00  0.00    -0.319 NA
ATOM      3  N   UNL     1      31.550 -11.495 -21.970  0.00  0.00    -0.181 NA
ATOM      4  N   UNL     1      32.868  -6.963 -22.423  0.00  0.00    -0.320 N 
ATOM      5  C   UNL     1      33.221 -10.329 -23.267  0.00  0.00    +0.130 C 
ATOM      6  C   UNL     1      33.063 -12.666 -23.494  0.00  0.00    +0.022 C 
ATOM      7  C   UNL     1      32.179 -10.354 -22.347  0.00  0.00    +0.105 C 
ATOM      8  C   UNL     1      33.699 -11.486 -23.872  0.00  0.00    +0.028 C 
ATOM      9  C   UNL     1      32.736  -8.308 -22.519  0.00  0.00    +0.250 C 
ATOM     10  C   UNL     1      32.027 -12.613 -22.568  0.00  0.00    +0.111 C 
ATOM     11  C   UNL     1      34.607  -8.462 -24.198  0.00  0.00    +0.122 C 
ATOM     12  H   UNL     1      33.553  -6.496 -22.956  0.00  0.00    +0.146 HD
ATOM     13  H   UNL     1      32.280  -6.452 -21.821  0.00  0.00    +0.146 HD
ENDROOT
BRANCH   6  14
ATOM     14  C   UNL     1      33.475 -13.930 -24.060  0.00  0.00    +0.002 C 
ATOM     15  C   UNL     1      34.316 -14.777 -23.337  0.00  0.00    +0.003 C 
ATOM     16  C   UNL     1      33.033 -14.306 -25.329  0.00  0.00    +0.003 C 
ATOM     17  C   UNL     1      34.715 -15.997 -23.882  0.00  0.00    +0.037 C 
ATOM     18  C   UNL     1      33.431 -15.527 -25.874  0.00  0.00    +0.037 C 
ATOM     19  C   UNL     1      34.272 -16.372 -25.150  0.00  0.00    +0.134 C 
BRANCH  19  20
ATOM     20  O   UNL     1      34.661 -17.564 -25.683  0.00  0.00    -0.506 OA
ATOM     21  H   UNL     1      35.572 -17.774 -25.746  0.00  0.00    +0.292 HD
ENDBRANCH  19  20
ENDBRANCH   6  14
TORSDOF 2
ENDMDL
MODEL 9
REMARK VINA RESULT:      -8.6      5.752      8.400
REMARK  Name = 15897928
REMARK  2 active torsions:
REMARK  status: ('A' for Active; 'I' for Inactive)
REMARK    1  A    between atoms: C_6  and  C_14
REMARK    2  A    between atoms: C_19  and  O_20
REMARK                            x       y       z     vdW  Elec       q    Type
REMARK                         _______ _______ _______ _____ _____    ______ ____
ROOT
ATOM      1  N   UNL     1      36.133 -23.739 -15.369  0.00  0.00    -0.240 N 
ATOM      2  N   UNL     1      34.142 -24.610 -14.884  0.00  0.00    -0.319 NA
ATOM      3  N   UNL     1      32.920 -23.591 -16.718  0.00  0.00    -0.181 NA
ATOM      4  N   UNL     1      36.022 -25.142 -13.484  0.00  0.00    -0.320 N 
ATOM      5  C   UNL     1      35.281 -23.262 -16.327  0.00  0.00    +0.130 C 
ATOM      6  C   UNL     1      34.293 -22.178 -18.168  0.00  0.00    +0.022 C 
ATOM      7  C   UNL     1      34.050 -23.819 -16.002  0.00  0.00    +0.105 C 
ATOM      8  C   UNL     1      35.444 -22.422 -17.423  0.00  0.00    +0.028 C 
ATOM      9  C   UNL     1      35.406 -24.539 -14.529  0.00  0.00    +0.250 C 
ATOM     10  C   UNL     1      33.096 -22.771 -17.781  0.00  0.00    +0.111 C 
ATOM     11  C   UNL     1      37.546 -23.442 -15.275  0.00  0.00    +0.122 C 
ATOM     12  H   UNL     1      36.985 -25.002 -13.333  0.00  0.00    +0.146 HD
ATOM     13  H   UNL     1      35.507 -25.720 -12.875  0.00  0.00    +0.146 HD
ENDROOT
BRANCH   6  14
ATOM     14  C   UNL     1      34.343 -21.318 -19.328  0.00  0.00    +0.002 C 
ATOM     15  C   UNL     1      35.572 -20.995 -19.905  0.00  0.00    +0.003 C 
ATOM     16  C   UNL     1      33.163 -20.811 -19.874  0.00  0.00    +0.003 C 
ATOM     17  C   UNL     1      35.622 -20.166 -21.025  0.00  0.00    +0.037 C 
ATOM     18  C   UNL     1      33.212 -19.982 -20.996  0.00  0.00    +0.037 C 
ATOM     19  C   UNL     1      34.442 -19.660 -21.570  0.00  0.00    +0.134 C 
BRANCH  19  20
ATOM     20  O   UNL     1      34.490 -18.850 -22.664  0.00  0.00    -0.506 OA
ATOM     21  H   UNL     1      34.411 -19.218 -23.523  0.00  0.00    +0.292 HD
ENDBRANCH  19  20
ENDBRANCH   6  14
TORSDOF 2
ENDMDL
