MODEL 1
REMARK VINA RESULT:      -4.7      0.000      0.000
REMARK  Name = 445969
REMARK  7 active torsions:
REMARK  status: ('A' for Active; 'I' for Inactive)
REMARK    1  A    between atoms: C_1  and  O_2
REMARK    2  A    between atoms: C_1  and  C_4
REMARK    3  A    between atoms: C_1  and  C_10
REMARK    4  A    between atoms: C_4  and  O_5
REMARK    5  A    between atoms: C_4  and  C_7
REMARK    6  A    between atoms: C_7  and  O_8
REMARK    7  A    between atoms: C_10  and  O_11
REMARK                            x       y       z     vdW  Elec       q    Type
REMARK                         _______ _______ _______ _____ _____    ______ ____
ROOT
ATOM      1  C   UNL     1      38.533 -24.879 -14.812  0.00  0.00    +0.169 C 
ENDROOT
BRANCH   1   2
ATOM      2  O   UNL     1      38.442 -23.988 -13.698  0.00  0.00    -0.379 OA
ATOM      3  H   UNL     1      39.185 -24.147 -13.095  0.00  0.00    +0.211 HD
ENDBRANCH   1   2
BRANCH   1   4
ATOM      4  C   UNL     1      37.338 -25.843 -14.823  0.00  0.00    +0.169 C 
BRANCH   4   5
ATOM      5  O   UNL     1      37.479 -26.752 -15.918  0.00  0.00    -0.379 OA
ATOM      6  H   UNL     1      38.411 -26.796 -16.182  0.00  0.00    +0.211 HD
ENDBRANCH   4   5
BRANCH   4   7
ATOM      7  C   UNL     1      37.216 -26.653 -13.534  0.00  0.00    +0.169 C 
BRANCH   7   8
ATOM      8  O   UNL     1      36.418 -25.922 -12.609  0.00  0.00    -0.379 OA
ATOM      9  H   UNL     1      36.986 -25.345 -12.076  0.00  0.00    +0.211 HD
ENDBRANCH   7   8
ENDBRANCH   4   7
ENDBRANCH   1   4
BRANCH   1  10
ATOM     10  C   UNL     1      39.866 -25.617 -14.702  0.00  0.00    +0.169 C 
BRANCH  10  11
ATOM     11  O   UNL     1      40.347 -25.897 -16.012  0.00  0.00    -0.379 OA
ATOM     12  H   UNL     1      41.096 -25.314 -16.213  0.00  0.00    +0.211 HD
ENDBRANCH  10  11
ENDBRANCH   1  10
TORSDOF 7
ENDMDL
MODEL 2
REMARK VINA RESULT:      -4.6      0.326      3.652
REMARK  Name = 445969
REMARK  7 active torsions:
REMARK  status: ('A' for Active; 'I' for Inactive)
REMARK    1  A    between atoms: C_1  and  O_2
REMARK    2  A    between atoms: C_1  and  C_4
REMARK    3  A    between atoms: C_1  and  C_10
REMARK    4  A    between atoms: C_4  and  O_5
REMARK    5  A    between atoms: C_4  and  C_7
REMARK    6  A    between atoms: C_7  and  O_8
REMARK    7  A    between atoms: C_10  and  O_11
REMARK                            x       y       z     vdW  Elec       q    Type
REMARK                         _______ _______ _______ _____ _____    ______ ____
ROOT
ATOM      1  C   UNL     1      37.509 -25.736 -14.687  0.00  0.00    +0.169 C 
ENDROOT
BRANCH   1   2
ATOM      2  O   UNL     1      37.555 -26.595 -15.829  0.00  0.00    -0.379 OA
ATOM      3  H   UNL     1      37.957 -27.441 -15.581  0.00  0.00    +0.211 HD
ENDBRANCH   1   2
BRANCH   1   4
ATOM      4  C   UNL     1      38.828 -24.963 -14.548  0.00  0.00    +0.169 C 
BRANCH   4   5
ATOM      5  O   UNL     1      38.865 -24.325 -13.269  0.00  0.00    -0.379 OA
ATOM      6  H   UNL     1      38.631 -23.388 -13.370  0.00  0.00    +0.211 HD
ENDBRANCH   4   5
BRANCH   4   7
ATOM      7  C   UNL     1      40.058 -25.858 -14.679  0.00  0.00    +0.169 C 
BRANCH   7   8
ATOM      8  O   UNL     1      40.417 -25.946 -16.054  0.00  0.00    -0.379 OA
ATOM      9  H   UNL     1      39.776 -26.505 -16.521  0.00  0.00    +0.211 HD
ENDBRANCH   7   8
ENDBRANCH   4   7
ENDBRANCH   1   4
BRANCH   1  10
ATOM     10  C   UNL     1      37.223 -26.609 -13.468  0.00  0.00    +0.169 C 
BRANCH  10  11
ATOM     11  O   UNL     1      36.391 -25.885 -12.568  0.00  0.00    -0.379 OA
ATOM     12  H   UNL     1      36.463 -26.270 -11.680  0.00  0.00    +0.211 HD
ENDBRANCH  10  11
ENDBRANCH   1  10
TORSDOF 7
ENDMDL
MODEL 3
REMARK VINA RESULT:      -4.6      1.609      2.150
REMARK  Name = 445969
REMARK  7 active torsions:
REMARK  status: ('A' for Active; 'I' for Inactive)
REMARK    1  A    between atoms: C_1  and  O_2
REMARK    2  A    between atoms: C_1  and  C_4
REMARK    3  A    between atoms: C_1  and  C_10
REMARK    4  A    between atoms: C_4  and  O_5
REMARK    5  A    between atoms: C_4  and  C_7
REMARK    6  A    between atoms: C_7  and  O_8
REMARK    7  A    between atoms: C_10  and  O_11
REMARK                            x       y       z     vdW  Elec       q    Type
REMARK                         _______ _______ _______ _____ _____    ______ ____
ROOT
ATOM      1  C   UNL     1      39.079 -25.750 -14.044  0.00  0.00    +0.169 C 
ENDROOT
BRANCH   1   2
ATOM      2  O   UNL     1      38.568 -26.968 -14.592  0.00  0.00    -0.379 OA
ATOM      3  H   UNL     1      37.771 -27.231 -14.107  0.00  0.00    +0.211 HD
ENDBRANCH   1   2
BRANCH   1   4
ATOM      4  C   UNL     1      38.091 -24.600 -14.287  0.00  0.00    +0.169 C 
BRANCH   4   5
ATOM      5  O   UNL     1      38.472 -23.897 -15.472  0.00  0.00    -0.379 OA
ATOM      6  H   UNL     1      39.235 -23.329 -15.279  0.00  0.00    +0.211 HD
ENDBRANCH   4   5
BRANCH   4   7
ATOM      7  C   UNL     1      36.651 -25.079 -14.451  0.00  0.00    +0.169 C 
BRANCH   7   8
ATOM      8  O   UNL     1      36.503 -25.653 -15.746  0.00  0.00    -0.379 OA
ATOM      9  H   UNL     1      35.764 -25.227 -16.206  0.00  0.00    +0.211 HD
ENDBRANCH   7   8
ENDBRANCH   4   7
ENDBRANCH   1   4
BRANCH   1  10
ATOM     10  C   UNL     1      40.436 -25.489 -14.694  0.00  0.00    +0.169 C 
BRANCH  10  11
ATOM     11  O   UNL     1      40.398 -25.947 -16.041  0.00  0.00    -0.379 OA
ATOM     12  H   UNL     1      41.151 -25.579 -16.530  0.00  0.00    +0.211 HD
ENDBRANCH  10  11
ENDBRANCH   1  10
TORSDOF 7
ENDMDL
MODEL 4
REMARK VINA RESULT:      -4.6      1.588      3.105
REMARK  Name = 445969
REMARK  7 active torsions:
REMARK  status: ('A' for Active; 'I' for Inactive)
REMARK    1  A    between atoms: C_1  and  O_2
REMARK    2  A    between atoms: C_1  and  C_4
REMARK    3  A    between atoms: C_1  and  C_10
REMARK    4  A    between atoms: C_4  and  O_5
REMARK    5  A    between atoms: C_4  and  C_7
REMARK    6  A    between atoms: C_7  and  O_8
REMARK    7  A    between atoms: C_10  and  O_11
REMARK                            x       y       z     vdW  Elec       q    Type
REMARK                         _______ _______ _______ _____ _____    ______ ____
ROOT
ATOM      1  C   UNL     1      38.072 -24.643 -14.267  0.00  0.00    +0.169 C 
ENDROOT
BRANCH   1   2
ATOM      2  O   UNL     1      38.374 -23.890 -15.444  0.00  0.00    -0.379 OA
ATOM      3  H   UNL     1      38.354 -24.476 -16.216  0.00  0.00    +0.211 HD
ENDBRANCH   1   2
BRANCH   1   4
ATOM      4  C   UNL     1      39.118 -25.747 -14.057  0.00  0.00    +0.169 C 
BRANCH   4   5
ATOM      5  O   UNL     1      38.613 -26.977 -14.582  0.00  0.00    -0.379 OA
ATOM      6  H   UNL     1      37.646 -26.930 -14.639  0.00  0.00    +0.211 HD
ENDBRANCH   4   5
BRANCH   4   7
ATOM      7  C   UNL     1      40.450 -25.440 -14.739  0.00  0.00    +0.169 C 
BRANCH   7   8
ATOM      8  O   UNL     1      40.411 -25.949 -16.069  0.00  0.00    -0.379 OA
ATOM      9  H   UNL     1      41.168 -26.538 -16.212  0.00  0.00    +0.211 HD
ENDBRANCH   7   8
ENDBRANCH   4   7
ENDBRANCH   1   4
BRANCH   1  10
ATOM     10  C   UNL     1      36.664 -25.209 -14.432  0.00  0.00    +0.169 C 
BRANCH  10  11
ATOM     11  O   UNL     1      36.508 -25.673 -15.769  0.00  0.00    -0.379 OA
ATOM     12  H   UNL     1      36.024 -26.513 -15.766  0.00  0.00    +0.211 HD
ENDBRANCH  10  11
ENDBRANCH   1  10
TORSDOF 7
ENDMDL
MODEL 5
REMARK VINA RESULT:      -4.4      2.676      4.297
REMARK  Name = 445969
REMARK  7 active torsions:
REMARK  status: ('A' for Active; 'I' for Inactive)
REMARK    1  A    between atoms: C_1  and  O_2
REMARK    2  A    between atoms: C_1  and  C_4
REMARK    3  A    between atoms: C_1  and  C_10
REMARK    4  A    between atoms: C_4  and  O_5
REMARK    5  A    between atoms: C_4  and  C_7
REMARK    6  A    between atoms: C_7  and  O_8
REMARK    7  A    between atoms: C_10  and  O_11
REMARK                            x       y       z     vdW  Elec       q    Type
REMARK                         _______ _______ _______ _____ _____    ______ ____
ROOT
ATOM      1  C   UNL     1      35.648 -24.373 -12.504  0.00  0.00    +0.169 C 
ENDROOT
BRANCH   1   2
ATOM      2  O   UNL     1      34.377 -25.022 -12.579  0.00  0.00    -0.379 OA
ATOM      3  H   UNL     1      33.885 -24.865 -11.759  0.00  0.00    +0.211 HD
ENDBRANCH   1   2
BRANCH   1   4
ATOM      4  C   UNL     1      36.725 -25.227 -13.188  0.00  0.00    +0.169 C 
BRANCH   4   5
ATOM      5  O   UNL     1      36.753 -26.521 -12.582  0.00  0.00    -0.379 OA
ATOM      6  H   UNL     1      35.976 -27.028 -12.868  0.00  0.00    +0.211 HD
ENDBRANCH   4   5
BRANCH   4   7
ATOM      7  C   UNL     1      36.483 -25.400 -14.686  0.00  0.00    +0.169 C 
BRANCH   7   8
ATOM      8  O   UNL     1      35.746 -26.600 -14.895  0.00  0.00    -0.379 OA
ATOM      9  H   UNL     1      34.843 -26.381 -15.172  0.00  0.00    +0.211 HD
ENDBRANCH   7   8
ENDBRANCH   4   7
ENDBRANCH   1   4
BRANCH   1  10
ATOM     10  C   UNL     1      35.955 -24.136 -11.027  0.00  0.00    +0.169 C 
BRANCH  10  11
ATOM     11  O   UNL     1      35.293 -25.131 -10.253  0.00  0.00    -0.379 OA
ATOM     12  H   UNL     1      34.454 -24.776  -9.921  0.00  0.00    +0.211 HD
ENDBRANCH  10  11
ENDBRANCH   1  10
TORSDOF 7
ENDMDL
MODEL 6
REMARK VINA RESULT:      -4.3      1.558      3.092
REMARK  Name = 445969
REMARK  7 active torsions:
REMARK  status: ('A' for Active; 'I' for Inactive)
REMARK    1  A    between atoms: C_1  and  O_2
REMARK    2  A    between atoms: C_1  and  C_4
REMARK    3  A    between atoms: C_1  and  C_10
REMARK    4  A    between atoms: C_4  and  O_5
REMARK    5  A    between atoms: C_4  and  C_7
REMARK    6  A    between atoms: C_7  and  O_8
REMARK    7  A    between atoms: C_10  and  O_11
REMARK                            x       y       z     vdW  Elec       q    Type
REMARK                         _______ _______ _______ _____ _____    ______ ____
ROOT
ATOM      1  C   UNL     1      38.465 -24.901 -13.097  0.00  0.00    +0.169 C 
ENDROOT
BRANCH   1   2
ATOM      2  O   UNL     1      38.446 -24.060 -14.253  0.00  0.00    -0.379 OA
ATOM      3  H   UNL     1      39.095 -23.347 -14.145  0.00  0.00    +0.211 HD
ENDBRANCH   1   2
BRANCH   1   4
ATOM      4  C   UNL     1      37.676 -26.191 -13.363  0.00  0.00    +0.169 C 
BRANCH   4   5
ATOM      5  O   UNL     1      36.866 -26.488 -12.223  0.00  0.00    -0.379 OA
ATOM      6  H   UNL     1      37.404 -26.943 -11.555  0.00  0.00    +0.211 HD
ENDBRANCH   4   5
BRANCH   4   7
ATOM      7  C   UNL     1      36.770 -26.091 -14.588  0.00  0.00    +0.169 C 
BRANCH   7   8
ATOM      8  O   UNL     1      37.502 -26.512 -15.734  0.00  0.00    -0.379 OA
ATOM      9  H   UNL     1      38.425 -26.225 -15.652  0.00  0.00    +0.211 HD
ENDBRANCH   7   8
ENDBRANCH   4   7
ENDBRANCH   1   4
BRANCH   1  10
ATOM     10  C   UNL     1      37.882 -24.099 -11.936  0.00  0.00    +0.169 C 
BRANCH  10  11
ATOM     11  O   UNL     1      38.731 -22.988 -11.670  0.00  0.00    -0.379 OA
ATOM     12  H   UNL     1      38.192 -22.191 -11.545  0.00  0.00    +0.211 HD
ENDBRANCH  10  11
ENDBRANCH   1  10
TORSDOF 7
ENDMDL
MODEL 7
REMARK VINA RESULT:      -4.3      2.555      3.434
REMARK  Name = 445969
REMARK  7 active torsions:
REMARK  status: ('A' for Active; 'I' for Inactive)
REMARK    1  A    between atoms: C_1  and  O_2
REMARK    2  A    between atoms: C_1  and  C_4
REMARK    3  A    between atoms: C_1  and  C_10
REMARK    4  A    between atoms: C_4  and  O_5
REMARK    5  A    between atoms: C_4  and  C_7
REMARK    6  A    between atoms: C_7  and  O_8
REMARK    7  A    between atoms: C_10  and  O_11
REMARK                            x       y       z     vdW  Elec       q    Type
REMARK                         _______ _______ _______ _____ _____    ______ ____
ROOT
ATOM      1  C   UNL     1      36.944 -25.384 -13.310  0.00  0.00    +0.169 C 
ENDROOT
BRANCH   1   2
ATOM      2  O   UNL     1      36.832 -26.633 -12.623  0.00  0.00    -0.379 OA
ATOM      3  H   UNL     1      36.788 -27.355 -13.270  0.00  0.00    +0.211 HD
ENDBRANCH   1   2
BRANCH   1   4
ATOM      4  C   UNL     1      35.903 -24.388 -12.780  0.00  0.00    +0.169 C 
BRANCH   4   5
ATOM      5  O   UNL     1      34.592 -24.890 -13.054  0.00  0.00    -0.379 OA
ATOM      6  H   UNL     1      34.561 -25.838 -12.851  0.00  0.00    +0.211 HD
ENDBRANCH   4   5
BRANCH   4   7
ATOM      7  C   UNL     1      36.024 -24.146 -11.277  0.00  0.00    +0.169 C 
BRANCH   7   8
ATOM      8  O   UNL     1      35.298 -25.161 -10.590  0.00  0.00    -0.379 OA
ATOM      9  H   UNL     1      35.904 -25.670 -10.031  0.00  0.00    +0.211 HD
ENDBRANCH   7   8
ENDBRANCH   4   7
ENDBRANCH   1   4
BRANCH   1  10
ATOM     10  C   UNL     1      36.766 -25.663 -14.800  0.00  0.00    +0.169 C 
BRANCH  10  11
ATOM     11  O   UNL     1      35.873 -26.759 -14.961  0.00  0.00    -0.379 OA
ATOM     12  H   UNL     1      35.254 -26.784 -14.214  0.00  0.00    +0.211 HD
ENDBRANCH  10  11
ENDBRANCH   1  10
TORSDOF 7
ENDMDL
MODEL 8
REMARK VINA RESULT:      -4.3      1.943      3.100
REMARK  Name = 445969
REMARK  7 active torsions:
REMARK  status: ('A' for Active; 'I' for Inactive)
REMARK    1  A    between atoms: C_1  and  O_2
REMARK    2  A    between atoms: C_1  and  C_4
REMARK    3  A    between atoms: C_1  and  C_10
REMARK    4  A    between atoms: C_4  and  O_5
REMARK    5  A    between atoms: C_4  and  C_7
REMARK    6  A    between atoms: C_7  and  O_8
REMARK    7  A    between atoms: C_10  and  O_11
REMARK                            x       y       z     vdW  Elec       q    Type
REMARK                         _______ _______ _______ _____ _____    ______ ____
ROOT
ATOM      1  C   UNL     1      37.611 -25.897 -12.579  0.00  0.00    +0.169 C 
ENDROOT
BRANCH   1   2
ATOM      2  O   UNL     1      36.422 -25.878 -11.785  0.00  0.00    -0.379 OA
ATOM      3  H   UNL     1      36.516 -26.500 -11.047  0.00  0.00    +0.211 HD
ENDBRANCH   1   2
BRANCH   1   4
ATOM      4  C   UNL     1      38.226 -24.492 -12.651  0.00  0.00    +0.169 C 
BRANCH   4   5
ATOM      5  O   UNL     1      38.743 -24.274 -13.966  0.00  0.00    -0.379 OA
ATOM      6  H   UNL     1      38.562 -23.359 -14.236  0.00  0.00    +0.211 HD
ENDBRANCH   4   5
BRANCH   4   7
ATOM      7  C   UNL     1      37.221 -23.386 -12.337  0.00  0.00    +0.169 C 
BRANCH   7   8
ATOM      8  O   UNL     1      37.357 -23.021 -10.967  0.00  0.00    -0.379 OA
ATOM      9  H   UNL     1      36.492 -22.757 -10.615  0.00  0.00    +0.211 HD
ENDBRANCH   7   8
ENDBRANCH   4   7
ENDBRANCH   1   4
BRANCH   1  10
ATOM     10  C   UNL     1      37.233 -26.431 -13.958  0.00  0.00    +0.169 C 
BRANCH  10  11
ATOM     11  O   UNL     1      38.364 -27.085 -14.525  0.00  0.00    -0.379 OA
ATOM     12  H   UNL     1      38.307 -28.038 -14.352  0.00  0.00    +0.211 HD
ENDBRANCH  10  11
ENDBRANCH   1  10
TORSDOF 7
ENDMDL
MODEL 9
REMARK VINA RESULT:      -4.2      1.771      2.891
REMARK  Name = 445969
REMARK  7 active torsions:
REMARK  status: ('A' for Active; 'I' for Inactive)
REMARK    1  A    between atoms: C_1  and  O_2
REMARK    2  A    between atoms: C_1  and  C_4
REMARK    3  A    between atoms: C_1  and  C_10
REMARK    4  A    between atoms: C_4  and  O_5
REMARK    5  A    between atoms: C_4  and  C_7
REMARK    6  A    between atoms: C_7  and  O_8
REMARK    7  A    between atoms: C_10  and  O_11
REMARK                            x       y       z     vdW  Elec       q    Type
REMARK                         _______ _______ _______ _____ _____    ______ ____
ROOT
ATOM      1  C   UNL     1      36.637 -25.462 -14.688  0.00  0.00    +0.169 C 
ENDROOT
BRANCH   1   2
ATOM      2  O   UNL     1      37.280 -24.593 -15.623  0.00  0.00    -0.379 OA
ATOM      3  H   UNL     1      38.199 -24.448 -15.350  0.00  0.00    +0.211 HD
ENDBRANCH   1   2
BRANCH   1   4
ATOM      4  C   UNL     1      36.949 -25.023 -13.250  0.00  0.00    +0.169 C 
BRANCH   4   5
ATOM      5  O   UNL     1      35.979 -25.589 -12.366  0.00  0.00    -0.379 OA
ATOM      6  H   UNL     1      35.627 -24.895 -11.787  0.00  0.00    +0.211 HD
ENDBRANCH   4   5
BRANCH   4   7
ATOM      7  C   UNL     1      38.338 -25.456 -12.786  0.00  0.00    +0.169 C 
BRANCH   7   8
ATOM      8  O   UNL     1      39.305 -24.582 -13.360  0.00  0.00    -0.379 OA
ATOM      9  H   UNL     1      39.100 -23.666 -13.114  0.00  0.00    +0.211 HD
ENDBRANCH   7   8
ENDBRANCH   4   7
ENDBRANCH   1   4
BRANCH   1  10
ATOM     10  C   UNL     1      37.120 -26.882 -14.974  0.00  0.00    +0.169 C 
BRANCH  10  11
ATOM     11  O   UNL     1      36.753 -27.235 -16.303  0.00  0.00    -0.379 OA
ATOM     12  H   UNL     1      36.475 -26.440 -16.784  0.00  0.00    +0.211 HD
ENDBRANCH  10  11
ENDBRANCH   1  10
TORSDOF 7
ENDMDL
