MODEL 1
REMARK VINA RESULT:     -10.7      0.000      0.000
REMARK  Name = 1584
REMARK  3 active torsions:
REMARK  status: ('A' for Active; 'I' for Inactive)
REMARK    1  A    between atoms: N_3  and  C_14
REMARK    2  A    between atoms: C_14  and  C_15
REMARK    3  A    between atoms: C_15  and  C_16
REMARK                            x       y       z     vdW  Elec       q    Type
REMARK                         _______ _______ _______ _____ _____    ______ ____
ROOT
ATOM      1  O   UNL     1      34.576 -15.085 -21.210  0.00  0.00    -0.266 OA
ATOM      2  O   UNL     1      34.503 -18.011 -25.678  0.00  0.00    -0.266 OA
ATOM      3  N   UNL     1      35.014 -17.079 -22.289  0.00  0.00    -0.237 N 
ATOM      4  N   UNL     1      34.990 -17.824 -23.451  0.00  0.00    -0.260 N 
ATOM      5  C   UNL     1      34.051 -15.193 -23.486  0.00  0.00    +0.062 A 
ATOM      6  C   UNL     1      34.568 -15.773 -22.228  0.00  0.00    +0.275 A 
ATOM      7  C   UNL     1      34.029 -15.952 -24.656  0.00  0.00    +0.062 A 
ATOM      8  C   UNL     1      34.522 -17.341 -24.649  0.00  0.00    +0.272 A 
ATOM      9  C   UNL     1      33.581 -13.875 -23.503  0.00  0.00    +0.005 C 
ATOM     10  C   UNL     1      33.539 -15.394 -25.843  0.00  0.00    +0.005 C 
ATOM     11  C   UNL     1      33.094 -13.321 -24.687  0.00  0.00    +0.000 C 
ATOM     12  C   UNL     1      33.072 -14.080 -25.856  0.00  0.00    +0.000 C 
ATOM     13  H   UNL     1      35.325 -18.749 -23.419  0.00  0.00    +0.190 HD
ENDROOT
BRANCH   3  14
ATOM     14  C   UNL     1      35.531 -17.692 -21.080  0.00  0.00    +0.133 C 
BRANCH  14  15
ATOM     15  C   UNL     1      35.994 -19.127 -21.346  0.00  0.00    +0.053 C 
BRANCH  15  16
ATOM     16  C   UNL     1      35.171 -20.122 -20.566  0.00  0.00    -0.020 C 
ATOM     17  C   UNL     1      35.812 -21.098 -19.818  0.00  0.00    -0.004 C 
ATOM     18  C   UNL     1      33.788 -20.044 -20.609  0.00  0.00    -0.004 C 
ATOM     19  C   UNL     1      35.052 -22.018 -19.098  0.00  0.00    -0.000 C 
ATOM     20  C   UNL     1      33.027 -20.965 -19.888  0.00  0.00    -0.000 C 
ATOM     21  C   UNL     1      33.659 -21.952 -19.133  0.00  0.00    -0.000 C 
ENDBRANCH  15  16
ENDBRANCH  14  15
ENDBRANCH   3  14
TORSDOF 3
ENDMDL
MODEL 2
REMARK VINA RESULT:     -10.6      0.579      2.319
REMARK  Name = 1584
REMARK  3 active torsions:
REMARK  status: ('A' for Active; 'I' for Inactive)
REMARK    1  A    between atoms: N_3  and  C_14
REMARK    2  A    between atoms: C_14  and  C_15
REMARK    3  A    between atoms: C_15  and  C_16
REMARK                            x       y       z     vdW  Elec       q    Type
REMARK                         _______ _______ _______ _____ _____    ______ ____
ROOT
ATOM      1  O   UNL     1      34.502 -18.039 -25.441  0.00  0.00    -0.266 OA
ATOM      2  O   UNL     1      34.543 -14.353 -21.577  0.00  0.00    -0.266 OA
ATOM      3  N   UNL     1      35.020 -17.437 -23.273  0.00  0.00    -0.237 N 
ATOM      4  N   UNL     1      35.024 -16.475 -22.283  0.00  0.00    -0.260 N 
ATOM      5  C   UNL     1      33.977 -15.853 -24.797  0.00  0.00    +0.062 A 
ATOM      6  C   UNL     1      34.519 -17.204 -24.540  0.00  0.00    +0.275 A 
ATOM      7  C   UNL     1      33.985 -14.886 -23.793  0.00  0.00    +0.062 A 
ATOM      8  C   UNL     1      34.535 -15.203 -22.463  0.00  0.00    +0.272 A 
ATOM      9  C   UNL     1      33.453 -15.543 -26.058  0.00  0.00    +0.005 C 
ATOM     10  C   UNL     1      33.469 -13.610 -24.046  0.00  0.00    +0.005 C 
ATOM     11  C   UNL     1      32.938 -14.271 -26.307  0.00  0.00    +0.000 C 
ATOM     12  C   UNL     1      32.947 -13.305 -25.303  0.00  0.00    +0.000 C 
ATOM     13  H   UNL     1      35.397 -16.712 -21.403  0.00  0.00    +0.190 HD
ENDROOT
BRANCH   3  14
ATOM     14  C   UNL     1      35.562 -18.748 -22.971  0.00  0.00    +0.133 C 
BRANCH  14  15
ATOM     15  C   UNL     1      36.017 -18.832 -21.512  0.00  0.00    +0.053 C 
BRANCH  15  16
ATOM     16  C   UNL     1      35.221 -19.859 -20.747  0.00  0.00    -0.020 C 
ATOM     17  C   UNL     1      35.888 -20.838 -20.025  0.00  0.00    -0.004 C 
ATOM     18  C   UNL     1      33.836 -19.807 -20.777  0.00  0.00    -0.004 C 
ATOM     19  C   UNL     1      35.152 -21.788 -19.318  0.00  0.00    -0.000 C 
ATOM     20  C   UNL     1      33.100 -20.758 -20.069  0.00  0.00    -0.000 C 
ATOM     21  C   UNL     1      33.758 -21.748 -19.340  0.00  0.00    -0.000 C 
ENDBRANCH  15  16
ENDBRANCH  14  15
ENDBRANCH   3  14
TORSDOF 3
ENDMDL
MODEL 3
REMARK VINA RESULT:     -10.5      3.245      7.906
REMARK  Name = 1584
REMARK  3 active torsions:
REMARK  status: ('A' for Active; 'I' for Inactive)
REMARK    1  A    between atoms: N_3  and  C_14
REMARK    2  A    between atoms: C_14  and  C_15
REMARK    3  A    between atoms: C_15  and  C_16
REMARK                            x       y       z     vdW  Elec       q    Type
REMARK                         _______ _______ _______ _____ _____    ______ ____
ROOT
ATOM      1  O   UNL     1      34.597 -14.352 -21.768  0.00  0.00    -0.266 OA
ATOM      2  O   UNL     1      33.207 -15.742 -26.733  0.00  0.00    -0.266 OA
ATOM      3  N   UNL     1      33.665 -13.788 -23.803  0.00  0.00    -0.237 N 
ATOM      4  N   UNL     1      33.310 -14.160 -25.084  0.00  0.00    -0.260 N 
ATOM      5  C   UNL     1      34.529 -16.025 -23.399  0.00  0.00    +0.062 A 
ATOM      6  C   UNL     1      34.270 -14.654 -22.913  0.00  0.00    +0.275 A 
ATOM      7  C   UNL     1      34.169 -16.394 -24.694  0.00  0.00    +0.062 A 
ATOM      8  C   UNL     1      33.525 -15.419 -25.592  0.00  0.00    +0.272 A 
ATOM      9  C   UNL     1      35.140 -16.959 -22.554  0.00  0.00    +0.005 C 
ATOM     10  C   UNL     1      34.418 -17.696 -25.146  0.00  0.00    +0.005 C 
ATOM     11  C   UNL     1      35.386 -18.255 -23.006  0.00  0.00    +0.000 C 
ATOM     12  C   UNL     1      35.026 -18.623 -24.301  0.00  0.00    +0.000 C 
ATOM     13  H   UNL     1      32.881 -13.489 -25.663  0.00  0.00    +0.190 HD
ENDROOT
BRANCH   3  14
ATOM     14  C   UNL     1      33.388 -12.430 -23.372  0.00  0.00    +0.133 C 
BRANCH  14  15
ATOM     15  C   UNL     1      33.816 -11.417 -24.436  0.00  0.00    +0.053 C 
BRANCH  15  16
ATOM     16  C   UNL     1      33.809 -10.011 -23.891  0.00  0.00    -0.020 C 
ATOM     17  C   UNL     1      34.858  -9.157 -24.195  0.00  0.00    -0.004 C 
ATOM     18  C   UNL     1      32.753  -9.596 -23.095  0.00  0.00    -0.004 C 
ATOM     19  C   UNL     1      34.851  -7.857 -23.691  0.00  0.00    -0.000 C 
ATOM     20  C   UNL     1      32.747  -8.295 -22.590  0.00  0.00    -0.000 C 
ATOM     21  C   UNL     1      33.795  -7.426 -22.888  0.00  0.00    -0.000 C 
ENDBRANCH  15  16
ENDBRANCH  14  15
ENDBRANCH   3  14
TORSDOF 3
ENDMDL
MODEL 4
REMARK VINA RESULT:     -10.5      1.642      2.460
REMARK  Name = 1584
REMARK  3 active torsions:
REMARK  status: ('A' for Active; 'I' for Inactive)
REMARK    1  A    between atoms: N_3  and  C_14
REMARK    2  A    between atoms: C_14  and  C_15
REMARK    3  A    between atoms: C_15  and  C_16
REMARK                            x       y       z     vdW  Elec       q    Type
REMARK                         _______ _______ _______ _____ _____    ______ ____
ROOT
ATOM      1  O   UNL     1      34.899 -16.360 -20.197  0.00  0.00    -0.266 OA
ATOM      2  O   UNL     1      33.535 -14.932 -25.159  0.00  0.00    -0.266 OA
ATOM      3  N   UNL     1      35.064 -16.688 -22.476  0.00  0.00    -0.237 N 
ATOM      4  N   UNL     1      34.704 -16.308 -23.754  0.00  0.00    -0.260 N 
ATOM      5  C   UNL     1      33.676 -14.911 -21.565  0.00  0.00    +0.062 A 
ATOM      6  C   UNL     1      34.597 -16.046 -21.346  0.00  0.00    +0.275 A 
ATOM      7  C   UNL     1      33.315 -14.533 -22.857  0.00  0.00    +0.062 A 
ATOM      8  C   UNL     1      33.851 -15.263 -24.020  0.00  0.00    +0.272 A 
ATOM      9  C   UNL     1      33.161 -14.211 -20.466  0.00  0.00    +0.005 C 
ATOM     10  C   UNL     1      32.442 -13.457 -23.054  0.00  0.00    +0.005 C 
ATOM     11  C   UNL     1      32.292 -13.139 -20.666  0.00  0.00    +0.000 C 
ATOM     12  C   UNL     1      31.932 -12.762 -21.958  0.00  0.00    +0.000 C 
ATOM     13  H   UNL     1      35.076 -16.812 -24.513  0.00  0.00    +0.190 HD
ENDROOT
BRANCH   3  14
ATOM     14  C   UNL     1      35.972 -17.807 -22.314  0.00  0.00    +0.133 C 
BRANCH  14  15
ATOM     15  C   UNL     1      35.306 -19.121 -22.729  0.00  0.00    +0.053 C 
BRANCH  15  16
ATOM     16  C   UNL     1      34.751 -19.856 -21.536  0.00  0.00    -0.020 C 
ATOM     17  C   UNL     1      33.397 -19.767 -21.250  0.00  0.00    -0.004 C 
ATOM     18  C   UNL     1      35.603 -20.612 -20.745  0.00  0.00    -0.004 C 
ATOM     19  C   UNL     1      32.884 -20.446 -20.146  0.00  0.00    -0.000 C 
ATOM     20  C   UNL     1      35.089 -21.292 -19.641  0.00  0.00    -0.000 C 
ATOM     21  C   UNL     1      33.730 -21.209 -19.341  0.00  0.00    -0.000 C 
ENDBRANCH  15  16
ENDBRANCH  14  15
ENDBRANCH   3  14
TORSDOF 3
ENDMDL
MODEL 5
REMARK VINA RESULT:     -10.3      5.194      9.680
REMARK  Name = 1584
REMARK  3 active torsions:
REMARK  status: ('A' for Active; 'I' for Inactive)
REMARK    1  A    between atoms: N_3  and  C_14
REMARK    2  A    between atoms: C_14  and  C_15
REMARK    3  A    between atoms: C_15  and  C_16
REMARK                            x       y       z     vdW  Elec       q    Type
REMARK                         _______ _______ _______ _____ _____    ______ ____
ROOT
ATOM      1  O   UNL     1      34.795 -23.833 -16.289  0.00  0.00    -0.266 OA
ATOM      2  O   UNL     1      29.693 -22.405 -16.966  0.00  0.00    -0.266 OA
ATOM      3  N   UNL     1      33.167 -22.824 -17.578  0.00  0.00    -0.237 N 
ATOM      4  N   UNL     1      31.845 -22.460 -17.740  0.00  0.00    -0.260 N 
ATOM      5  C   UNL     1      32.622 -23.817 -15.426  0.00  0.00    +0.062 A 
ATOM      6  C   UNL     1      33.626 -23.496 -16.462  0.00  0.00    +0.275 A 
ATOM      7  C   UNL     1      31.289 -23.448 -15.597  0.00  0.00    +0.062 A 
ATOM      8  C   UNL     1      30.867 -22.731 -16.814  0.00  0.00    +0.272 A 
ATOM      9  C   UNL     1      33.012 -24.498 -14.266  0.00  0.00    +0.005 C 
ATOM     10  C   UNL     1      30.345 -23.756 -14.609  0.00  0.00    +0.005 C 
ATOM     11  C   UNL     1      32.070 -24.803 -13.284  0.00  0.00    +0.000 C 
ATOM     12  C   UNL     1      30.738 -24.433 -13.455  0.00  0.00    +0.000 C 
ATOM     13  H   UNL     1      31.590 -21.983 -18.563  0.00  0.00    +0.190 HD
ENDROOT
BRANCH   3  14
ATOM     14  C   UNL     1      34.115 -22.485 -18.623  0.00  0.00    +0.133 C 
BRANCH  14  15
ATOM     15  C   UNL     1      33.473 -21.575 -19.673  0.00  0.00    +0.053 C 
BRANCH  15  16
ATOM     16  C   UNL     1      34.466 -20.578 -20.215  0.00  0.00    -0.020 C 
ATOM     17  C   UNL     1      34.009 -19.483 -20.932  0.00  0.00    -0.004 C 
ATOM     18  C   UNL     1      35.819 -20.771 -19.986  0.00  0.00    -0.004 C 
ATOM     19  C   UNL     1      34.926 -18.560 -21.434  0.00  0.00    -0.000 C 
ATOM     20  C   UNL     1      36.737 -19.848 -20.488  0.00  0.00    -0.000 C 
ATOM     21  C   UNL     1      36.291 -18.743 -21.211  0.00  0.00    -0.000 C 
ENDBRANCH  15  16
ENDBRANCH  14  15
ENDBRANCH   3  14
TORSDOF 3
ENDMDL
MODEL 6
REMARK VINA RESULT:     -10.1      3.244      6.917
REMARK  Name = 1584
REMARK  3 active torsions:
REMARK  status: ('A' for Active; 'I' for Inactive)
REMARK    1  A    between atoms: N_3  and  C_14
REMARK    2  A    between atoms: C_14  and  C_15
REMARK    3  A    between atoms: C_15  and  C_16
REMARK                            x       y       z     vdW  Elec       q    Type
REMARK                         _______ _______ _______ _____ _____    ______ ____
ROOT
ATOM      1  O   UNL     1      34.586 -14.485 -21.637  0.00  0.00    -0.266 OA
ATOM      2  O   UNL     1      33.244 -15.836 -26.627  0.00  0.00    -0.266 OA
ATOM      3  N   UNL     1      33.629 -13.920 -23.660  0.00  0.00    -0.237 N 
ATOM      4  N   UNL     1      33.287 -14.283 -24.948  0.00  0.00    -0.260 N 
ATOM      5  C   UNL     1      34.581 -16.129 -23.300  0.00  0.00    +0.062 A 
ATOM      6  C   UNL     1      34.269 -14.778 -22.787  0.00  0.00    +0.275 A 
ATOM      7  C   UNL     1      34.234 -16.488 -24.601  0.00  0.00    +0.062 A 
ATOM      8  C   UNL     1      33.551 -15.522 -25.480  0.00  0.00    +0.272 A 
ATOM      9  C   UNL     1      35.230 -17.054 -22.473  0.00  0.00    +0.005 C 
ATOM     10  C   UNL     1      34.534 -17.770 -25.078  0.00  0.00    +0.005 C 
ATOM     11  C   UNL     1      35.526 -18.331 -22.949  0.00  0.00    +0.000 C 
ATOM     12  C   UNL     1      35.179 -18.689 -24.250  0.00  0.00    +0.000 C 
ATOM     13  H   UNL     1      32.831 -13.619 -25.514  0.00  0.00    +0.190 HD
ENDROOT
BRANCH   3  14
ATOM     14  C   UNL     1      33.300 -12.583 -23.204  0.00  0.00    +0.133 C 
BRANCH  14  15
ATOM     15  C   UNL     1      31.922 -12.553 -22.538  0.00  0.00    +0.053 C 
BRANCH  15  16
ATOM     16  C   UNL     1      31.848 -11.480 -21.480  0.00  0.00    -0.020 C 
ATOM     17  C   UNL     1      31.636 -11.840 -20.158  0.00  0.00    -0.004 C 
ATOM     18  C   UNL     1      31.992 -10.151 -21.848  0.00  0.00    -0.004 C 
ATOM     19  C   UNL     1      31.567 -10.848 -19.181  0.00  0.00    -0.000 C 
ATOM     20  C   UNL     1      31.923  -9.159 -20.870  0.00  0.00    -0.000 C 
ATOM     21  C   UNL     1      31.710  -9.507 -19.536  0.00  0.00    -0.000 C 
ENDBRANCH  15  16
ENDBRANCH  14  15
ENDBRANCH   3  14
TORSDOF 3
ENDMDL
MODEL 7
REMARK VINA RESULT:     -10.1      4.311      6.752
REMARK  Name = 1584
REMARK  3 active torsions:
REMARK  status: ('A' for Active; 'I' for Inactive)
REMARK    1  A    between atoms: N_3  and  C_14
REMARK    2  A    between atoms: C_14  and  C_15
REMARK    3  A    between atoms: C_15  and  C_16
REMARK                            x       y       z     vdW  Elec       q    Type
REMARK                         _______ _______ _______ _____ _____    ______ ____
ROOT
ATOM      1  O   UNL     1      36.015 -22.342 -18.201  0.00  0.00    -0.266 OA
ATOM      2  O   UNL     1      32.147 -20.011 -21.053  0.00  0.00    -0.266 OA
ATOM      3  N   UNL     1      33.776 -22.148 -18.730  0.00  0.00    -0.237 N 
ATOM      4  N   UNL     1      32.785 -21.538 -19.474  0.00  0.00    -0.260 N 
ATOM      5  C   UNL     1      35.445 -20.759 -19.826  0.00  0.00    +0.062 A 
ATOM      6  C   UNL     1      35.112 -21.817 -18.849  0.00  0.00    +0.275 A 
ATOM      7  C   UNL     1      34.440 -20.147 -20.573  0.00  0.00    +0.062 A 
ATOM      8  C   UNL     1      33.033 -20.549 -20.396  0.00  0.00    +0.272 A 
ATOM      9  C   UNL     1      36.778 -20.370 -20.001  0.00  0.00    +0.005 C 
ATOM     10  C   UNL     1      34.765 -19.146 -21.496  0.00  0.00    +0.005 C 
ATOM     11  C   UNL     1      37.100 -19.373 -20.922  0.00  0.00    +0.000 C 
ATOM     12  C   UNL     1      36.095 -18.761 -21.669  0.00  0.00    +0.000 C 
ATOM     13  H   UNL     1      31.854 -21.825 -19.336  0.00  0.00    +0.190 HD
ENDROOT
BRANCH   3  14
ATOM     14  C   UNL     1      33.397 -23.182 -17.785  0.00  0.00    +0.133 C 
BRANCH  14  15
ATOM     15  C   UNL     1      32.039 -22.877 -17.150  0.00  0.00    +0.053 C 
BRANCH  15  16
ATOM     16  C   UNL     1      31.842 -23.655 -15.873  0.00  0.00    -0.020 C 
ATOM     17  C   UNL     1      32.883 -23.743 -14.962  0.00  0.00    -0.004 C 
ATOM     18  C   UNL     1      30.622 -24.268 -15.631  0.00  0.00    -0.004 C 
ATOM     19  C   UNL     1      32.701 -24.462 -13.781  0.00  0.00    -0.000 C 
ATOM     20  C   UNL     1      30.440 -24.988 -14.450  0.00  0.00    -0.000 C 
ATOM     21  C   UNL     1      31.480 -25.085 -13.525  0.00  0.00    -0.000 C 
ENDBRANCH  15  16
ENDBRANCH  14  15
ENDBRANCH   3  14
TORSDOF 3
ENDMDL
MODEL 8
REMARK VINA RESULT:     -10.1      2.918      8.013
REMARK  Name = 1584
REMARK  3 active torsions:
REMARK  status: ('A' for Active; 'I' for Inactive)
REMARK    1  A    between atoms: N_3  and  C_14
REMARK    2  A    between atoms: C_14  and  C_15
REMARK    3  A    between atoms: C_15  and  C_16
REMARK                            x       y       z     vdW  Elec       q    Type
REMARK                         _______ _______ _______ _____ _____    ______ ____
ROOT
ATOM      1  O   UNL     1      33.461 -15.113 -25.501  0.00  0.00    -0.266 OA
ATOM      2  O   UNL     1      34.874 -15.133 -20.350  0.00  0.00    -0.266 OA
ATOM      3  N   UNL     1      33.605 -14.016 -23.474  0.00  0.00    -0.237 N 
ATOM      4  N   UNL     1      33.976 -14.034 -22.144  0.00  0.00    -0.260 N 
ATOM      5  C   UNL     1      34.393 -16.304 -23.718  0.00  0.00    +0.062 A 
ATOM      6  C   UNL     1      33.780 -15.099 -24.315  0.00  0.00    +0.275 A 
ATOM      7  C   UNL     1      34.764 -16.316 -22.374  0.00  0.00    +0.062 A 
ATOM      8  C   UNL     1      34.548 -15.125 -21.534  0.00  0.00    +0.272 A 
ATOM      9  C   UNL     1      34.602 -17.442 -24.508  0.00  0.00    +0.005 C 
ATOM     10  C   UNL     1      35.344 -17.463 -21.818  0.00  0.00    +0.005 C 
ATOM     11  C   UNL     1      35.180 -18.582 -23.952  0.00  0.00    +0.000 C 
ATOM     12  C   UNL     1      35.551 -18.593 -22.608  0.00  0.00    +0.000 C 
ATOM     13  H   UNL     1      33.821 -13.225 -21.606  0.00  0.00    +0.190 HD
ENDROOT
BRANCH   3  14
ATOM     14  C   UNL     1      33.009 -12.808 -24.013  0.00  0.00    +0.133 C 
BRANCH  14  15
ATOM     15  C   UNL     1      34.078 -11.877 -24.590  0.00  0.00    +0.053 C 
BRANCH  15  16
ATOM     16  C   UNL     1      33.942 -10.479 -24.041  0.00  0.00    -0.020 C 
ATOM     17  C   UNL     1      32.849 -10.161 -23.249  0.00  0.00    -0.004 C 
ATOM     18  C   UNL     1      34.914  -9.535 -24.335  0.00  0.00    -0.004 C 
ATOM     19  C   UNL     1      32.724  -8.868 -22.742  0.00  0.00    -0.000 C 
ATOM     20  C   UNL     1      34.789  -8.242 -23.827  0.00  0.00    -0.000 C 
ATOM     21  C   UNL     1      33.694  -7.908 -23.031  0.00  0.00    -0.000 C 
ENDBRANCH  15  16
ENDBRANCH  14  15
ENDBRANCH   3  14
TORSDOF 3
ENDMDL
MODEL 9
REMARK VINA RESULT:     -10.0      3.239      7.187
REMARK  Name = 1584
REMARK  3 active torsions:
REMARK  status: ('A' for Active; 'I' for Inactive)
REMARK    1  A    between atoms: N_3  and  C_14
REMARK    2  A    between atoms: C_14  and  C_15
REMARK    3  A    between atoms: C_15  and  C_16
REMARK                            x       y       z     vdW  Elec       q    Type
REMARK                         _______ _______ _______ _____ _____    ______ ____
ROOT
ATOM      1  O   UNL     1      33.279 -14.489 -25.240  0.00  0.00    -0.266 OA
ATOM      2  O   UNL     1      35.048 -16.110 -20.469  0.00  0.00    -0.266 OA
ATOM      3  N   UNL     1      33.680 -14.041 -23.011  0.00  0.00    -0.237 N 
ATOM      4  N   UNL     1      34.141 -14.473 -21.783  0.00  0.00    -0.260 N 
ATOM      5  C   UNL     1      34.208 -16.215 -23.965  0.00  0.00    +0.062 A 
ATOM      6  C   UNL     1      33.682 -14.845 -24.135  0.00  0.00    +0.275 A 
ATOM      7  C   UNL     1      34.671 -16.645 -22.723  0.00  0.00    +0.062 A 
ATOM      8  C   UNL     1      34.640 -15.734 -21.564  0.00  0.00    +0.272 A 
ATOM      9  C   UNL     1      34.242 -17.088 -25.060  0.00  0.00    +0.005 C 
ATOM     10  C   UNL     1      35.169 -17.945 -22.572  0.00  0.00    +0.005 C 
ATOM     11  C   UNL     1      34.738 -18.382 -24.907  0.00  0.00    +0.000 C 
ATOM     12  C   UNL     1      35.201 -18.811 -23.665  0.00  0.00    +0.000 C 
ATOM     13  H   UNL     1      34.109 -13.845 -21.026  0.00  0.00    +0.190 HD
ENDROOT
BRANCH   3  14
ATOM     14  C   UNL     1      33.174 -12.686 -23.127  0.00  0.00    +0.133 C 
BRANCH  14  15
ATOM     15  C   UNL     1      31.809 -12.549 -22.448  0.00  0.00    +0.053 C 
BRANCH  15  16
ATOM     16  C   UNL     1      31.804 -11.420 -21.448  0.00  0.00    -0.020 C 
ATOM     17  C   UNL     1      31.618 -11.702 -20.104  0.00  0.00    -0.004 C 
ATOM     18  C   UNL     1      31.987 -10.119 -21.891  0.00  0.00    -0.004 C 
ATOM     19  C   UNL     1      31.613 -10.658 -19.179  0.00  0.00    -0.000 C 
ATOM     20  C   UNL     1      31.981  -9.074 -20.966  0.00  0.00    -0.000 C 
ATOM     21  C   UNL     1      31.795  -9.344 -19.610  0.00  0.00    -0.000 C 
ENDBRANCH  15  16
ENDBRANCH  14  15
ENDBRANCH   3  14
TORSDOF 3
ENDMDL
