MODEL 1
REMARK VINA RESULT:      -9.5      0.000      0.000
REMARK  Name = 941651
REMARK  5 active torsions:
REMARK  status: ('A' for Active; 'I' for Inactive)
REMARK    1  A    between atoms: C_2  and  C_22
REMARK    2  A    between atoms: C_9  and  S_16
REMARK    3  A    between atoms: S_16  and  N_19
REMARK    4  A    between atoms: C_22  and  C_23
REMARK    5  A    between atoms: C_23  and  N_24
REMARK                            x       y       z     vdW  Elec       q    Type
REMARK                         _______ _______ _______ _____ _____    ______ ____
ROOT
ATOM      1  S   UNL     1      31.386 -22.553 -13.438  0.00  0.00    -0.087 S 
ATOM      2  C   UNL     1      32.801 -22.786 -17.477  0.00  0.00    -0.028 C 
ATOM      3  C   UNL     1      32.267 -23.249 -16.331  0.00  0.00    -0.003 C 
ATOM      4  C   UNL     1      33.173 -23.734 -15.254  0.00  0.00    +0.007 C 
ATOM      5  C   UNL     1      30.799 -23.140 -16.120  0.00  0.00    +0.006 C 
ATOM      6  C   UNL     1      32.848 -23.474 -13.910  0.00  0.00    +0.030 C 
ATOM      7  C   UNL     1      34.326 -24.487 -15.537  0.00  0.00    +0.020 C 
ATOM      8  C   UNL     1      30.306 -22.839 -14.837  0.00  0.00    +0.029 C 
ATOM      9  C   UNL     1      35.155 -24.941 -14.510  0.00  0.00    +0.122 C 
ATOM     10  C   UNL     1      33.691 -23.929 -12.884  0.00  0.00    +0.008 C 
ATOM     11  C   UNL     1      29.880 -23.376 -17.159  0.00  0.00    +0.000 C 
ATOM     12  C   UNL     1      34.840 -24.658 -13.186  0.00  0.00    +0.020 C 
ATOM     13  C   UNL     1      28.923 -22.739 -14.624  0.00  0.00    +0.006 C 
ATOM     14  C   UNL     1      28.507 -23.281 -16.935  0.00  0.00    +0.000 C 
ATOM     15  C   UNL     1      28.028 -22.958 -15.670  0.00  0.00    +0.001 C 
ENDROOT
BRANCH   9  16
ATOM     16  S   UNL     1      36.590 -25.862 -14.889  0.00  0.00    +0.063 S 
ATOM     17  O   UNL     1      37.032 -26.535 -13.673  0.00  0.00    -0.153 OA
ATOM     18  O   UNL     1      36.313 -26.671 -16.070  0.00  0.00    -0.153 OA
BRANCH  16  19
ATOM     19  N   UNL     1      37.748 -24.645 -15.305  0.00  0.00    -0.153 NA
ATOM     20  C   UNL     1      37.344 -23.226 -15.137  0.00  0.00    +0.115 C 
ATOM     21  C   UNL     1      39.158 -24.874 -14.899  0.00  0.00    +0.115 C 
ENDBRANCH  16  19
ENDBRANCH   9  16
BRANCH   2  22
ATOM     22  C   UNL     1      34.261 -22.841 -17.795  0.00  0.00    +0.003 C 
BRANCH  22  23
ATOM     23  C   UNL     1      34.503 -22.663 -19.293  0.00  0.00    -0.073 C 
BRANCH  23  24
ATOM     24  N   UNL     1      34.710 -21.252 -19.609  0.00  0.00    +0.384 N 
ATOM     25  N   UNL     1      35.151 -19.060 -21.443  0.00  0.00    +0.383 N 
ATOM     26  C   UNL     1      36.013 -21.048 -20.256  0.00  0.00    -0.101 C 
ATOM     27  C   UNL     1      33.630 -20.745 -20.463  0.00  0.00    -0.101 C 
ATOM     28  C   UNL     1      36.232 -19.569 -20.590  0.00  0.00    -0.101 C 
ATOM     29  C   UNL     1      33.848 -19.264 -20.796  0.00  0.00    -0.101 C 
ATOM     30  C   UNL     1      35.358 -17.647 -21.756  0.00  0.00    -0.101 C 
ATOM     31  H   UNL     1      34.701 -20.729 -18.734  0.00  0.00    -0.080 HD
ATOM     32  H   UNL     1      35.160 -19.582 -22.319  0.00  0.00    -0.080 HD
ENDBRANCH  23  24
ENDBRANCH  22  23
ENDBRANCH   2  22
TORSDOF 5
ENDMDL
MODEL 2
REMARK VINA RESULT:      -8.4      6.838     11.645
REMARK  Name = 941651
REMARK  5 active torsions:
REMARK  status: ('A' for Active; 'I' for Inactive)
REMARK    1  A    between atoms: C_2  and  C_22
REMARK    2  A    between atoms: C_9  and  S_16
REMARK    3  A    between atoms: S_16  and  N_19
REMARK    4  A    between atoms: C_22  and  C_23
REMARK    5  A    between atoms: C_23  and  N_24
REMARK                            x       y       z     vdW  Elec       q    Type
REMARK                         _______ _______ _______ _____ _____    ______ ____
ROOT
ATOM      1  S   UNL     1      33.139 -15.952 -26.423  0.00  0.00    -0.087 S 
ATOM      2  C   UNL     1      32.939 -13.945 -22.642  0.00  0.00    -0.028 C 
ATOM      3  C   UNL     1      33.534 -14.432 -23.748  0.00  0.00    -0.003 C 
ATOM      4  C   UNL     1      34.004 -15.844 -23.754  0.00  0.00    +0.007 C 
ATOM      5  C   UNL     1      33.585 -13.590 -24.973  0.00  0.00    +0.006 C 
ATOM      6  C   UNL     1      33.876 -16.608 -24.929  0.00  0.00    +0.030 C 
ATOM      7  C   UNL     1      34.618 -16.428 -22.632  0.00  0.00    +0.020 C 
ATOM      8  C   UNL     1      33.427 -14.195 -26.234  0.00  0.00    +0.029 C 
ATOM      9  C   UNL     1      35.063 -17.750 -22.666  0.00  0.00    +0.122 C 
ATOM     10  C   UNL     1      34.319 -17.940 -24.951  0.00  0.00    +0.008 C 
ATOM     11  C   UNL     1      33.834 -12.207 -24.913  0.00  0.00    +0.000 C 
ATOM     12  C   UNL     1      34.908 -18.507 -23.822  0.00  0.00    +0.020 C 
ATOM     13  C   UNL     1      33.479 -13.413 -27.397  0.00  0.00    +0.006 C 
ATOM     14  C   UNL     1      33.890 -11.439 -26.077  0.00  0.00    +0.000 C 
ATOM     15  C   UNL     1      33.708 -12.041 -27.317  0.00  0.00    +0.001 C 
ENDROOT
BRANCH   9  16
ATOM     16  S   UNL     1      35.809 -18.456 -21.254  0.00  0.00    +0.063 S 
ATOM     17  O   UNL     1      37.156 -18.882 -21.616  0.00  0.00    -0.153 OA
ATOM     18  O   UNL     1      35.649 -17.527 -20.141  0.00  0.00    -0.153 OA
BRANCH  16  19
ATOM     19  N   UNL     1      34.844 -19.861 -20.951  0.00  0.00    -0.153 NA
ATOM     20  C   UNL     1      35.383 -20.874 -20.009  0.00  0.00    +0.115 C 
ATOM     21  C   UNL     1      33.382 -19.664 -20.779  0.00  0.00    +0.115 C 
ENDBRANCH  16  19
ENDBRANCH   9  16
BRANCH   2  22
ATOM     22  C   UNL     1      32.829 -14.702 -21.357  0.00  0.00    +0.003 C 
BRANCH  22  23
ATOM     23  C   UNL     1      32.052 -13.900 -20.314  0.00  0.00    -0.073 C 
BRANCH  23  24
ATOM     24  N   UNL     1      32.317 -12.472 -20.471  0.00  0.00    +0.384 N 
ATOM     25  N   UNL     1      31.496  -9.707 -20.684  0.00  0.00    +0.383 N 
ATOM     26  C   UNL     1      31.684 -11.956 -21.692  0.00  0.00    -0.101 C 
ATOM     27  C   UNL     1      31.852 -11.723 -19.298  0.00  0.00    -0.101 C 
ATOM     28  C   UNL     1      31.959 -10.458 -21.858  0.00  0.00    -0.101 C 
ATOM     29  C   UNL     1      32.128 -10.224 -19.463  0.00  0.00    -0.101 C 
ATOM     30  C   UNL     1      31.763  -8.279 -20.842  0.00  0.00    -0.101 C 
ATOM     31  H   UNL     1      33.325 -12.346 -20.554  0.00  0.00    -0.080 HD
ATOM     32  H   UNL     1      30.487  -9.832 -20.600  0.00  0.00    -0.080 HD
ENDBRANCH  23  24
ENDBRANCH  22  23
ENDBRANCH   2  22
TORSDOF 5
ENDMDL
MODEL 3
REMARK VINA RESULT:      -8.3      3.097      7.244
REMARK  Name = 941651
REMARK  5 active torsions:
REMARK  status: ('A' for Active; 'I' for Inactive)
REMARK    1  A    between atoms: C_2  and  C_22
REMARK    2  A    between atoms: C_9  and  S_16
REMARK    3  A    between atoms: S_16  and  N_19
REMARK    4  A    between atoms: C_22  and  C_23
REMARK    5  A    between atoms: C_23  and  N_24
REMARK                            x       y       z     vdW  Elec       q    Type
REMARK                         _______ _______ _______ _____ _____    ______ ____
ROOT
ATOM      1  S   UNL     1      37.987 -22.460 -14.410  0.00  0.00    -0.087 S 
ATOM      2  C   UNL     1      34.095 -24.180 -13.909  0.00  0.00    -0.028 C 
ATOM      3  C   UNL     1      35.341 -24.079 -14.409  0.00  0.00    -0.003 C 
ATOM      4  C   UNL     1      35.571 -23.234 -15.613  0.00  0.00    +0.007 C 
ATOM      5  C   UNL     1      36.470 -24.703 -13.670  0.00  0.00    +0.006 C 
ATOM      6  C   UNL     1      36.751 -22.473 -15.705  0.00  0.00    +0.030 C 
ATOM      7  C   UNL     1      34.664 -23.208 -16.686  0.00  0.00    +0.020 C 
ATOM      8  C   UNL     1      37.714 -24.046 -13.626  0.00  0.00    +0.029 C 
ATOM      9  C   UNL     1      34.907 -22.418 -17.810  0.00  0.00    +0.122 C 
ATOM     10  C   UNL     1      36.983 -21.676 -16.837  0.00  0.00    +0.008 C 
ATOM     11  C   UNL     1      36.347 -25.959 -13.049  0.00  0.00    +0.000 C 
ATOM     12  C   UNL     1      36.063 -21.648 -17.883  0.00  0.00    +0.020 C 
ATOM     13  C   UNL     1      38.789 -24.627 -12.937  0.00  0.00    +0.006 C 
ATOM     14  C   UNL     1      37.424 -26.531 -12.372  0.00  0.00    +0.000 C 
ATOM     15  C   UNL     1      38.643 -25.864 -12.312  0.00  0.00    +0.001 C 
ENDROOT
BRANCH   9  16
ATOM     16  S   UNL     1      33.757 -22.392 -19.125  0.00  0.00    +0.063 S 
ATOM     17  O   UNL     1      34.101 -23.465 -20.051  0.00  0.00    -0.153 OA
ATOM     18  O   UNL     1      32.415 -22.368 -18.555  0.00  0.00    -0.153 OA
BRANCH  16  19
ATOM     19  N   UNL     1      34.063 -20.872 -19.894  0.00  0.00    -0.153 NA
ATOM     20  C   UNL     1      35.261 -20.773 -20.767  0.00  0.00    +0.115 C 
ATOM     21  C   UNL     1      32.900 -20.144 -20.462  0.00  0.00    +0.115 C 
ENDBRANCH  16  19
ENDBRANCH   9  16
BRANCH   2  22
ATOM     22  C   UNL     1      32.886 -23.592 -14.565  0.00  0.00    +0.003 C 
BRANCH  22  23
ATOM     23  C   UNL     1      31.718 -24.576 -14.546  0.00  0.00    -0.073 C 
BRANCH  23  24
ATOM     24  N   UNL     1      30.691 -24.163 -15.499  0.00  0.00    +0.384 N 
ATOM     25  N   UNL     1      28.231 -22.821 -16.215  0.00  0.00    +0.383 N 
ATOM     26  C   UNL     1      29.383 -24.719 -15.130  0.00  0.00    -0.101 C 
ATOM     27  C   UNL     1      30.618 -22.699 -15.584  0.00  0.00    -0.101 C 
ATOM     28  C   UNL     1      28.303 -24.284 -16.127  0.00  0.00    -0.101 C 
ATOM     29  C   UNL     1      29.540 -22.264 -16.583  0.00  0.00    -0.101 C 
ATOM     30  C   UNL     1      27.204 -22.408 -17.170  0.00  0.00    -0.101 C 
ATOM     31  H   UNL     1      30.947 -24.526 -16.416  0.00  0.00    -0.080 HD
ATOM     32  H   UNL     1      27.974 -22.456 -15.297  0.00  0.00    -0.080 HD
ENDBRANCH  23  24
ENDBRANCH  22  23
ENDBRANCH   2  22
TORSDOF 5
ENDMDL
MODEL 4
REMARK VINA RESULT:      -8.3      8.187     13.249
REMARK  Name = 941651
REMARK  5 active torsions:
REMARK  status: ('A' for Active; 'I' for Inactive)
REMARK    1  A    between atoms: C_2  and  C_22
REMARK    2  A    between atoms: C_9  and  S_16
REMARK    3  A    between atoms: S_16  and  N_19
REMARK    4  A    between atoms: C_22  and  C_23
REMARK    5  A    between atoms: C_23  and  N_24
REMARK                            x       y       z     vdW  Elec       q    Type
REMARK                         _______ _______ _______ _____ _____    ______ ____
ROOT
ATOM      1  S   UNL     1      33.856 -13.894 -26.633  0.00  0.00    -0.087 S 
ATOM      2  C   UNL     1      32.859 -11.841 -23.006  0.00  0.00    -0.028 C 
ATOM      3  C   UNL     1      33.663 -12.475 -23.880  0.00  0.00    -0.003 C 
ATOM      4  C   UNL     1      33.762 -13.959 -23.827  0.00  0.00    +0.007 C 
ATOM      5  C   UNL     1      34.323 -11.690 -24.958  0.00  0.00    +0.006 C 
ATOM      6  C   UNL     1      33.865 -14.687 -25.027  0.00  0.00    +0.030 C 
ATOM      7  C   UNL     1      33.804 -14.657 -22.608  0.00  0.00    +0.020 C 
ATOM      8  C   UNL     1      34.465 -12.258 -26.237  0.00  0.00    +0.029 C 
ATOM      9  C   UNL     1      33.910 -16.048 -22.582  0.00  0.00    +0.122 C 
ATOM     10  C   UNL     1      33.965 -16.086 -24.991  0.00  0.00    +0.008 C 
ATOM     11  C   UNL     1      34.853 -10.409 -24.724  0.00  0.00    +0.000 C 
ATOM     12  C   UNL     1      33.985 -16.762 -23.773  0.00  0.00    +0.020 C 
ATOM     13  C   UNL     1      35.091 -11.530 -27.261  0.00  0.00    +0.006 C 
ATOM     14  C   UNL     1      35.479  -9.695 -25.746  0.00  0.00    +0.000 C 
ATOM     15  C   UNL     1      35.594 -10.254 -27.015  0.00  0.00    +0.001 C 
ENDROOT
BRANCH   9  16
ATOM     16  S   UNL     1      33.945 -16.893 -21.054  0.00  0.00    +0.063 S 
ATOM     17  O   UNL     1      34.926 -16.241 -20.195  0.00  0.00    -0.153 OA
ATOM     18  O   UNL     1      32.574 -17.020 -20.572  0.00  0.00    -0.153 OA
BRANCH  16  19
ATOM     19  N   UNL     1      34.533 -18.465 -21.479  0.00  0.00    -0.153 NA
ATOM     20  C   UNL     1      35.984 -18.726 -21.299  0.00  0.00    +0.115 C 
ATOM     21  C   UNL     1      33.706 -19.635 -21.091  0.00  0.00    +0.115 C 
ENDBRANCH  16  19
ENDBRANCH   9  16
BRANCH   2  22
ATOM     22  C   UNL     1      32.144 -12.528 -21.886  0.00  0.00    +0.003 C 
BRANCH  22  23
ATOM     23  C   UNL     1      31.390 -11.522 -21.018  0.00  0.00    -0.073 C 
BRANCH  23  24
ATOM     24  N   UNL     1      31.892 -10.170 -21.255  0.00  0.00    +0.384 N 
ATOM     25  N   UNL     1      31.624  -7.291 -21.286  0.00  0.00    +0.383 N 
ATOM     26  C   UNL     1      31.090  -9.490 -22.280  0.00  0.00    -0.101 C 
ATOM     27  C   UNL     1      31.900  -9.391 -20.012  0.00  0.00    -0.101 C 
ATOM     28  C   UNL     1      31.613  -8.071 -22.530  0.00  0.00    -0.101 C 
ATOM     29  C   UNL     1      32.425  -7.973 -20.260  0.00  0.00    -0.101 C 
ATOM     30  C   UNL     1      32.128  -5.940 -21.525  0.00  0.00    -0.101 C 
ATOM     31  H   UNL     1      32.850 -10.246 -21.595  0.00  0.00    -0.080 HD
ATOM     32  H   UNL     1      30.665  -7.215 -20.946  0.00  0.00    -0.080 HD
ENDBRANCH  23  24
ENDBRANCH  22  23
ENDBRANCH   2  22
TORSDOF 5
ENDMDL
MODEL 5
REMARK VINA RESULT:      -8.1      1.548      1.837
REMARK  Name = 941651
REMARK  5 active torsions:
REMARK  status: ('A' for Active; 'I' for Inactive)
REMARK    1  A    between atoms: C_2  and  C_22
REMARK    2  A    between atoms: C_9  and  S_16
REMARK    3  A    between atoms: S_16  and  N_19
REMARK    4  A    between atoms: C_22  and  C_23
REMARK    5  A    between atoms: C_23  and  N_24
REMARK                            x       y       z     vdW  Elec       q    Type
REMARK                         _______ _______ _______ _____ _____    ______ ____
ROOT
ATOM      1  S   UNL     1      31.943 -23.226 -12.860  0.00  0.00    -0.087 S 
ATOM      2  C   UNL     1      33.156 -22.995 -16.963  0.00  0.00    -0.028 C 
ATOM      3  C   UNL     1      32.899 -23.599 -15.788  0.00  0.00    -0.003 C 
ATOM      4  C   UNL     1      33.969 -23.657 -14.755  0.00  0.00    +0.007 C 
ATOM      5  C   UNL     1      31.518 -24.072 -15.503  0.00  0.00    +0.006 C 
ATOM      6  C   UNL     1      33.627 -23.509 -13.398  0.00  0.00    +0.030 C 
ATOM      7  C   UNL     1      35.312 -23.902 -15.090  0.00  0.00    +0.020 C 
ATOM      8  C   UNL     1      31.003 -23.954 -14.199  0.00  0.00    +0.029 C 
ATOM      9  C   UNL     1      36.297 -23.964 -14.104  0.00  0.00    +0.122 C 
ATOM     10  C   UNL     1      34.625 -23.566 -12.413  0.00  0.00    +0.008 C 
ATOM     11  C   UNL     1      30.723 -24.680 -16.491  0.00  0.00    +0.000 C 
ATOM     12  C   UNL     1      35.955 -23.790 -12.767  0.00  0.00    +0.020 C 
ATOM     13  C   UNL     1      29.703 -24.401 -13.916  0.00  0.00    +0.006 C 
ATOM     14  C   UNL     1      29.434 -25.128 -16.198  0.00  0.00    +0.000 C 
ATOM     15  C   UNL     1      28.923 -24.984 -14.912  0.00  0.00    +0.001 C 
ENDROOT
BRANCH   9  16
ATOM     16  S   UNL     1      37.961 -24.255 -14.547  0.00  0.00    +0.063 S 
ATOM     17  O   UNL     1      38.261 -23.461 -15.733  0.00  0.00    -0.153 OA
ATOM     18  O   UNL     1      38.788 -24.072 -13.360  0.00  0.00    -0.153 OA
BRANCH  16  19
ATOM     19  N   UNL     1      37.972 -25.930 -14.981  0.00  0.00    -0.153 NA
ATOM     20  C   UNL     1      39.284 -26.627 -14.996  0.00  0.00    +0.115 C 
ATOM     21  C   UNL     1      36.893 -26.789 -14.430  0.00  0.00    +0.115 C 
ENDBRANCH  16  19
ENDBRANCH   9  16
BRANCH   2  22
ATOM     22  C   UNL     1      34.503 -22.480 -17.356  0.00  0.00    +0.003 C 
BRANCH  22  23
ATOM     23  C   UNL     1      34.689 -22.527 -18.872  0.00  0.00    -0.073 C 
BRANCH  23  24
ATOM     24  N   UNL     1      34.665 -21.176 -19.427  0.00  0.00    +0.384 N 
ATOM     25  N   UNL     1      34.589 -19.294 -21.622  0.00  0.00    +0.383 N 
ATOM     26  C   UNL     1      35.844 -20.938 -20.269  0.00  0.00    -0.101 C 
ATOM     27  C   UNL     1      33.435 -20.950 -20.195  0.00  0.00    -0.101 C 
ATOM     28  C   UNL     1      35.820 -19.522 -20.855  0.00  0.00    -0.101 C 
ATOM     29  C   UNL     1      33.409 -19.533 -20.780  0.00  0.00    -0.101 C 
ATOM     30  C   UNL     1      34.566 -17.941 -22.175  0.00  0.00    -0.101 C 
ATOM     31  H   UNL     1      34.686 -20.516 -18.651  0.00  0.00    -0.080 HD
ATOM     32  H   UNL     1      34.568 -19.954 -22.399  0.00  0.00    -0.080 HD
ENDBRANCH  23  24
ENDBRANCH  22  23
ENDBRANCH   2  22
TORSDOF 5
ENDMDL
MODEL 6
REMARK VINA RESULT:      -7.0      9.889     15.197
REMARK  Name = 941651
REMARK  5 active torsions:
REMARK  status: ('A' for Active; 'I' for Inactive)
REMARK    1  A    between atoms: C_2  and  C_22
REMARK    2  A    between atoms: C_9  and  S_16
REMARK    3  A    between atoms: S_16  and  N_19
REMARK    4  A    between atoms: C_22  and  C_23
REMARK    5  A    between atoms: C_23  and  N_24
REMARK                            x       y       z     vdW  Elec       q    Type
REMARK                         _______ _______ _______ _____ _____    ______ ____
ROOT
ATOM      1  S   UNL     1      35.505 -10.447 -25.442  0.00  0.00    -0.087 S 
ATOM      2  C   UNL     1      32.904 -12.541 -22.756  0.00  0.00    -0.028 C 
ATOM      3  C   UNL     1      33.218 -11.722 -23.777  0.00  0.00    -0.003 C 
ATOM      4  C   UNL     1      33.487 -10.286 -23.496  0.00  0.00    +0.007 C 
ATOM      5  C   UNL     1      33.417 -12.299 -25.134  0.00  0.00    +0.006 C 
ATOM      6  C   UNL     1      34.500  -9.620 -24.212  0.00  0.00    +0.030 C 
ATOM      7  C   UNL     1      32.727  -9.556 -22.565  0.00  0.00    +0.020 C 
ATOM      8  C   UNL     1      34.425 -11.776 -25.965  0.00  0.00    +0.029 C 
ATOM      9  C   UNL     1      32.990  -8.207 -22.327  0.00  0.00    +0.122 C 
ATOM     10  C   UNL     1      34.761  -8.265 -23.960  0.00  0.00    +0.008 C 
ATOM     11  C   UNL     1      32.595 -13.325 -25.632  0.00  0.00    +0.000 C 
ATOM     12  C   UNL     1      34.009  -7.563 -23.019  0.00  0.00    +0.020 C 
ATOM     13  C   UNL     1      34.619 -12.307 -27.249  0.00  0.00    +0.006 C 
ATOM     14  C   UNL     1      32.792 -13.842 -26.913  0.00  0.00    +0.000 C 
ATOM     15  C   UNL     1      33.806 -13.337 -27.719  0.00  0.00    +0.001 C 
ENDROOT
BRANCH   9  16
ATOM     16  S   UNL     1      32.040  -7.326 -21.155  0.00  0.00    +0.063 S 
ATOM     17  O   UNL     1      31.431  -8.290 -20.245  0.00  0.00    -0.153 OA
ATOM     18  O   UNL     1      32.876  -6.271 -20.592  0.00  0.00    -0.153 OA
BRANCH  16  19
ATOM     19  N   UNL     1      30.795  -6.599 -22.113  0.00  0.00    -0.153 NA
ATOM     20  C   UNL     1      30.438  -5.188 -21.819  0.00  0.00    +0.115 C 
ATOM     21  C   UNL     1      30.800  -6.879 -23.571  0.00  0.00    +0.115 C 
ENDBRANCH  16  19
ENDBRANCH   9  16
BRANCH   2  22
ATOM     22  C   UNL     1      32.682 -12.073 -21.353  0.00  0.00    +0.003 C 
BRANCH  22  23
ATOM     23  C   UNL     1      32.495 -13.256 -20.404  0.00  0.00    -0.073 C 
BRANCH  23  24
ATOM     24  N   UNL     1      32.982 -14.486 -21.024  0.00  0.00    +0.384 N 
ATOM     25  N   UNL     1      34.131 -17.138 -20.931  0.00  0.00    +0.383 N 
ATOM     26  C   UNL     1      34.406 -14.690 -20.728  0.00  0.00    -0.101 C 
ATOM     27  C   UNL     1      32.195 -15.642 -20.576  0.00  0.00    -0.101 C 
ATOM     28  C   UNL     1      34.918 -15.981 -21.376  0.00  0.00    -0.101 C 
ATOM     29  C   UNL     1      32.706 -16.933 -21.225  0.00  0.00    -0.101 C 
ATOM     30  C   UNL     1      34.617 -18.368 -21.553  0.00  0.00    -0.101 C 
ATOM     31  H   UNL     1      32.873 -14.394 -22.033  0.00  0.00    -0.080 HD
ATOM     32  H   UNL     1      34.240 -17.231 -19.920  0.00  0.00    -0.080 HD
ENDBRANCH  23  24
ENDBRANCH  22  23
ENDBRANCH   2  22
TORSDOF 5
ENDMDL
MODEL 7
REMARK VINA RESULT:      -6.8     10.313     14.191
REMARK  Name = 941651
REMARK  5 active torsions:
REMARK  status: ('A' for Active; 'I' for Inactive)
REMARK    1  A    between atoms: C_2  and  C_22
REMARK    2  A    between atoms: C_9  and  S_16
REMARK    3  A    between atoms: S_16  and  N_19
REMARK    4  A    between atoms: C_22  and  C_23
REMARK    5  A    between atoms: C_23  and  N_24
REMARK                            x       y       z     vdW  Elec       q    Type
REMARK                         _______ _______ _______ _____ _____    ______ ____
ROOT
ATOM      1  S   UNL     1      32.035  -7.998 -20.014  0.00  0.00    -0.087 S 
ATOM      2  C   UNL     1      33.643  -9.139 -23.819  0.00  0.00    -0.028 C 
ATOM      3  C   UNL     1      32.685  -8.971 -22.888  0.00  0.00    -0.003 C 
ATOM      4  C   UNL     1      32.452 -10.048 -21.888  0.00  0.00    +0.007 C 
ATOM      5  C   UNL     1      31.981  -7.663 -22.801  0.00  0.00    +0.006 C 
ATOM      6  C   UNL     1      32.139  -9.700 -20.560  0.00  0.00    +0.030 C 
ATOM      7  C   UNL     1      32.488 -11.409 -22.239  0.00  0.00    +0.020 C 
ATOM      8  C   UNL     1      31.635  -7.148 -21.538  0.00  0.00    +0.029 C 
ATOM      9  C   UNL     1      32.253 -12.401 -21.287  0.00  0.00    +0.122 C 
ATOM     10  C   UNL     1      31.912 -10.706 -19.608  0.00  0.00    +0.008 C 
ATOM     11  C   UNL     1      31.607  -6.945 -23.951  0.00  0.00    +0.000 C 
ATOM     12  C   UNL     1      31.971 -12.050 -19.971  0.00  0.00    +0.020 C 
ATOM     13  C   UNL     1      30.966  -5.919 -21.443  0.00  0.00    +0.006 C 
ATOM     14  C   UNL     1      30.935  -5.726 -23.846  0.00  0.00    +0.000 C 
ATOM     15  C   UNL     1      30.619  -5.211 -22.593  0.00  0.00    +0.001 C 
ENDROOT
BRANCH   9  16
ATOM     16  S   UNL     1      32.319 -14.085 -21.746  0.00  0.00    +0.063 S 
ATOM     17  O   UNL     1      31.600 -14.859 -20.740  0.00  0.00    -0.153 OA
ATOM     18  O   UNL     1      31.899 -14.194 -23.139  0.00  0.00    -0.153 OA
BRANCH  16  19
ATOM     19  N   UNL     1      34.004 -14.463 -21.641  0.00  0.00    -0.153 NA
ATOM     20  C   UNL     1      34.606 -14.546 -20.286  0.00  0.00    +0.115 C 
ATOM     21  C   UNL     1      34.528 -15.517 -22.547  0.00  0.00    +0.115 C 
ENDBRANCH  16  19
ENDBRANCH   9  16
BRANCH   2  22
ATOM     22  C   UNL     1      34.416 -10.407 -23.997  0.00  0.00    +0.003 C 
BRANCH  22  23
ATOM     23  C   UNL     1      34.838 -10.593 -25.453  0.00  0.00    -0.073 C 
BRANCH  23  24
ATOM     24  N   UNL     1      34.565 -11.960 -25.890  0.00  0.00    +0.384 N 
ATOM     25  N   UNL     1      32.835 -14.246 -26.272  0.00  0.00    +0.383 N 
ATOM     26  C   UNL     1      34.141 -12.793 -24.757  0.00  0.00    -0.101 C 
ATOM     27  C   UNL     1      33.547 -11.977 -26.947  0.00  0.00    -0.101 C 
ATOM     28  C   UNL     1      33.851 -14.228 -25.213  0.00  0.00    -0.101 C 
ATOM     29  C   UNL     1      33.259 -13.411 -27.404  0.00  0.00    -0.101 C 
ATOM     30  C   UNL     1      32.564 -15.614 -26.709  0.00  0.00    -0.101 C 
ATOM     31  H   UNL     1      35.429 -12.348 -26.268  0.00  0.00    -0.080 HD
ATOM     32  H   UNL     1      31.970 -13.858 -25.894  0.00  0.00    -0.080 HD
ENDBRANCH  23  24
ENDBRANCH  22  23
ENDBRANCH   2  22
TORSDOF 5
ENDMDL
MODEL 8
REMARK VINA RESULT:      -6.6     14.719     18.903
REMARK  Name = 941651
REMARK  5 active torsions:
REMARK  status: ('A' for Active; 'I' for Inactive)
REMARK    1  A    between atoms: C_2  and  C_22
REMARK    2  A    between atoms: C_9  and  S_16
REMARK    3  A    between atoms: S_16  and  N_19
REMARK    4  A    between atoms: C_22  and  C_23
REMARK    5  A    between atoms: C_23  and  N_24
REMARK                            x       y       z     vdW  Elec       q    Type
REMARK                         _______ _______ _______ _____ _____    ______ ____
ROOT
ATOM      1  S   UNL     1      31.112  -5.463 -24.140  0.00  0.00    -0.087 S 
ATOM      2  C   UNL     1      34.271  -8.356 -24.272  0.00  0.00    -0.028 C 
ATOM      3  C   UNL     1      33.709  -7.158 -24.026  0.00  0.00    -0.003 C 
ATOM      4  C   UNL     1      33.655  -6.146 -25.116  0.00  0.00    +0.007 C 
ATOM      5  C   UNL     1      33.040  -6.926 -22.717  0.00  0.00    +0.006 C 
ATOM      6  C   UNL     1      32.520  -5.323 -25.239  0.00  0.00    +0.030 C 
ATOM      7  C   UNL     1      34.728  -5.954 -26.005  0.00  0.00    +0.020 C 
ATOM      8  C   UNL     1      31.862  -6.158 -22.670  0.00  0.00    +0.029 C 
ATOM      9  C   UNL     1      34.660  -4.991 -27.012  0.00  0.00    +0.122 C 
ATOM     10  C   UNL     1      32.458  -4.362 -26.260  0.00  0.00    +0.008 C 
ATOM     11  C   UNL     1      33.577  -7.414 -21.513  0.00  0.00    +0.000 C 
ATOM     12  C   UNL     1      33.524  -4.200 -27.143  0.00  0.00    +0.020 C 
ATOM     13  C   UNL     1      31.225  -5.928 -21.442  0.00  0.00    +0.006 C 
ATOM     14  C   UNL     1      32.940  -7.174 -20.295  0.00  0.00    +0.000 C 
ATOM     15  C   UNL     1      31.762  -6.436 -20.261  0.00  0.00    +0.001 C 
ENDROOT
BRANCH   9  16
ATOM     16  S   UNL     1      36.000  -4.782 -28.112  0.00  0.00    +0.063 S 
ATOM     17  O   UNL     1      36.814  -5.992 -28.074  0.00  0.00    -0.153 OA
ATOM     18  O   UNL     1      35.470  -4.341 -29.397  0.00  0.00    -0.153 OA
BRANCH  16  19
ATOM     19  N   UNL     1      36.899  -3.483 -27.405  0.00  0.00    -0.153 NA
ATOM     20  C   UNL     1      38.380  -3.601 -27.389  0.00  0.00    +0.115 C 
ATOM     21  C   UNL     1      36.456  -2.098 -27.706  0.00  0.00    +0.115 C 
ENDBRANCH  16  19
ENDBRANCH   9  16
BRANCH   2  22
ATOM     22  C   UNL     1      34.967  -8.701 -25.550  0.00  0.00    +0.003 C 
BRANCH  22  23
ATOM     23  C   UNL     1      35.535 -10.118 -25.500  0.00  0.00    -0.073 C 
BRANCH  23  24
ATOM     24  N   UNL     1      34.481 -11.096 -25.755  0.00  0.00    +0.384 N 
ATOM     25  N   UNL     1      33.496 -13.795 -26.092  0.00  0.00    +0.383 N 
ATOM     26  C   UNL     1      34.768 -11.867 -26.972  0.00  0.00    -0.101 C 
ATOM     27  C   UNL     1      34.316 -11.996 -24.607  0.00  0.00    -0.101 C 
ATOM     28  C   UNL     1      33.664 -12.895 -27.240  0.00  0.00    -0.101 C 
ATOM     29  C   UNL     1      33.210 -13.024 -24.874  0.00  0.00    -0.101 C 
ATOM     30  C   UNL     1      32.440 -14.772 -26.347  0.00  0.00    -0.101 C 
ATOM     31  H   UNL     1      33.608 -10.589 -25.894  0.00  0.00    -0.080 HD
ATOM     32  H   UNL     1      34.370 -14.303 -25.952  0.00  0.00    -0.080 HD
ENDBRANCH  23  24
ENDBRANCH  22  23
ENDBRANCH   2  22
TORSDOF 5
ENDMDL
