MODEL 1
REMARK VINA RESULT:      -8.4      0.000      0.000
REMARK  Name = 5215
REMARK  3 active torsions:
REMARK  status: ('A' for Active; 'I' for Inactive)
REMARK    1  A    between atoms: S_1  and  N_4
REMARK    2  A    between atoms: S_1  and  C_12
REMARK    3  A    between atoms: C_15  and  N_18
REMARK                            x       y       z     vdW  Elec       q    Type
REMARK                         _______ _______ _______ _____ _____    ______ ____
ROOT
ATOM      1  S   UNL     1      33.739 -23.037 -18.065  0.00  0.00    +0.081 S 
ATOM      2  O   UNL     1      34.758 -22.935 -17.026  0.00  0.00    -0.149 OA
ATOM      3  O   UNL     1      33.612 -24.288 -18.802  0.00  0.00    -0.149 OA
ENDROOT
BRANCH   1   4
ATOM      4  N   UNL     1      32.220 -22.621 -17.368  0.00  0.00    -0.158 N 
ATOM      5  N   UNL     1      30.758 -24.127 -16.292  0.00  0.00    -0.202 NA
ATOM      6  N   UNL     1      32.535 -23.054 -15.071  0.00  0.00    -0.180 NA
ATOM      7  C   UNL     1      31.812 -23.308 -16.171  0.00  0.00    +0.106 C 
ATOM      8  C   UNL     1      30.403 -24.757 -15.152  0.00  0.00    +0.165 C 
ATOM      9  C   UNL     1      32.127 -23.716 -13.968  0.00  0.00    +0.108 C 
ATOM     10  C   UNL     1      31.058 -24.588 -13.949  0.00  0.00    +0.022 C 
ATOM     11  H   UNL     1      31.646 -21.933 -17.776  0.00  0.00    +0.186 HD
ENDBRANCH   1   4
BRANCH   1  12
ATOM     12  C   UNL     1      34.010 -21.742 -19.205  0.00  0.00    +0.126 C 
ATOM     13  C   UNL     1      35.306 -21.448 -19.630  0.00  0.00    +0.021 C 
ATOM     14  C   UNL     1      32.932 -21.002 -19.688  0.00  0.00    +0.021 C 
ATOM     15  C   UNL     1      34.444 -19.673 -21.024  0.00  0.00    +0.042 C 
ATOM     16  C   UNL     1      35.523 -20.414 -20.540  0.00  0.00    +0.015 C 
ATOM     17  C   UNL     1      33.149 -19.967 -20.598  0.00  0.00    +0.015 C 
BRANCH  15  18
ATOM     18  N   UNL     1      34.663 -18.627 -21.945  0.00  0.00    -0.357 N 
ATOM     19  H   UNL     1      35.571 -18.268 -22.076  0.00  0.00    +0.142 HD
ATOM     20  H   UNL     1      33.908 -18.257 -22.458  0.00  0.00    +0.142 HD
ENDBRANCH  15  18
ENDBRANCH   1  12
TORSDOF 3
ENDMDL
MODEL 2
REMARK VINA RESULT:      -8.4      4.756      6.578
REMARK  Name = 5215
REMARK  3 active torsions:
REMARK  status: ('A' for Active; 'I' for Inactive)
REMARK    1  A    between atoms: S_1  and  N_4
REMARK    2  A    between atoms: S_1  and  C_12
REMARK    3  A    between atoms: C_15  and  N_18
REMARK                            x       y       z     vdW  Elec       q    Type
REMARK                         _______ _______ _______ _____ _____    ______ ____
ROOT
ATOM      1  S   UNL     1      35.348 -18.486 -22.843  0.00  0.00    +0.081 S 
ATOM      2  O   UNL     1      36.778 -18.293 -22.632  0.00  0.00    -0.149 OA
ATOM      3  O   UNL     1      34.903 -19.629 -23.630  0.00  0.00    -0.149 OA
ENDROOT
BRANCH   1   4
ATOM      4  N   UNL     1      34.577 -18.512 -21.302  0.00  0.00    -0.158 N 
ATOM      5  N   UNL     1      33.365 -20.331 -20.417  0.00  0.00    -0.202 NA
ATOM      6  N   UNL     1      35.753 -20.189 -20.131  0.00  0.00    -0.180 NA
ATOM      7  C   UNL     1      34.564 -19.751 -20.572  0.00  0.00    +0.106 C 
ATOM      8  C   UNL     1      33.389 -21.492 -19.729  0.00  0.00    +0.165 C 
ATOM      9  C   UNL     1      35.705 -21.353 -19.452  0.00  0.00    +0.108 C 
ATOM     10  C   UNL     1      34.541 -22.056 -19.218  0.00  0.00    +0.022 C 
ATOM     11  H   UNL     1      34.158 -17.702 -20.932  0.00  0.00    +0.186 HD
ENDBRANCH   1   4
BRANCH   1  12
ATOM     12  C   UNL     1      34.716 -17.028 -23.568  0.00  0.00    +0.126 C 
ATOM     13  C   UNL     1      34.634 -15.856 -22.816  0.00  0.00    +0.021 C 
ATOM     14  C   UNL     1      34.292 -17.037 -24.896  0.00  0.00    +0.021 C 
ATOM     15  C   UNL     1      33.705 -14.700 -24.724  0.00  0.00    +0.042 C 
ATOM     16  C   UNL     1      34.128 -14.692 -23.395  0.00  0.00    +0.015 C 
ATOM     17  C   UNL     1      33.787 -15.873 -25.475  0.00  0.00    +0.015 C 
BRANCH  15  18
ATOM     18  N   UNL     1      33.195 -13.522 -25.309  0.00  0.00    -0.357 N 
ATOM     19  H   UNL     1      33.745 -12.706 -25.332  0.00  0.00    +0.142 HD
ATOM     20  H   UNL     1      32.289 -13.517 -25.696  0.00  0.00    +0.142 HD
ENDBRANCH  15  18
ENDBRANCH   1  12
TORSDOF 3
ENDMDL
MODEL 3
REMARK VINA RESULT:      -8.3      4.519      8.383
REMARK  Name = 5215
REMARK  3 active torsions:
REMARK  status: ('A' for Active; 'I' for Inactive)
REMARK    1  A    between atoms: S_1  and  N_4
REMARK    2  A    between atoms: S_1  and  C_12
REMARK    3  A    between atoms: C_15  and  N_18
REMARK                            x       y       z     vdW  Elec       q    Type
REMARK                         _______ _______ _______ _____ _____    ______ ____
ROOT
ATOM      1  S   UNL     1      35.224 -17.761 -21.459  0.00  0.00    +0.081 S 
ATOM      2  O   UNL     1      36.269 -18.009 -22.446  0.00  0.00    -0.149 OA
ATOM      3  O   UNL     1      35.496 -16.835 -20.366  0.00  0.00    -0.149 OA
ENDROOT
BRANCH   1   4
ATOM      4  N   UNL     1      33.804 -17.261 -22.297  0.00  0.00    -0.158 N 
ATOM      5  N   UNL     1      32.520 -15.351 -21.782  0.00  0.00    -0.202 NA
ATOM      6  N   UNL     1      34.428 -15.194 -23.245  0.00  0.00    -0.180 NA
ATOM      7  C   UNL     1      33.569 -15.850 -22.452  0.00  0.00    +0.106 C 
ATOM      8  C   UNL     1      32.330 -14.025 -21.948  0.00  0.00    +0.165 C 
ATOM      9  C   UNL     1      34.180 -13.873 -23.367  0.00  0.00    +0.108 C 
ATOM     10  C   UNL     1      33.136 -13.228 -22.736  0.00  0.00    +0.022 C 
ATOM     11  H   UNL     1      33.171 -17.923 -22.661  0.00  0.00    +0.186 HD
ENDBRANCH   1   4
BRANCH   1  12
ATOM     12  C   UNL     1      34.753 -19.301 -20.783  0.00  0.00    +0.126 C 
ATOM     13  C   UNL     1      33.402 -19.634 -20.684  0.00  0.00    +0.021 C 
ATOM     14  C   UNL     1      35.727 -20.195 -20.342  0.00  0.00    +0.021 C 
ATOM     15  C   UNL     1      34.001 -21.759 -19.702  0.00  0.00    +0.042 C 
ATOM     16  C   UNL     1      33.026 -20.864 -20.143  0.00  0.00    +0.015 C 
ATOM     17  C   UNL     1      35.352 -21.425 -19.802  0.00  0.00    +0.015 C 
BRANCH  15  18
ATOM     18  N   UNL     1      33.621 -23.003 -19.156  0.00  0.00    -0.357 N 
ATOM     19  H   UNL     1      33.944 -23.270 -18.265  0.00  0.00    +0.142 HD
ATOM     20  H   UNL     1      33.032 -23.605 -19.667  0.00  0.00    +0.142 HD
ENDBRANCH  15  18
ENDBRANCH   1  12
TORSDOF 3
ENDMDL
MODEL 4
REMARK VINA RESULT:      -8.2      4.249      7.725
REMARK  Name = 5215
REMARK  3 active torsions:
REMARK  status: ('A' for Active; 'I' for Inactive)
REMARK    1  A    between atoms: S_1  and  N_4
REMARK    2  A    between atoms: S_1  and  C_12
REMARK    3  A    between atoms: C_15  and  N_18
REMARK                            x       y       z     vdW  Elec       q    Type
REMARK                         _______ _______ _______ _____ _____    ______ ____
ROOT
ATOM      1  S   UNL     1      35.549 -18.457 -21.690  0.00  0.00    +0.081 S 
ATOM      2  O   UNL     1      34.632 -18.232 -22.801  0.00  0.00    -0.149 OA
ATOM      3  O   UNL     1      36.961 -18.675 -21.979  0.00  0.00    -0.149 OA
ENDROOT
BRANCH   1   4
ATOM      4  N   UNL     1      35.383 -17.146 -20.584  0.00  0.00    -0.158 N 
ATOM      5  N   UNL     1      34.929 -14.910 -21.182  0.00  0.00    -0.202 NA
ATOM      6  N   UNL     1      33.135 -16.484 -20.855  0.00  0.00    -0.180 NA
ATOM      7  C   UNL     1      34.425 -16.118 -20.891  0.00  0.00    +0.106 C 
ATOM      8  C   UNL     1      34.004 -13.970 -21.466  0.00  0.00    +0.165 C 
ATOM      9  C   UNL     1      32.264 -15.497 -21.149  0.00  0.00    +0.108 C 
ATOM     10  C   UNL     1      32.644 -14.208 -21.466  0.00  0.00    +0.022 C 
ATOM     11  H   UNL     1      35.928 -17.102 -19.765  0.00  0.00    +0.186 HD
ENDBRANCH   1   4
BRANCH   1  12
ATOM     12  C   UNL     1      34.951 -19.816 -20.772  0.00  0.00    +0.126 C 
ATOM     13  C   UNL     1      33.577 -20.008 -20.626  0.00  0.00    +0.021 C 
ATOM     14  C   UNL     1      35.846 -20.709 -20.184  0.00  0.00    +0.021 C 
ATOM     15  C   UNL     1      33.994 -21.987 -19.304  0.00  0.00    +0.042 C 
ATOM     16  C   UNL     1      33.098 -21.093 -19.892  0.00  0.00    +0.015 C 
ATOM     17  C   UNL     1      35.368 -21.795 -19.451  0.00  0.00    +0.015 C 
BRANCH  15  18
ATOM     18  N   UNL     1      33.510 -23.086 -18.563  0.00  0.00    -0.357 N 
ATOM     19  H   UNL     1      33.666 -23.131 -17.592  0.00  0.00    +0.142 HD
ATOM     20  H   UNL     1      33.017 -23.806 -19.018  0.00  0.00    +0.142 HD
ENDBRANCH  15  18
ENDBRANCH   1  12
TORSDOF 3
ENDMDL
MODEL 5
REMARK VINA RESULT:      -8.2      5.637      9.373
REMARK  Name = 5215
REMARK  3 active torsions:
REMARK  status: ('A' for Active; 'I' for Inactive)
REMARK    1  A    between atoms: S_1  and  N_4
REMARK    2  A    between atoms: S_1  and  C_12
REMARK    3  A    between atoms: C_15  and  N_18
REMARK                            x       y       z     vdW  Elec       q    Type
REMARK                         _______ _______ _______ _____ _____    ______ ____
ROOT
ATOM      1  S   UNL     1      34.271 -16.282 -21.436  0.00  0.00    +0.081 S 
ATOM      2  O   UNL     1      34.956 -15.436 -20.465  0.00  0.00    -0.149 OA
ATOM      3  O   UNL     1      32.826 -16.155 -21.581  0.00  0.00    -0.149 OA
ENDROOT
BRANCH   1   4
ATOM      4  N   UNL     1      35.027 -16.059 -22.968  0.00  0.00    -0.158 N 
ATOM      5  N   UNL     1      33.917 -16.077 -25.049  0.00  0.00    -0.202 NA
ATOM      6  N   UNL     1      34.077 -14.049 -23.758  0.00  0.00    -0.180 NA
ATOM      7  C   UNL     1      34.297 -15.352 -23.987  0.00  0.00    +0.106 C 
ATOM      8  C   UNL     1      33.233 -15.385 -25.984  0.00  0.00    +0.165 C 
ATOM      9  C   UNL     1      33.390 -13.418 -24.732  0.00  0.00    +0.108 C 
ATOM     10  C   UNL     1      32.938 -14.040 -25.878  0.00  0.00    +0.022 C 
ATOM     11  H   UNL     1      35.932 -16.405 -23.141  0.00  0.00    +0.186 HD
ENDBRANCH   1   4
BRANCH   1  12
ATOM     12  C   UNL     1      34.650 -17.943 -21.055  0.00  0.00    +0.126 C 
ATOM     13  C   UNL     1      33.622 -18.860 -20.837  0.00  0.00    +0.021 C 
ATOM     14  C   UNL     1      35.980 -18.352 -20.966  0.00  0.00    +0.021 C 
ATOM     15  C   UNL     1      35.255 -20.597 -20.444  0.00  0.00    +0.042 C 
ATOM     16  C   UNL     1      33.924 -20.187 -20.532  0.00  0.00    +0.015 C 
ATOM     17  C   UNL     1      36.283 -19.679 -20.662  0.00  0.00    +0.015 C 
BRANCH  15  18
ATOM     18  N   UNL     1      35.561 -21.939 -20.136  0.00  0.00    -0.357 N 
ATOM     19  H   UNL     1      34.943 -22.471 -19.584  0.00  0.00    +0.142 HD
ATOM     20  H   UNL     1      36.393 -22.344 -20.474  0.00  0.00    +0.142 HD
ENDBRANCH  15  18
ENDBRANCH   1  12
TORSDOF 3
ENDMDL
MODEL 6
REMARK VINA RESULT:      -8.1      8.292     10.898
REMARK  Name = 5215
REMARK  3 active torsions:
REMARK  status: ('A' for Active; 'I' for Inactive)
REMARK    1  A    between atoms: S_1  and  N_4
REMARK    2  A    between atoms: S_1  and  C_12
REMARK    3  A    between atoms: C_15  and  N_18
REMARK                            x       y       z     vdW  Elec       q    Type
REMARK                         _______ _______ _______ _____ _____    ______ ____
ROOT
ATOM      1  S   UNL     1      33.130 -13.381 -23.552  0.00  0.00    +0.081 S 
ATOM      2  O   UNL     1      32.688 -13.836 -24.865  0.00  0.00    -0.149 OA
ATOM      3  O   UNL     1      34.042 -12.246 -23.473  0.00  0.00    -0.149 OA
ENDROOT
BRANCH   1   4
ATOM      4  N   UNL     1      31.732 -13.066 -22.596  0.00  0.00    -0.158 N 
ATOM      5  N   UNL     1      31.746 -12.127 -20.432  0.00  0.00    -0.202 NA
ATOM      6  N   UNL     1      31.733 -10.716 -22.385  0.00  0.00    -0.180 NA
ATOM      7  C   UNL     1      31.737 -11.900 -21.753  0.00  0.00    +0.106 C 
ATOM      8  C   UNL     1      31.751 -11.013 -19.671  0.00  0.00    +0.165 C 
ATOM      9  C   UNL     1      31.739  -9.645 -21.565  0.00  0.00    +0.108 C 
ATOM     10  C   UNL     1      31.748  -9.733 -20.188  0.00  0.00    +0.022 C 
ATOM     11  H   UNL     1      30.952 -13.666 -22.626  0.00  0.00    +0.186 HD
ENDBRANCH   1   4
BRANCH   1  12
ATOM     12  C   UNL     1      33.859 -14.742 -22.735  0.00  0.00    +0.126 C 
ATOM     13  C   UNL     1      34.039 -14.709 -21.352  0.00  0.00    +0.021 C 
ATOM     14  C   UNL     1      34.263 -15.859 -23.465  0.00  0.00    +0.021 C 
ATOM     15  C   UNL     1      35.026 -16.913 -21.430  0.00  0.00    +0.042 C 
ATOM     16  C   UNL     1      34.622 -15.795 -20.699  0.00  0.00    +0.015 C 
ATOM     17  C   UNL     1      34.845 -16.945 -22.813  0.00  0.00    +0.015 C 
BRANCH  15  18
ATOM     18  N   UNL     1      35.614 -18.012 -20.769  0.00  0.00    -0.357 N 
ATOM     19  H   UNL     1      35.662 -18.888 -21.217  0.00  0.00    +0.142 HD
ATOM     20  H   UNL     1      35.977 -17.903 -19.861  0.00  0.00    +0.142 HD
ENDBRANCH  15  18
ENDBRANCH   1  12
TORSDOF 3
ENDMDL
MODEL 7
REMARK VINA RESULT:      -8.0      3.866      5.919
REMARK  Name = 5215
REMARK  3 active torsions:
REMARK  status: ('A' for Active; 'I' for Inactive)
REMARK    1  A    between atoms: S_1  and  N_4
REMARK    2  A    between atoms: S_1  and  C_12
REMARK    3  A    between atoms: C_15  and  N_18
REMARK                            x       y       z     vdW  Elec       q    Type
REMARK                         _______ _______ _______ _____ _____    ______ ____
ROOT
ATOM      1  S   UNL     1      34.912 -23.552 -15.895  0.00  0.00    +0.081 S 
ATOM      2  O   UNL     1      35.314 -22.911 -17.142  0.00  0.00    -0.149 OA
ATOM      3  O   UNL     1      35.205 -24.968 -15.708  0.00  0.00    -0.149 OA
ENDROOT
BRANCH   1   4
ATOM      4  N   UNL     1      35.576 -22.647 -14.589  0.00  0.00    -0.158 N 
ATOM      5  N   UNL     1      35.943 -23.472 -12.410  0.00  0.00    -0.202 NA
ATOM      6  N   UNL     1      37.605 -23.759 -14.130  0.00  0.00    -0.180 NA
ATOM      7  C   UNL     1      36.427 -23.333 -13.653  0.00  0.00    +0.106 C 
ATOM      8  C   UNL     1      36.765 -24.121 -11.558  0.00  0.00    +0.165 C 
ATOM      9  C   UNL     1      38.377 -24.399 -13.227  0.00  0.00    +0.108 C 
ATOM     10  C   UNL     1      38.005 -24.611 -11.915  0.00  0.00    +0.022 C 
ATOM     11  H   UNL     1      35.380 -21.688 -14.486  0.00  0.00    +0.186 HD
ENDBRANCH   1   4
BRANCH   1  12
ATOM     12  C   UNL     1      33.194 -23.308 -15.702  0.00  0.00    +0.126 C 
ATOM     13  C   UNL     1      32.388 -23.105 -16.823  0.00  0.00    +0.021 C 
ATOM     14  C   UNL     1      32.627 -23.314 -14.428  0.00  0.00    +0.021 C 
ATOM     15  C   UNL     1      30.449 -22.915 -15.394  0.00  0.00    +0.042 C 
ATOM     16  C   UNL     1      31.016 -22.909 -16.669  0.00  0.00    +0.015 C 
ATOM     17  C   UNL     1      31.255 -23.118 -14.274  0.00  0.00    +0.015 C 
BRANCH  15  18
ATOM     18  N   UNL     1      29.061 -22.718 -15.238  0.00  0.00    -0.357 N 
ATOM     19  H   UNL     1      28.726 -22.094 -14.554  0.00  0.00    +0.142 HD
ATOM     20  H   UNL     1      28.428 -23.205 -15.814  0.00  0.00    +0.142 HD
ENDBRANCH  15  18
ENDBRANCH   1  12
TORSDOF 3
ENDMDL
MODEL 8
REMARK VINA RESULT:      -7.9      4.743      6.763
REMARK  Name = 5215
REMARK  3 active torsions:
REMARK  status: ('A' for Active; 'I' for Inactive)
REMARK    1  A    between atoms: S_1  and  N_4
REMARK    2  A    between atoms: S_1  and  C_12
REMARK    3  A    between atoms: C_15  and  N_18
REMARK                            x       y       z     vdW  Elec       q    Type
REMARK                         _______ _______ _______ _____ _____    ______ ____
ROOT
ATOM      1  S   UNL     1      34.299 -23.931 -13.843  0.00  0.00    +0.081 S 
ATOM      2  O   UNL     1      34.194 -23.939 -12.388  0.00  0.00    -0.149 OA
ATOM      3  O   UNL     1      34.946 -22.797 -14.493  0.00  0.00    -0.149 OA
ENDROOT
BRANCH   1   4
ATOM      4  N   UNL     1      35.069 -25.392 -14.332  0.00  0.00    -0.158 N 
ATOM      5  N   UNL     1      37.254 -25.554 -15.204  0.00  0.00    -0.202 NA
ATOM      6  N   UNL     1      36.873 -25.590 -12.825  0.00  0.00    -0.180 NA
ATOM      7  C   UNL     1      36.484 -25.521 -14.107  0.00  0.00    +0.106 C 
ATOM      8  C   UNL     1      38.576 -25.674 -14.957  0.00  0.00    +0.165 C 
ATOM      9  C   UNL     1      38.205 -25.709 -12.650  0.00  0.00    +0.108 C 
ATOM     10  C   UNL     1      39.114 -25.757 -13.688  0.00  0.00    +0.022 C 
ATOM     11  H   UNL     1      34.555 -26.119 -14.753  0.00  0.00    +0.186 HD
ENDBRANCH   1   4
BRANCH   1  12
ATOM     12  C   UNL     1      32.689 -24.104 -14.494  0.00  0.00    +0.126 C 
ATOM     13  C   UNL     1      32.287 -23.322 -15.577  0.00  0.00    +0.021 C 
ATOM     14  C   UNL     1      31.804 -25.023 -13.932  0.00  0.00    +0.021 C 
ATOM     15  C   UNL     1      30.115 -24.379 -15.534  0.00  0.00    +0.042 C 
ATOM     16  C   UNL     1      31.001 -23.459 -16.097  0.00  0.00    +0.015 C 
ATOM     17  C   UNL     1      30.517 -25.162 -14.452  0.00  0.00    +0.015 C 
BRANCH  15  18
ATOM     18  N   UNL     1      28.814 -24.519 -16.062  0.00  0.00    -0.357 N 
ATOM     19  H   UNL     1      28.129 -23.839 -15.869  0.00  0.00    +0.142 HD
ATOM     20  H   UNL     1      28.591 -25.298 -16.622  0.00  0.00    +0.142 HD
ENDBRANCH  15  18
ENDBRANCH   1  12
TORSDOF 3
ENDMDL
MODEL 9
REMARK VINA RESULT:      -7.7      3.905      4.641
REMARK  Name = 5215
REMARK  3 active torsions:
REMARK  status: ('A' for Active; 'I' for Inactive)
REMARK    1  A    between atoms: S_1  and  N_4
REMARK    2  A    between atoms: S_1  and  C_12
REMARK    3  A    between atoms: C_15  and  N_18
REMARK                            x       y       z     vdW  Elec       q    Type
REMARK                         _______ _______ _______ _____ _____    ______ ____
ROOT
ATOM      1  S   UNL     1      35.351 -23.306 -16.060  0.00  0.00    +0.081 S 
ATOM      2  O   UNL     1      34.698 -24.584 -16.320  0.00  0.00    -0.149 OA
ATOM      3  O   UNL     1      34.826 -22.453 -15.000  0.00  0.00    -0.149 OA
ENDROOT
BRANCH   1   4
ATOM      4  N   UNL     1      37.025 -23.605 -15.784  0.00  0.00    -0.158 N 
ATOM      5  N   UNL     1      38.051 -23.748 -13.665  0.00  0.00    -0.202 NA
ATOM      6  N   UNL     1      37.031 -25.685 -14.670  0.00  0.00    -0.180 NA
ATOM      7  C   UNL     1      37.392 -24.394 -14.638  0.00  0.00    +0.106 C 
ATOM      8  C   UNL     1      38.378 -24.515 -12.604  0.00  0.00    +0.165 C 
ATOM      9  C   UNL     1      37.390 -26.394 -13.580  0.00  0.00    +0.108 C 
ATOM     10  C   UNL     1      38.071 -25.858 -12.506  0.00  0.00    +0.022 C 
ATOM     11  H   UNL     1      37.711 -23.248 -16.393  0.00  0.00    +0.186 HD
ENDBRANCH   1   4
BRANCH   1  12
ATOM     12  C   UNL     1      35.361 -22.400 -17.553  0.00  0.00    +0.126 C 
ATOM     13  C   UNL     1      36.523 -21.749 -17.965  0.00  0.00    +0.021 C 
ATOM     14  C   UNL     1      34.207 -22.326 -18.331  0.00  0.00    +0.021 C 
ATOM     15  C   UNL     1      35.376 -20.951 -19.936  0.00  0.00    +0.042 C 
ATOM     16  C   UNL     1      36.531 -21.024 -19.156  0.00  0.00    +0.015 C 
ATOM     17  C   UNL     1      34.214 -21.603 -19.523  0.00  0.00    +0.015 C 
BRANCH  15  18
ATOM     18  N   UNL     1      35.385 -20.219 -21.142  0.00  0.00    -0.357 N 
ATOM     19  H   UNL     1      35.893 -20.553 -21.917  0.00  0.00    +0.142 HD
ATOM     20  H   UNL     1      34.882 -19.375 -21.209  0.00  0.00    +0.142 HD
ENDBRANCH  15  18
ENDBRANCH   1  12
TORSDOF 3
ENDMDL
