MODEL 1
REMARK VINA RESULT:      -8.7      0.000      0.000
REMARK  Name = 36921
REMARK  7 active torsions:
REMARK  status: ('A' for Active; 'I' for Inactive)
REMARK    1  A    between atoms: N_2  and  CA_11
REMARK    2  A    between atoms: C_3  and  C_19
REMARK    3  A    between atoms: CA_10  and  C_16
REMARK    4  A    between atoms: C_16  and  O_17
REMARK    5  A    between atoms: C_19  and  C_21
REMARK    6  A    between atoms: C_19  and  C_26
REMARK    7  A    between atoms: C_26  and  O_27
REMARK                            x       y       z     vdW  Elec       q    Type
REMARK                         _______ _______ _______ _____ _____    ______ ____
ROOT
ATOM      1  O   UNL     1      33.111 -23.387 -16.966  0.00  0.00    -0.274 OA
ATOM      2  N   UNL     1      34.369 -23.938 -15.095  0.00  0.00    -0.296 N 
ATOM      3  C   UNL     1      33.223 -23.474 -15.745  0.00  0.00    +0.237 C 
ATOM      4  H   UNL     1      34.372 -23.974 -14.112  0.00  0.00    +0.150 HD
ENDROOT
BRANCH   2  11
ATOM      5  S   UNL     1      36.915 -22.947 -13.732  0.00  0.00    -0.118 S 
ATOM      6  O   UNL     1      35.644 -26.861 -15.245  0.00  0.00    -0.273 OA
ATOM      7  N   UNL     1      37.303 -25.199 -15.023  0.00  0.00    -0.260 N 
ATOM      8  C   UNL     1      36.925 -23.821 -15.343  0.00  0.00    +0.151 C 
ATOM      9  C   UNL     1      37.523 -24.420 -12.770  0.00  0.00    +0.068 C 
ATOM     10  CA  UNL     1      38.036 -25.447 -13.804  0.00  0.00    +0.184 C 
ATOM     11  CA  UNL     1      35.571 -24.375 -15.818  0.00  0.00    +0.178 C 
ATOM     12  C   UNL     1      36.105 -25.749 -15.373  0.00  0.00    +0.247 C 
ATOM     13  C   UNL     1      38.590 -23.960 -11.770  0.00  0.00    +0.013 C 
ATOM     14  C   UNL     1      36.324 -24.986 -11.992  0.00  0.00    +0.013 C 
BRANCH  10  16
ATOM     15  OXT UNL     1      39.911 -24.383 -14.898  0.00  0.00    -0.248 OA
ATOM     16  C   UNL     1      39.471 -25.292 -14.210  0.00  0.00    +0.333 C 
BRANCH  16  17
ATOM     17  O   UNL     1      40.222 -26.304 -13.711  0.00  0.00    -0.479 OA
ATOM     18  H   UNL     1      39.922 -27.188 -13.781  0.00  0.00    +0.295 HD
ENDBRANCH  16  17
ENDBRANCH  10  16
ENDBRANCH   2  11
BRANCH   3  19
ATOM     19  C   UNL     1      32.108 -23.066 -14.783  0.00  0.00    +0.197 C 
BRANCH  19  21
ATOM     20  S   UNL     1      28.513 -23.190 -16.544  0.00  0.00    -0.086 S 
ATOM     21  C   UNL     1      30.767 -23.405 -15.391  0.00  0.00    +0.004 C 
ATOM     22  C   UNL     1      30.255 -24.716 -15.432  0.00  0.00    +0.004 C 
ATOM     23  C   UNL     1      29.949 -22.471 -15.949  0.00  0.00    +0.032 C 
ATOM     24  C   UNL     1      29.019 -24.746 -16.041  0.00  0.00    +0.035 C 
ENDBRANCH  19  21
BRANCH  19  26
ATOM     25  O   UNL     1      32.336 -24.832 -13.104  0.00  0.00    -0.249 OA
ATOM     26  C   UNL     1      32.250 -23.644 -13.386  0.00  0.00    +0.326 C 
BRANCH  26  27
ATOM     27  O   UNL     1      32.196 -22.663 -12.447  0.00  0.00    -0.480 OA
ATOM     28  H   UNL     1      32.134 -22.886 -11.539  0.00  0.00    +0.295 HD
ENDBRANCH  26  27
ENDBRANCH  19  26
ENDBRANCH   3  19
TORSDOF 7
ENDMDL
MODEL 2
REMARK VINA RESULT:      -6.1      2.517      7.504
REMARK  Name = 36921
REMARK  7 active torsions:
REMARK  status: ('A' for Active; 'I' for Inactive)
REMARK    1  A    between atoms: N_2  and  CA_11
REMARK    2  A    between atoms: C_3  and  C_19
REMARK    3  A    between atoms: CA_10  and  C_16
REMARK    4  A    between atoms: C_16  and  O_17
REMARK    5  A    between atoms: C_19  and  C_21
REMARK    6  A    between atoms: C_19  and  C_26
REMARK    7  A    between atoms: C_26  and  O_27
REMARK                            x       y       z     vdW  Elec       q    Type
REMARK                         _______ _______ _______ _____ _____    ______ ____
ROOT
ATOM      1  O   UNL     1      35.683 -22.866 -14.556  0.00  0.00    -0.274 OA
ATOM      2  N   UNL     1      33.711 -24.084 -14.659  0.00  0.00    -0.296 N 
ATOM      3  C   UNL     1      35.022 -23.852 -14.238  0.00  0.00    +0.237 C 
ATOM      4  H   UNL     1      33.254 -24.901 -14.355  0.00  0.00    +0.150 HD
ENDROOT
BRANCH   2  11
ATOM      5  S   UNL     1      31.111 -25.320 -15.678  0.00  0.00    -0.118 S 
ATOM      6  O   UNL     1      32.089 -21.451 -13.862  0.00  0.00    -0.273 OA
ATOM      7  N   UNL     1      30.956 -22.706 -15.507  0.00  0.00    -0.260 N 
ATOM      8  C   UNL     1      31.733 -23.696 -16.255  0.00  0.00    +0.151 C 
ATOM      9  C   UNL     1      29.795 -24.586 -14.586  0.00  0.00    +0.068 C 
ATOM     10  CA  UNL     1      29.670 -23.097 -14.977  0.00  0.00    +0.184 C 
ATOM     11  CA  UNL     1      32.982 -23.158 -15.537  0.00  0.00    +0.178 C 
ATOM     12  C   UNL     1      32.012 -22.221 -14.793  0.00  0.00    +0.247 C 
ATOM     13  C   UNL     1      28.497 -25.384 -14.758  0.00  0.00    +0.013 C 
ATOM     14  C   UNL     1      30.275 -24.727 -13.132  0.00  0.00    +0.013 C 
BRANCH  10  16
ATOM     15  OXT UNL     1      28.837 -23.198 -17.243  0.00  0.00    -0.248 OA
ATOM     16  C   UNL     1      28.716 -22.800 -16.094  0.00  0.00    +0.333 C 
BRANCH  16  17
ATOM     17  O   UNL     1      27.694 -22.025 -15.658  0.00  0.00    -0.479 OA
ATOM     18  H   UNL     1      27.807 -21.483 -14.903  0.00  0.00    +0.295 HD
ENDBRANCH  16  17
ENDBRANCH  10  16
ENDBRANCH   2  11
BRANCH   3  19
ATOM     19  C   UNL     1      35.571 -24.960 -13.340  0.00  0.00    +0.197 C 
BRANCH  19  21
ATOM     20  S   UNL     1      39.537 -25.353 -13.740  0.00  0.00    -0.086 S 
ATOM     21  C   UNL     1      36.997 -25.268 -13.733  0.00  0.00    +0.004 C 
ATOM     22  C   UNL     1      37.330 -26.040 -14.862  0.00  0.00    +0.004 C 
ATOM     23  C   UNL     1      38.073 -24.824 -13.025  0.00  0.00    +0.032 C 
ATOM     24  C   UNL     1      38.696 -26.170 -14.989  0.00  0.00    +0.035 C 
ENDBRANCH  19  21
BRANCH  19  26
ATOM     25  O   UNL     1      35.803 -25.414 -10.947  0.00  0.00    -0.249 OA
ATOM     26  C   UNL     1      35.450 -24.672 -11.854  0.00  0.00    +0.326 C 
BRANCH  26  27
ATOM     27  O   UNL     1      34.819 -23.488 -11.638  0.00  0.00    -0.480 OA
ATOM     28  H   UNL     1      35.284 -22.683 -11.747  0.00  0.00    +0.295 HD
ENDBRANCH  26  27
ENDBRANCH  19  26
ENDBRANCH   3  19
TORSDOF 7
ENDMDL
MODEL 3
REMARK VINA RESULT:      -6.0     10.157     11.920
REMARK  Name = 36921
REMARK  7 active torsions:
REMARK  status: ('A' for Active; 'I' for Inactive)
REMARK    1  A    between atoms: N_2  and  CA_11
REMARK    2  A    between atoms: C_3  and  C_19
REMARK    3  A    between atoms: CA_10  and  C_16
REMARK    4  A    between atoms: C_16  and  O_17
REMARK    5  A    between atoms: C_19  and  C_21
REMARK    6  A    between atoms: C_19  and  C_26
REMARK    7  A    between atoms: C_26  and  O_27
REMARK                            x       y       z     vdW  Elec       q    Type
REMARK                         _______ _______ _______ _____ _____    ______ ____
ROOT
ATOM      1  O   UNL     1      35.066 -14.534 -22.461  0.00  0.00    -0.274 OA
ATOM      2  N   UNL     1      34.641 -16.587 -23.455  0.00  0.00    -0.296 N 
ATOM      3  C   UNL     1      34.387 -15.237 -23.207  0.00  0.00    +0.237 C 
ATOM      4  H   UNL     1      34.046 -17.075 -24.068  0.00  0.00    +0.150 HD
ENDROOT
BRANCH   2  11
ATOM      5  S   UNL     1      33.868 -17.745 -20.737  0.00  0.00    -0.118 S 
ATOM      6  O   UNL     1      35.854 -19.428 -24.265  0.00  0.00    -0.273 OA
ATOM      7  N   UNL     1      35.721 -19.174 -21.923  0.00  0.00    -0.260 N 
ATOM      8  C   UNL     1      35.576 -17.815 -21.399  0.00  0.00    +0.151 C 
ATOM      9  C   UNL     1      33.508 -19.537 -21.087  0.00  0.00    +0.068 C 
ATOM     10  CA  UNL     1      34.862 -20.211 -21.401  0.00  0.00    +0.184 C 
ATOM     11  CA  UNL     1      35.762 -17.312 -22.839  0.00  0.00    +0.178 C 
ATOM     12  C   UNL     1      35.836 -18.800 -23.230  0.00  0.00    +0.247 C 
ATOM     13  C   UNL     1      32.775 -20.146 -19.886  0.00  0.00    +0.013 C 
ATOM     14  C   UNL     1      32.580 -19.587 -22.312  0.00  0.00    +0.013 C 
BRANCH  10  16
ATOM     15  OXT UNL     1      36.442 -20.105 -19.575  0.00  0.00    -0.248 OA
ATOM     16  C   UNL     1      35.613 -20.735 -20.214  0.00  0.00    +0.333 C 
BRANCH  16  17
ATOM     17  O   UNL     1      35.248 -22.012 -19.942  0.00  0.00    -0.479 OA
ATOM     18  H   UNL     1      35.882 -22.623 -19.626  0.00  0.00    +0.295 HD
ENDBRANCH  16  17
ENDBRANCH  10  16
ENDBRANCH   2  11
BRANCH   3  19
ATOM     19  C   UNL     1      33.162 -14.708 -23.950  0.00  0.00    +0.197 C 
BRANCH  19  21
ATOM     20  S   UNL     1      32.208 -11.029 -22.687  0.00  0.00    -0.086 S 
ATOM     21  C   UNL     1      33.002 -13.231 -23.675  0.00  0.00    +0.004 C 
ATOM     22  C   UNL     1      33.737 -12.242 -24.357  0.00  0.00    +0.004 C 
ATOM     23  C   UNL     1      32.138 -12.739 -22.745  0.00  0.00    +0.032 C 
ATOM     24  C   UNL     1      33.402 -10.981 -23.914  0.00  0.00    +0.035 C 
ENDBRANCH  19  21
BRANCH  19  26
ATOM     25  O   UNL     1      33.964 -15.714 -26.032  0.00  0.00    -0.249 OA
ATOM     26  C   UNL     1      33.164 -15.002 -25.441  0.00  0.00    +0.326 C 
BRANCH  26  27
ATOM     27  O   UNL     1      32.187 -14.301 -26.074  0.00  0.00    -0.480 OA
ATOM     28  H   UNL     1      31.288 -14.538 -25.954  0.00  0.00    +0.295 HD
ENDBRANCH  26  27
ENDBRANCH  19  26
ENDBRANCH   3  19
TORSDOF 7
ENDMDL
