MODEL 1
REMARK VINA RESULT:     -10.2      0.000      0.000
REMARK  Name = 3702
REMARK  4 active torsions:
REMARK  status: ('A' for Active; 'I' for Inactive)
REMARK    1  A    between atoms: N_2  and  N_5
REMARK    2  A    between atoms: C_3  and  C_16
REMARK    3  A    between atoms: C_18  and  S_22
REMARK    4  A    between atoms: S_22  and  N_25
REMARK                            x       y       z     vdW  Elec       q    Type
REMARK                         _______ _______ _______ _____ _____    ______ ____
ROOT
ATOM      1  O   UNL     1      31.987 -13.311 -23.504  0.00  0.00    -0.269 OA
ATOM      2  N   UNL     1      34.148 -13.878 -24.129  0.00  0.00    -0.229 N 
ATOM      3  C   UNL     1      33.138 -12.987 -23.787  0.00  0.00    +0.262 C 
ATOM      4  H   UNL     1      35.051 -13.548 -24.345  0.00  0.00    +0.173 HD
ENDROOT
BRANCH   2   5
ATOM      5  N   UNL     1      33.876 -15.217 -24.164  0.00  0.00    -0.240 N 
ATOM      6  C   UNL     1      34.131 -15.983 -25.389  0.00  0.00    +0.097 C 
ATOM      7  C   UNL     1      34.277 -17.465 -24.950  0.00  0.00    +0.049 C 
ATOM      8  C   UNL     1      34.590 -17.317 -23.495  0.00  0.00    -0.006 C 
ATOM      9  C   UNL     1      34.338 -16.001 -23.090  0.00  0.00    +0.061 C 
ATOM     10  C   UNL     1      32.999 -15.793 -26.388  0.00  0.00    +0.024 C 
ATOM     11  C   UNL     1      35.035 -18.281 -22.607  0.00  0.00    -0.003 C 
ATOM     12  C   UNL     1      34.538 -15.626 -21.770  0.00  0.00    +0.016 C 
ATOM     13  C   UNL     1      35.241 -17.905 -21.279  0.00  0.00    -0.000 C 
ATOM     14  C   UNL     1      34.995 -16.587 -20.864  0.00  0.00    +0.001 C 
ENDBRANCH   2   5
BRANCH   3  16
ATOM     15 CL   UNL     1      34.645  -7.210 -23.852  0.00  0.00    -0.081 Cl
ATOM     16  C   UNL     1      33.504 -11.547 -23.793  0.00  0.00    +0.056 C 
ATOM     17  C   UNL     1      32.845 -10.689 -22.937  0.00  0.00    +0.025 C 
ATOM     18  C   UNL     1      33.189  -9.337 -22.943  0.00  0.00    +0.132 C 
ATOM     19  C   UNL     1      34.489 -11.115 -24.655  0.00  0.00    +0.006 C 
ATOM     20  C   UNL     1      34.183  -8.874 -23.805  0.00  0.00    +0.076 C 
ATOM     21  C   UNL     1      34.833  -9.763 -24.661  0.00  0.00    +0.013 C 
BRANCH  18  22
ATOM     22  S   UNL     1      32.339  -8.267 -21.845  0.00  0.00    +0.058 S 
ATOM     23  O   UNL     1      33.327  -7.525 -21.080  0.00  0.00    -0.153 OA
ATOM     24  O   UNL     1      31.317  -7.559 -22.600  0.00  0.00    -0.153 OA
BRANCH  22  25
ATOM     25  N   UNL     1      31.580  -9.402 -20.819  0.00  0.00    -0.203 NA
ATOM     26  H   UNL     1      31.288 -10.212 -21.365  0.00  0.00    +0.144 HD
ATOM     27  H   UNL     1      30.763  -8.973 -20.384  0.00  0.00    +0.144 HD
ENDBRANCH  22  25
ENDBRANCH  18  22
ENDBRANCH   3  16
TORSDOF 4
ENDMDL
MODEL 2
REMARK VINA RESULT:      -9.8      8.332     11.562
REMARK  Name = 3702
REMARK  4 active torsions:
REMARK  status: ('A' for Active; 'I' for Inactive)
REMARK    1  A    between atoms: N_2  and  N_5
REMARK    2  A    between atoms: C_3  and  C_16
REMARK    3  A    between atoms: C_18  and  S_22
REMARK    4  A    between atoms: S_22  and  N_25
REMARK                            x       y       z     vdW  Elec       q    Type
REMARK                         _______ _______ _______ _____ _____    ______ ____
ROOT
ATOM      1  O   UNL     1      33.809 -23.918 -18.755  0.00  0.00    -0.269 OA
ATOM      2  N   UNL     1      34.228 -22.709 -16.819  0.00  0.00    -0.229 N 
ATOM      3  C   UNL     1      34.283 -22.936 -18.189  0.00  0.00    +0.262 C 
ATOM      4  H   UNL     1      34.630 -21.899 -16.432  0.00  0.00    +0.173 HD
ENDROOT
BRANCH   2   5
ATOM      5  N   UNL     1      33.609 -23.626 -16.014  0.00  0.00    -0.240 N 
ATOM      6  C   UNL     1      34.211 -23.992 -14.727  0.00  0.00    +0.097 C 
ATOM      7  C   UNL     1      33.056 -24.551 -13.853  0.00  0.00    +0.049 C 
ATOM      8  C   UNL     1      31.857 -23.981 -14.541  0.00  0.00    -0.006 C 
ATOM      9  C   UNL     1      32.230 -23.462 -15.787  0.00  0.00    +0.061 C 
ATOM     10  C   UNL     1      35.323 -25.012 -14.923  0.00  0.00    +0.024 C 
ATOM     11  C   UNL     1      30.544 -23.953 -14.103  0.00  0.00    -0.003 C 
ATOM     12  C   UNL     1      31.278 -22.895 -16.620  0.00  0.00    +0.016 C 
ATOM     13  C   UNL     1      29.585 -23.378 -14.938  0.00  0.00    -0.000 C 
ATOM     14  C   UNL     1      29.950 -22.852 -16.188  0.00  0.00    +0.001 C 
ENDBRANCH   2   5
BRANCH   3  16
ATOM     15 CL   UNL     1      37.176 -18.822 -21.407  0.00  0.00    -0.081 Cl
ATOM     16  C   UNL     1      34.991 -21.907 -18.995  0.00  0.00    +0.056 C 
ATOM     17  C   UNL     1      34.253 -21.081 -19.817  0.00  0.00    +0.025 C 
ATOM     18  C   UNL     1      34.917 -20.116 -20.574  0.00  0.00    +0.132 C 
ATOM     19  C   UNL     1      36.363 -21.813 -18.896  0.00  0.00    +0.006 C 
ATOM     20  C   UNL     1      36.305 -19.999 -20.491  0.00  0.00    +0.076 C 
ATOM     21  C   UNL     1      37.027 -20.847 -19.652  0.00  0.00    +0.013 C 
BRANCH  18  22
ATOM     22  S   UNL     1      33.957 -19.078 -21.609  0.00  0.00    +0.058 S 
ATOM     23  O   UNL     1      34.069 -17.716 -21.113  0.00  0.00    -0.153 OA
ATOM     24  O   UNL     1      34.290 -19.380 -22.992  0.00  0.00    -0.153 OA
BRANCH  22  25
ATOM     25  N   UNL     1      32.387 -19.663 -21.279  0.00  0.00    -0.203 NA
ATOM     26  H   UNL     1      31.770 -19.437 -22.058  0.00  0.00    +0.144 HD
ATOM     27  H   UNL     1      32.034 -19.227 -20.427  0.00  0.00    +0.144 HD
ENDBRANCH  22  25
ENDBRANCH  18  22
ENDBRANCH   3  16
TORSDOF 4
ENDMDL
MODEL 3
REMARK VINA RESULT:      -9.6      3.988      7.590
REMARK  Name = 3702
REMARK  4 active torsions:
REMARK  status: ('A' for Active; 'I' for Inactive)
REMARK    1  A    between atoms: N_2  and  N_5
REMARK    2  A    between atoms: C_3  and  C_16
REMARK    3  A    between atoms: C_18  and  S_22
REMARK    4  A    between atoms: S_22  and  N_25
REMARK                            x       y       z     vdW  Elec       q    Type
REMARK                         _______ _______ _______ _____ _____    ______ ____
ROOT
ATOM      1  O   UNL     1      32.480 -13.458 -25.303  0.00  0.00    -0.269 OA
ATOM      2  N   UNL     1      33.261 -12.993 -23.168  0.00  0.00    -0.229 N 
ATOM      3  C   UNL     1      33.077 -13.799 -24.285  0.00  0.00    +0.262 C 
ATOM      4  H   UNL     1      33.752 -13.331 -22.385  0.00  0.00    +0.173 HD
ENDROOT
BRANCH   2   5
ATOM      5  N   UNL     1      32.752 -11.724 -23.169  0.00  0.00    -0.240 N 
ATOM      6  C   UNL     1      32.125 -11.187 -21.956  0.00  0.00    +0.097 C 
ATOM      7  C   UNL     1      32.189  -9.641 -22.084  0.00  0.00    +0.049 C 
ATOM      8  C   UNL     1      33.278  -9.468 -23.094  0.00  0.00    -0.006 C 
ATOM      9  C   UNL     1      33.563 -10.700 -23.695  0.00  0.00    +0.061 C 
ATOM     10  C   UNL     1      30.696 -11.690 -21.821  0.00  0.00    +0.024 C 
ATOM     11  C   UNL     1      33.935  -8.307 -23.464  0.00  0.00    -0.003 C 
ATOM     12  C   UNL     1      34.531 -10.787 -24.684  0.00  0.00    +0.016 C 
ATOM     13  C   UNL     1      34.913  -8.394 -24.455  0.00  0.00    -0.000 C 
ATOM     14  C   UNL     1      35.209  -9.625 -25.061  0.00  0.00    +0.001 C 
ENDBRANCH   2   5
BRANCH   3  16
ATOM     15 CL   UNL     1      35.330 -19.321 -24.002  0.00  0.00    -0.081 Cl
ATOM     16  C   UNL     1      33.639 -15.173 -24.201  0.00  0.00    +0.056 C 
ATOM     17  C   UNL     1      33.961 -15.685 -22.962  0.00  0.00    +0.025 C 
ATOM     18  C   UNL     1      34.489 -16.974 -22.883  0.00  0.00    +0.132 C 
ATOM     19  C   UNL     1      33.820 -15.890 -25.365  0.00  0.00    +0.006 C 
ATOM     20  C   UNL     1      34.681 -17.722 -24.045  0.00  0.00    +0.076 C 
ATOM     21  C   UNL     1      34.346 -17.179 -25.286  0.00  0.00    +0.013 C 
BRANCH  18  22
ATOM     22  S   UNL     1      34.890 -17.603 -21.297  0.00  0.00    +0.058 S 
ATOM     23  O   UNL     1      33.785 -18.434 -20.847  0.00  0.00    -0.153 OA
ATOM     24  O   UNL     1      36.237 -18.148 -21.350  0.00  0.00    -0.153 OA
BRANCH  22  25
ATOM     25  N   UNL     1      34.913 -16.163 -20.380  0.00  0.00    -0.203 NA
ATOM     26  H   UNL     1      35.813 -16.073 -19.911  0.00  0.00    +0.144 HD
ATOM     27  H   UNL     1      34.169 -16.192 -19.683  0.00  0.00    +0.144 HD
ENDBRANCH  22  25
ENDBRANCH  18  22
ENDBRANCH   3  16
TORSDOF 4
ENDMDL
MODEL 4
REMARK VINA RESULT:      -9.5      3.776      8.134
REMARK  Name = 3702
REMARK  4 active torsions:
REMARK  status: ('A' for Active; 'I' for Inactive)
REMARK    1  A    between atoms: N_2  and  N_5
REMARK    2  A    between atoms: C_3  and  C_16
REMARK    3  A    between atoms: C_18  and  S_22
REMARK    4  A    between atoms: S_22  and  N_25
REMARK                            x       y       z     vdW  Elec       q    Type
REMARK                         _______ _______ _______ _____ _____    ______ ____
ROOT
ATOM      1  O   UNL     1      30.827 -11.901 -21.350  0.00  0.00    -0.269 OA
ATOM      2  N   UNL     1      32.435 -10.489 -22.248  0.00  0.00    -0.229 N 
ATOM      3  C   UNL     1      31.823 -11.720 -22.047  0.00  0.00    +0.262 C 
ATOM      4  H   UNL     1      33.232 -10.417 -22.822  0.00  0.00    +0.173 HD
ENDROOT
BRANCH   2   5
ATOM      5  N   UNL     1      31.918  -9.378 -21.641  0.00  0.00    -0.240 N 
ATOM      6  C   UNL     1      32.494  -8.900 -20.380  0.00  0.00    +0.097 C 
ATOM      7  C   UNL     1      32.113  -7.399 -20.271  0.00  0.00    +0.049 C 
ATOM      8  C   UNL     1      31.804  -7.065 -21.696  0.00  0.00    -0.006 C 
ATOM      9  C   UNL     1      31.698  -8.244 -22.444  0.00  0.00    +0.061 C 
ATOM     10  C   UNL     1      31.965  -9.709 -19.204  0.00  0.00    +0.024 C 
ATOM     11  C   UNL     1      31.607  -5.819 -22.266  0.00  0.00    -0.003 C 
ATOM     12  C   UNL     1      31.395  -8.187 -23.796  0.00  0.00    +0.016 C 
ATOM     13  C   UNL     1      31.307  -5.760 -23.627  0.00  0.00    -0.000 C 
ATOM     14  C   UNL     1      31.202  -6.936 -24.387  0.00  0.00    +0.001 C 
ENDBRANCH   2   5
BRANCH   3  16
ATOM     15 CL   UNL     1      34.352 -16.373 -24.805  0.00  0.00    -0.081 Cl
ATOM     16  C   UNL     1      32.455 -12.884 -22.722  0.00  0.00    +0.056 C 
ATOM     17  C   UNL     1      33.004 -13.884 -21.947  0.00  0.00    +0.025 C 
ATOM     18  C   UNL     1      33.598 -14.976 -22.580  0.00  0.00    +0.132 C 
ATOM     19  C   UNL     1      32.472 -12.926 -24.100  0.00  0.00    +0.006 C 
ATOM     20  C   UNL     1      33.628 -15.044 -23.973  0.00  0.00    +0.076 C 
ATOM     21  C   UNL     1      33.066 -14.018 -24.733  0.00  0.00    +0.013 C 
BRANCH  18  22
ATOM     22  S   UNL     1      34.288 -16.235 -21.574  0.00  0.00    +0.058 S 
ATOM     23  O   UNL     1      33.214 -17.117 -21.152  0.00  0.00    -0.153 OA
ATOM     24  O   UNL     1      35.452 -16.778 -22.258  0.00  0.00    -0.153 OA
BRANCH  22  25
ATOM     25  N   UNL     1      34.815 -15.318 -20.233  0.00  0.00    -0.203 NA
ATOM     26  H   UNL     1      35.714 -15.674 -19.910  0.00  0.00    +0.144 HD
ATOM     27  H   UNL     1      34.130 -15.392 -19.481  0.00  0.00    +0.144 HD
ENDBRANCH  22  25
ENDBRANCH  18  22
ENDBRANCH   3  16
TORSDOF 4
ENDMDL
MODEL 5
REMARK VINA RESULT:      -9.5      7.580     10.615
REMARK  Name = 3702
REMARK  4 active torsions:
REMARK  status: ('A' for Active; 'I' for Inactive)
REMARK    1  A    between atoms: N_2  and  N_5
REMARK    2  A    between atoms: C_3  and  C_16
REMARK    3  A    between atoms: C_18  and  S_22
REMARK    4  A    between atoms: S_22  and  N_25
REMARK                            x       y       z     vdW  Elec       q    Type
REMARK                         _______ _______ _______ _____ _____    ______ ____
ROOT
ATOM      1  O   UNL     1      36.654 -20.016 -20.686  0.00  0.00    -0.269 OA
ATOM      2  N   UNL     1      34.480 -19.548 -21.351  0.00  0.00    -0.229 N 
ATOM      3  C   UNL     1      35.441 -20.173 -20.565  0.00  0.00    +0.262 C 
ATOM      4  H   UNL     1      33.523 -19.720 -21.198  0.00  0.00    +0.173 HD
ENDROOT
BRANCH   2   5
ATOM      5  N   UNL     1      34.879 -18.690 -22.338  0.00  0.00    -0.240 N 
ATOM      6  C   UNL     1      34.443 -18.915 -23.721  0.00  0.00    +0.097 C 
ATOM      7  C   UNL     1      34.555 -17.543 -24.439  0.00  0.00    +0.049 C 
ATOM      8  C   UNL     1      34.556 -16.598 -23.280  0.00  0.00    -0.006 C 
ATOM      9  C   UNL     1      34.750 -17.311 -22.090  0.00  0.00    +0.061 C 
ATOM     10  C   UNL     1      35.300 -19.980 -24.390  0.00  0.00    +0.024 C 
ATOM     11  C   UNL     1      34.423 -15.220 -23.291  0.00  0.00    -0.003 C 
ATOM     12  C   UNL     1      34.807 -16.642 -20.877  0.00  0.00    +0.016 C 
ATOM     13  C   UNL     1      34.475 -14.546 -22.070  0.00  0.00    -0.000 C 
ATOM     14  C   UNL     1      34.666 -15.252 -20.872  0.00  0.00    +0.001 C 
ENDBRANCH   2   5
BRANCH   3  16
ATOM     15 CL   UNL     1      33.348 -23.932 -16.425  0.00  0.00    -0.081 Cl
ATOM     16  C   UNL     1      34.932 -21.108 -19.528  0.00  0.00    +0.056 C 
ATOM     17  C   UNL     1      35.763 -21.462 -18.486  0.00  0.00    +0.025 C 
ATOM     18  C   UNL     1      35.286 -22.340 -17.512  0.00  0.00    +0.132 C 
ATOM     19  C   UNL     1      33.646 -21.591 -19.641  0.00  0.00    +0.006 C 
ATOM     20  C   UNL     1      33.987 -22.843 -17.603  0.00  0.00    +0.076 C 
ATOM     21  C   UNL     1      33.168 -22.468 -18.667  0.00  0.00    +0.013 C 
BRANCH  18  22
ATOM     22  S   UNL     1      36.361 -22.775 -16.198  0.00  0.00    +0.058 S 
ATOM     23  O   UNL     1      36.323 -24.219 -16.040  0.00  0.00    -0.153 OA
ATOM     24  O   UNL     1      37.630 -22.096 -16.405  0.00  0.00    -0.153 OA
BRANCH  22  25
ATOM     25  N   UNL     1      35.557 -22.050 -14.877  0.00  0.00    -0.203 NA
ATOM     26  H   UNL     1      35.955 -21.128 -14.701  0.00  0.00    +0.144 HD
ATOM     27  H   UNL     1      35.671 -22.634 -14.048  0.00  0.00    +0.144 HD
ENDBRANCH  22  25
ENDBRANCH  18  22
ENDBRANCH   3  16
TORSDOF 4
ENDMDL
MODEL 6
REMARK VINA RESULT:      -9.2      2.104      2.686
REMARK  Name = 3702
REMARK  4 active torsions:
REMARK  status: ('A' for Active; 'I' for Inactive)
REMARK    1  A    between atoms: N_2  and  N_5
REMARK    2  A    between atoms: C_3  and  C_16
REMARK    3  A    between atoms: C_18  and  S_22
REMARK    4  A    between atoms: S_22  and  N_25
REMARK                            x       y       z     vdW  Elec       q    Type
REMARK                         _______ _______ _______ _____ _____    ______ ____
ROOT
ATOM      1  O   UNL     1      31.725 -14.995 -21.697  0.00  0.00    -0.269 OA
ATOM      2  N   UNL     1      33.418 -14.208 -23.075  0.00  0.00    -0.229 N 
ATOM      3  C   UNL     1      32.435 -14.077 -22.102  0.00  0.00    +0.262 C 
ATOM      4  H   UNL     1      33.951 -13.428 -23.353  0.00  0.00    +0.173 HD
ENDROOT
BRANCH   2   5
ATOM      5  N   UNL     1      33.638 -15.432 -23.644  0.00  0.00    -0.240 N 
ATOM      6  C   UNL     1      34.104 -15.519 -25.032  0.00  0.00    +0.097 C 
ATOM      7  C   UNL     1      34.782 -16.908 -25.174  0.00  0.00    +0.049 C 
ATOM      8  C   UNL     1      35.074 -17.246 -23.747  0.00  0.00    -0.006 C 
ATOM      9  C   UNL     1      34.386 -16.366 -22.904  0.00  0.00    +0.061 C 
ATOM     10  C   UNL     1      32.944 -15.349 -26.002  0.00  0.00    +0.024 C 
ATOM     11  C   UNL     1      35.863 -18.268 -23.247  0.00  0.00    -0.003 C 
ATOM     12  C   UNL     1      34.486 -16.496 -21.527  0.00  0.00    +0.016 C 
ATOM     13  C   UNL     1      35.969 -18.398 -21.862  0.00  0.00    -0.000 C 
ATOM     14  C   UNL     1      35.286 -17.518 -21.008  0.00  0.00    +0.001 C 
ENDBRANCH   2   5
BRANCH   3  16
ATOM     15 CL   UNL     1      31.640  -8.617 -19.822  0.00  0.00    -0.081 Cl
ATOM     16  C   UNL     1      32.239 -12.712 -21.547  0.00  0.00    +0.056 C 
ATOM     17  C   UNL     1      32.393 -11.626 -22.382  0.00  0.00    +0.025 C 
ATOM     18  C   UNL     1      32.210 -10.345 -21.861  0.00  0.00    +0.132 C 
ATOM     19  C   UNL     1      31.911 -12.577 -20.214  0.00  0.00    +0.006 C 
ATOM     20  C   UNL     1      31.877 -10.180 -20.516  0.00  0.00    +0.076 C 
ATOM     21  C   UNL     1      31.728 -11.296 -19.694  0.00  0.00    +0.013 C 
BRANCH  18  22
ATOM     22  S   UNL     1      32.410  -8.980 -22.943  0.00  0.00    +0.058 S 
ATOM     23  O   UNL     1      31.090  -8.486 -23.297  0.00  0.00    -0.153 OA
ATOM     24  O   UNL     1      33.394  -8.080 -22.363  0.00  0.00    -0.153 OA
BRANCH  22  25
ATOM     25  N   UNL     1      33.099  -9.750 -24.303  0.00  0.00    -0.203 NA
ATOM     26  H   UNL     1      32.435  -9.733 -25.076  0.00  0.00    +0.144 HD
ATOM     27  H   UNL     1      33.323 -10.718 -24.068  0.00  0.00    +0.144 HD
ENDBRANCH  22  25
ENDBRANCH  18  22
ENDBRANCH   3  16
TORSDOF 4
ENDMDL
MODEL 7
REMARK VINA RESULT:      -8.9      3.671      7.991
REMARK  Name = 3702
REMARK  4 active torsions:
REMARK  status: ('A' for Active; 'I' for Inactive)
REMARK    1  A    between atoms: N_2  and  N_5
REMARK    2  A    between atoms: C_3  and  C_16
REMARK    3  A    between atoms: C_18  and  S_22
REMARK    4  A    between atoms: S_22  and  N_25
REMARK                            x       y       z     vdW  Elec       q    Type
REMARK                         _______ _______ _______ _____ _____    ______ ____
ROOT
ATOM      1  O   UNL     1      30.877 -12.121 -21.577  0.00  0.00    -0.269 OA
ATOM      2  N   UNL     1      32.579 -10.678 -22.215  0.00  0.00    -0.229 N 
ATOM      3  C   UNL     1      31.951 -11.915 -22.136  0.00  0.00    +0.262 C 
ATOM      4  H   UNL     1      33.441 -10.585 -22.681  0.00  0.00    +0.173 HD
ENDROOT
BRANCH   2   5
ATOM      5  N   UNL     1      31.985  -9.589 -21.639  0.00  0.00    -0.240 N 
ATOM      6  C   UNL     1      32.437  -9.121 -20.324  0.00  0.00    +0.097 C 
ATOM      7  C   UNL     1      32.013  -7.630 -20.227  0.00  0.00    +0.049 C 
ATOM      8  C   UNL     1      31.822  -7.279 -21.667  0.00  0.00    -0.006 C 
ATOM      9  C   UNL     1      31.810  -8.446 -22.440  0.00  0.00    +0.061 C 
ATOM     10  C   UNL     1      31.825  -9.962 -19.213  0.00  0.00    +0.024 C 
ATOM     11  C   UNL     1      31.648  -6.027 -22.234  0.00  0.00    -0.003 C 
ATOM     12  C   UNL     1      31.626  -8.373 -23.813  0.00  0.00    +0.016 C 
ATOM     13  C   UNL     1      31.468  -5.951 -23.615  0.00  0.00    -0.000 C 
ATOM     14  C   UNL     1      31.457  -7.115 -24.399  0.00  0.00    +0.001 C 
ENDBRANCH   2   5
BRANCH   3  16
ATOM     15 CL   UNL     1      34.852 -16.506 -24.618  0.00  0.00    -0.081 Cl
ATOM     16  C   UNL     1      32.668 -13.055 -22.767  0.00  0.00    +0.056 C 
ATOM     17  C   UNL     1      32.528 -13.261 -24.123  0.00  0.00    +0.025 C 
ATOM     18  C   UNL     1      33.201 -14.330 -24.714  0.00  0.00    +0.132 C 
ATOM     19  C   UNL     1      33.450 -13.869 -21.974  0.00  0.00    +0.006 C 
ATOM     20  C   UNL     1      33.999 -15.169 -23.936  0.00  0.00    +0.076 C 
ATOM     21  C   UNL     1      34.123 -14.938 -22.566  0.00  0.00    +0.013 C 
BRANCH  18  22
ATOM     22  S   UNL     1      33.009 -14.571 -26.440  0.00  0.00    +0.058 S 
ATOM     23  O   UNL     1      34.186 -14.039 -27.106  0.00  0.00    -0.153 OA
ATOM     24  O   UNL     1      32.603 -15.949 -26.665  0.00  0.00    -0.153 OA
BRANCH  22  25
ATOM     25  N   UNL     1      31.680 -13.545 -26.758  0.00  0.00    -0.203 NA
ATOM     26  H   UNL     1      30.812 -14.064 -26.629  0.00  0.00    +0.144 HD
ATOM     27  H   UNL     1      31.734 -13.207 -27.718  0.00  0.00    +0.144 HD
ENDBRANCH  22  25
ENDBRANCH  18  22
ENDBRANCH   3  16
TORSDOF 4
ENDMDL
MODEL 8
REMARK VINA RESULT:      -8.9      3.820      5.582
REMARK  Name = 3702
REMARK  4 active torsions:
REMARK  status: ('A' for Active; 'I' for Inactive)
REMARK    1  A    between atoms: N_2  and  N_5
REMARK    2  A    between atoms: C_3  and  C_16
REMARK    3  A    between atoms: C_18  and  S_22
REMARK    4  A    between atoms: S_22  and  N_25
REMARK                            x       y       z     vdW  Elec       q    Type
REMARK                         _______ _______ _______ _____ _____    ______ ____
ROOT
ATOM      1  O   UNL     1      35.365 -16.731 -20.010  0.00  0.00    -0.269 OA
ATOM      2  N   UNL     1      34.571 -17.867 -21.871  0.00  0.00    -0.229 N 
ATOM      3  C   UNL     1      34.697 -16.760 -21.040  0.00  0.00    +0.262 C 
ATOM      4  H   UNL     1      34.018 -17.820 -22.684  0.00  0.00    +0.173 HD
ENDROOT
BRANCH   2   5
ATOM      5  N   UNL     1      35.226 -19.023 -21.548  0.00  0.00    -0.240 N 
ATOM      6  C   UNL     1      36.598 -18.965 -21.031  0.00  0.00    +0.097 C 
ATOM      7  C   UNL     1      36.823 -20.290 -20.252  0.00  0.00    +0.049 C 
ATOM      8  C   UNL     1      35.417 -20.722 -19.985  0.00  0.00    -0.006 C 
ATOM      9  C   UNL     1      34.534 -19.962 -20.761  0.00  0.00    +0.061 C 
ATOM     10  C   UNL     1      37.595 -18.795 -22.167  0.00  0.00    +0.024 C 
ATOM     11  C   UNL     1      34.970 -21.726 -19.143  0.00  0.00    -0.003 C 
ATOM     12  C   UNL     1      33.169 -20.197 -20.697  0.00  0.00    +0.016 C 
ATOM     13  C   UNL     1      33.596 -21.961 -19.074  0.00  0.00    -0.000 C 
ATOM     14  C   UNL     1      32.702 -21.201 -19.845  0.00  0.00    +0.001 C 
ENDBRANCH   2   5
BRANCH   3  16
ATOM     15 CL   UNL     1      31.634 -11.883 -22.615  0.00  0.00    -0.081 Cl
ATOM     16  C   UNL     1      33.938 -15.548 -21.445  0.00  0.00    +0.056 C 
ATOM     17  C   UNL     1      33.946 -15.170 -22.772  0.00  0.00    +0.025 C 
ATOM     18  C   UNL     1      33.234 -14.032 -23.152  0.00  0.00    +0.132 C 
ATOM     19  C   UNL     1      33.251 -14.840 -20.481  0.00  0.00    +0.006 C 
ATOM     20  C   UNL     1      32.530 -13.298 -22.197  0.00  0.00    +0.076 C 
ATOM     21  C   UNL     1      32.538 -13.703 -20.862  0.00  0.00    +0.013 C 
BRANCH  18  22
ATOM     22  S   UNL     1      33.259 -13.573 -24.843  0.00  0.00    +0.058 S 
ATOM     23  O   UNL     1      31.893 -13.600 -25.340  0.00  0.00    -0.153 OA
ATOM     24  O   UNL     1      34.059 -12.365 -24.975  0.00  0.00    -0.153 OA
BRANCH  22  25
ATOM     25  N   UNL     1      34.122 -14.884 -25.516  0.00  0.00    -0.203 NA
ATOM     26  H   UNL     1      34.511 -15.455 -24.767  0.00  0.00    +0.144 HD
ATOM     27  H   UNL     1      34.879 -14.528 -26.100  0.00  0.00    +0.144 HD
ENDBRANCH  22  25
ENDBRANCH  18  22
ENDBRANCH   3  16
TORSDOF 4
ENDMDL
MODEL 9
REMARK VINA RESULT:      -8.8      3.657      5.804
REMARK  Name = 3702
REMARK  4 active torsions:
REMARK  status: ('A' for Active; 'I' for Inactive)
REMARK    1  A    between atoms: N_2  and  N_5
REMARK    2  A    between atoms: C_3  and  C_16
REMARK    3  A    between atoms: C_18  and  S_22
REMARK    4  A    between atoms: S_22  and  N_25
REMARK                            x       y       z     vdW  Elec       q    Type
REMARK                         _______ _______ _______ _____ _____    ______ ____
ROOT
ATOM      1  O   UNL     1      34.115  -7.684 -22.181  0.00  0.00    -0.269 OA
ATOM      2  N   UNL     1      32.393  -8.801 -23.262  0.00  0.00    -0.229 N 
ATOM      3  C   UNL     1      33.243  -7.724 -23.045  0.00  0.00    +0.262 C 
ATOM      4  H   UNL     1      31.714  -8.765 -23.974  0.00  0.00    +0.173 HD
ENDROOT
BRANCH   2   5
ATOM      5  N   UNL     1      32.509  -9.914 -22.476  0.00  0.00    -0.240 N 
ATOM      6  C   UNL     1      31.494 -10.197 -21.455  0.00  0.00    +0.097 C 
ATOM      7  C   UNL     1      31.582 -11.721 -21.169  0.00  0.00    +0.049 C 
ATOM      8  C   UNL     1      32.273 -12.217 -22.398  0.00  0.00    -0.006 C 
ATOM      9  C   UNL     1      32.794 -11.134 -23.116  0.00  0.00    +0.061 C 
ATOM     10  C   UNL     1      31.740  -9.366 -20.205  0.00  0.00    +0.024 C 
ATOM     11  C   UNL     1      32.444 -13.524 -22.823  0.00  0.00    -0.003 C 
ATOM     12  C   UNL     1      33.499 -11.350 -24.290  0.00  0.00    +0.016 C 
ATOM     13  C   UNL     1      33.149 -13.742 -24.007  0.00  0.00    -0.000 C 
ATOM     14  C   UNL     1      33.673 -12.663 -24.735  0.00  0.00    +0.001 C 
ENDBRANCH   2   5
BRANCH   3  16
ATOM     15 CL   UNL     1      32.462  -3.003 -26.617  0.00  0.00    -0.081 Cl
ATOM     16  C   UNL     1      33.040  -6.542 -23.925  0.00  0.00    +0.056 C 
ATOM     17  C   UNL     1      32.240  -5.511 -23.480  0.00  0.00    +0.025 C 
ATOM     18  C   UNL     1      32.049  -4.403 -24.306  0.00  0.00    +0.132 C 
ATOM     19  C   UNL     1      33.659  -6.517 -25.157  0.00  0.00    +0.006 C 
ATOM     20  C   UNL     1      32.665  -4.351 -25.557  0.00  0.00    +0.076 C 
ATOM     21  C   UNL     1      33.470  -5.408 -25.982  0.00  0.00    +0.013 C 
BRANCH  18  22
ATOM     22  S   UNL     1      31.029  -3.105 -23.718  0.00  0.00    +0.058 S 
ATOM     23  O   UNL     1      31.885  -1.998 -23.325  0.00  0.00    -0.153 OA
ATOM     24  O   UNL     1      29.960  -2.894 -24.683  0.00  0.00    -0.153 OA
BRANCH  22  25
ATOM     25  N   UNL     1      30.372  -3.826 -22.316  0.00  0.00    -0.203 NA
ATOM     26  H   UNL     1      29.366  -3.662 -22.289  0.00  0.00    +0.144 HD
ATOM     27  H   UNL     1      30.806  -3.416 -21.489  0.00  0.00    +0.144 HD
ENDBRANCH  22  25
ENDBRANCH  18  22
ENDBRANCH   3  16
TORSDOF 4
ENDMDL
