MODEL 1
REMARK VINA RESULT:     -11.5      0.000      0.000
REMARK  Name = 445018
REMARK  7 active torsions:
REMARK  status: ('A' for Active; 'I' for Inactive)
REMARK    1  A    between atoms: N_2  and  S_14
REMARK    2  A    between atoms: N_3  and  C_25
REMARK    3  A    between atoms: C_4  and  C_10
REMARK    4  A    between atoms: N_9  and  O_12
REMARK    5  A    between atoms: S_14  and  C_17
REMARK    6  A    between atoms: C_22  and  O_23
REMARK    7  A    between atoms: C_25  and  C_26
REMARK                            x       y       z     vdW  Elec       q    Type
REMARK                         _______ _______ _______ _____ _____    ______ ____
ROOT
ATOM      1  O   UNL     1      36.383 -22.580 -17.382  0.00  0.00    -0.275 OA
ATOM      2  N   UNL     1      33.290 -23.870 -15.038  0.00  0.00    -0.128 NA
ATOM      3  N   UNL     1      34.114 -23.072 -17.185  0.00  0.00    -0.260 N 
ATOM      4  C   UNL     1      34.586 -23.511 -14.406  0.00  0.00    +0.168 C 
ATOM      5  C   UNL     1      32.978 -23.119 -16.277  0.00  0.00    +0.192 C 
ATOM      6  C   UNL     1      35.394 -22.493 -15.201  0.00  0.00    +0.112 C 
ATOM      7  C   UNL     1      35.372 -22.730 -16.699  0.00  0.00    +0.229 C 
ENDROOT
BRANCH   4  10
ATOM      8  O   UNL     1      35.490 -25.542 -15.254  0.00  0.00    -0.272 OA
ATOM      9  N   UNL     1      35.775 -25.048 -13.014  0.00  0.00    -0.196 N 
ATOM     10  C   UNL     1      35.322 -24.805 -14.284  0.00  0.00    +0.261 C 
ATOM     11  H   UNL     1      35.612 -24.423 -12.272  0.00  0.00    +0.182 HD
BRANCH   9  12
ATOM     12  O   UNL     1      36.485 -26.243 -12.837  0.00  0.00    -0.295 OA
ATOM     13  H   UNL     1      36.865 -26.266 -11.946  0.00  0.00    +0.241 HD
ENDBRANCH   9  12
ENDBRANCH   4  10
BRANCH   2  14
ATOM     14  S   UNL     1      31.975 -24.180 -13.992  0.00  0.00    +0.065 S 
ATOM     15  O   UNL     1      31.931 -23.157 -12.967  0.00  0.00    -0.153 OA
ATOM     16  O   UNL     1      31.968 -25.585 -13.640  0.00  0.00    -0.153 OA
BRANCH  14  17
ATOM     17  C   UNL     1      30.625 -23.892 -15.094  0.00  0.00    +0.122 C 
ATOM     18  C   UNL     1      30.173 -22.597 -15.289  0.00  0.00    +0.023 C 
ATOM     19  C   UNL     1      30.041 -24.966 -15.744  0.00  0.00    +0.023 C 
ATOM     20  C   UNL     1      29.107 -22.370 -16.159  0.00  0.00    +0.038 C 
ATOM     21  C   UNL     1      28.974 -24.740 -16.616  0.00  0.00    +0.038 C 
ATOM     22  C   UNL     1      28.507 -23.441 -16.822  0.00  0.00    +0.139 C 
BRANCH  22  23
ATOM     23  O   UNL     1      27.468 -23.219 -17.672  0.00  0.00    -0.471 OA
ATOM     24  C   UNL     1      26.783 -21.974 -17.549  0.00  0.00    +0.252 C 
ENDBRANCH  22  23
ENDBRANCH  14  17
ENDBRANCH   2  14
BRANCH   3  25
ATOM     25  C   UNL     1      33.868 -23.255 -18.606  0.00  0.00    +0.121 C 
BRANCH  25  26
ATOM     26  C   UNL     1      33.945 -21.959 -19.360  0.00  0.00    -0.002 C 
ATOM     27  C   UNL     1      32.794 -21.201 -19.544  0.00  0.00    -0.003 C 
ATOM     28  C   UNL     1      35.165 -21.530 -19.869  0.00  0.00    -0.003 C 
ATOM     29  C   UNL     1      32.865 -19.998 -20.245  0.00  0.00    -0.000 C 
ATOM     30  C   UNL     1      35.236 -20.326 -20.570  0.00  0.00    -0.000 C 
ATOM     31  C   UNL     1      34.085 -19.560 -20.759  0.00  0.00    -0.000 C 
ENDBRANCH  25  26
ENDBRANCH   3  25
TORSDOF 7
ENDMDL
