MODEL 1
REMARK VINA RESULT:     -11.7      0.000      0.000
REMARK  Name = 4369285
REMARK  9 active torsions:
REMARK  status: ('A' for Active; 'I' for Inactive)
REMARK    1  A    between atoms: N_1  and  C_18
REMARK    2  A    between atoms: N_2  and  C_8
REMARK    3  A    between atoms: C_11  and  C_17
REMARK    4  A    between atoms: C_18  and  C_19
REMARK    5  A    between atoms: C_19  and  C_21
REMARK    6  A    between atoms: C_21  and  C_22
REMARK    7  A    between atoms: C_25  and  N_30
REMARK    8  A    between atoms: C_26  and  O_31
REMARK    9  A    between atoms: C_27  and  O_33
REMARK                            x       y       z     vdW  Elec       q    Type
REMARK                         _______ _______ _______ _____ _____    ______ ____
ROOT
ATOM      1  N   UNL     1      34.829 -21.028 -19.302  0.00  0.00    +0.390 N 
ATOM      2  N   UNL     1      34.651 -19.310 -21.577  0.00  0.00    -0.312 N 
ATOM      3  C   UNL     1      33.572 -20.917 -20.053  0.00  0.00    -0.055 C 
ATOM      4  C   UNL     1      35.970 -20.884 -20.214  0.00  0.00    -0.055 C 
ATOM      5  C   UNL     1      33.466 -19.557 -20.749  0.00  0.00    +0.068 C 
ATOM      6  C   UNL     1      35.944 -19.523 -20.916  0.00  0.00    +0.068 C 
ATOM      7  H   UNL     1      34.865 -20.281 -18.608  0.00  0.00    -0.080 HD
ENDROOT
BRANCH   2   8
ATOM      8  C   UNL     1      34.589 -18.371 -22.613  0.00  0.00    +0.048 C 
ATOM      9  C   UNL     1      34.327 -17.012 -22.348  0.00  0.00    +0.018 C 
ATOM     10  C   UNL     1      34.788 -18.758 -23.954  0.00  0.00    +0.015 C 
ATOM     11  C   UNL     1      34.266 -16.078 -23.382  0.00  0.00    +0.073 C 
ATOM     12  C   UNL     1      34.728 -17.823 -24.988  0.00  0.00    +0.001 C 
ATOM     13  C   UNL     1      34.466 -16.483 -24.701  0.00  0.00    +0.004 C 
BRANCH  11  17
ATOM     14  F   UNL     1      34.794 -14.123 -22.106  0.00  0.00    -0.166 F 
ATOM     15  F   UNL     1      34.138 -13.817 -24.151  0.00  0.00    -0.166 F 
ATOM     16  F   UNL     1      32.709 -14.443 -22.636  0.00  0.00    -0.166 F 
ATOM     17  C   UNL     1      33.985 -14.646 -23.077  0.00  0.00    +0.419 C 
ENDBRANCH  11  17
ENDBRANCH   2   8
BRANCH   1  18
ATOM     18  C   UNL     1      34.894 -22.308 -18.598  0.00  0.00    -0.069 C 
BRANCH  18  19
ATOM     19  C   UNL     1      33.501 -22.771 -18.169  0.00  0.00    +0.046 C 
BRANCH  19  21
ATOM     20  O   UNL     1      34.433 -23.044 -15.961  0.00  0.00    -0.291 OA
ATOM     21  C   UNL     1      33.438 -23.090 -16.682  0.00  0.00    +0.171 C 
BRANCH  21  22
ATOM     22  C   UNL     1      32.123 -23.470 -16.085  0.00  0.00    +0.039 C 
ATOM     23  C   UNL     1      30.973 -23.148 -16.767  0.00  0.00    +0.030 C 
ATOM     24  C   UNL     1      32.114 -24.127 -14.876  0.00  0.00    +0.043 C 
ATOM     25  C   UNL     1      29.745 -23.502 -16.208  0.00  0.00    +0.179 C 
ATOM     26  C   UNL     1      30.886 -24.482 -14.318  0.00  0.00    +0.169 C 
ATOM     27  C   UNL     1      29.701 -24.171 -14.985  0.00  0.00    +0.190 C 
BRANCH  25  30
ATOM     28  O   UNL     1      28.230 -21.970 -17.029  0.00  0.00    -0.126 OA
ATOM     29  O   UNL     1      27.844 -24.105 -17.367  0.00  0.00    -0.126 OA
ATOM     30  N   UNL     1      28.546 -23.176 -16.903  0.00  0.00    +0.061 N 
ENDBRANCH  25  30
BRANCH  26  31
ATOM     31  O   UNL     1      30.859 -25.133 -13.122  0.00  0.00    -0.503 OA
ATOM     32  H   UNL     1      30.242 -25.824 -12.977  0.00  0.00    +0.292 HD
ENDBRANCH  26  31
BRANCH  27  33
ATOM     33  O   UNL     1      28.505 -24.522 -14.428  0.00  0.00    -0.502 OA
ATOM     34  H   UNL     1      28.129 -25.359 -14.616  0.00  0.00    +0.292 HD
ENDBRANCH  27  33
ENDBRANCH  21  22
ENDBRANCH  19  21
ENDBRANCH  18  19
ENDBRANCH   1  18
TORSDOF 9
ENDMDL
MODEL 2
REMARK VINA RESULT:     -11.7      3.207      5.115
REMARK  Name = 4369285
REMARK  9 active torsions:
REMARK  status: ('A' for Active; 'I' for Inactive)
REMARK    1  A    between atoms: N_1  and  C_18
REMARK    2  A    between atoms: N_2  and  C_8
REMARK    3  A    between atoms: C_11  and  C_17
REMARK    4  A    between atoms: C_18  and  C_19
REMARK    5  A    between atoms: C_19  and  C_21
REMARK    6  A    between atoms: C_21  and  C_22
REMARK    7  A    between atoms: C_25  and  N_30
REMARK    8  A    between atoms: C_26  and  O_31
REMARK    9  A    between atoms: C_27  and  O_33
REMARK                            x       y       z     vdW  Elec       q    Type
REMARK                         _______ _______ _______ _____ _____    ______ ____
ROOT
ATOM      1  N   UNL     1      33.992 -22.368 -19.088  0.00  0.00    +0.390 N 
ATOM      2  N   UNL     1      34.472 -19.981 -20.582  0.00  0.00    -0.312 N 
ATOM      3  C   UNL     1      35.300 -21.704 -19.028  0.00  0.00    -0.055 C 
ATOM      4  C   UNL     1      32.930 -21.366 -19.248  0.00  0.00    -0.055 C 
ATOM      5  C   UNL     1      35.573 -20.910 -20.309  0.00  0.00    +0.068 C 
ATOM      6  C   UNL     1      33.124 -20.561 -20.536  0.00  0.00    +0.068 C 
ATOM      7  H   UNL     1      33.978 -22.995 -19.893  0.00  0.00    -0.080 HD
ENDROOT
BRANCH   2   8
ATOM      8  C   UNL     1      34.684 -18.879 -21.419  0.00  0.00    +0.048 C 
ATOM      9  C   UNL     1      34.417 -17.569 -20.976  0.00  0.00    +0.018 C 
ATOM     10  C   UNL     1      35.173 -19.048 -22.730  0.00  0.00    +0.015 C 
ATOM     11  C   UNL     1      34.629 -16.471 -21.810  0.00  0.00    +0.073 C 
ATOM     12  C   UNL     1      35.386 -17.951 -23.565  0.00  0.00    +0.001 C 
ATOM     13  C   UNL     1      35.113 -16.662 -23.104  0.00  0.00    +0.004 C 
BRANCH  11  17
ATOM     14  F   UNL     1      33.016 -14.880 -21.041  0.00  0.00    -0.166 F 
ATOM     15  F   UNL     1      35.000 -14.769 -20.171  0.00  0.00    -0.166 F 
ATOM     16  F   UNL     1      34.680 -14.131 -22.225  0.00  0.00    -0.166 F 
ATOM     17  C   UNL     1      34.337 -15.094 -21.320  0.00  0.00    +0.419 C 
ENDBRANCH  11  17
ENDBRANCH   2   8
BRANCH   1  18
ATOM     18  C   UNL     1      33.767 -23.166 -17.884  0.00  0.00    -0.069 C 
BRANCH  18  19
ATOM     19  C   UNL     1      34.809 -22.850 -16.811  0.00  0.00    +0.046 C 
BRANCH  19  21
ATOM     20  O   UNL     1      33.189 -22.952 -15.028  0.00  0.00    -0.291 OA
ATOM     21  C   UNL     1      34.324 -23.219 -15.417  0.00  0.00    +0.171 C 
BRANCH  21  22
ATOM     22  C   UNL     1      35.261 -23.929 -14.496  0.00  0.00    +0.039 C 
ATOM     23  C   UNL     1      36.481 -24.337 -14.984  0.00  0.00    +0.030 C 
ATOM     24  C   UNL     1      34.867 -24.148 -13.196  0.00  0.00    +0.043 C 
ATOM     25  C   UNL     1      37.355 -25.002 -14.124  0.00  0.00    +0.179 C 
ATOM     26  C   UNL     1      35.742 -24.812 -12.336  0.00  0.00    +0.169 C 
ATOM     27  C   UNL     1      36.987 -25.238 -12.800  0.00  0.00    +0.190 C 
BRANCH  25  30
ATOM     28  O   UNL     1      38.883 -26.655 -14.625  0.00  0.00    -0.126 OA
ATOM     29  O   UNL     1      39.434 -24.568 -15.023  0.00  0.00    -0.126 OA
ATOM     30  N   UNL     1      38.620 -25.429 -14.615  0.00  0.00    +0.061 N 
ENDBRANCH  25  30
BRANCH  26  31
ATOM     31  O   UNL     1      35.368 -25.037 -11.045  0.00  0.00    -0.503 OA
ATOM     32  H   UNL     1      35.726 -25.763 -10.574  0.00  0.00    +0.292 HD
ENDBRANCH  26  31
BRANCH  27  33
ATOM     33  O   UNL     1      37.834 -25.888 -11.949  0.00  0.00    -0.502 OA
ATOM     34  H   UNL     1      37.810 -25.702 -11.031  0.00  0.00    +0.292 HD
ENDBRANCH  27  33
ENDBRANCH  21  22
ENDBRANCH  19  21
ENDBRANCH  18  19
ENDBRANCH   1  18
TORSDOF 9
ENDMDL
MODEL 3
REMARK VINA RESULT:     -11.6      2.879      4.435
REMARK  Name = 4369285
REMARK  9 active torsions:
REMARK  status: ('A' for Active; 'I' for Inactive)
REMARK    1  A    between atoms: N_1  and  C_18
REMARK    2  A    between atoms: N_2  and  C_8
REMARK    3  A    between atoms: C_11  and  C_17
REMARK    4  A    between atoms: C_18  and  C_19
REMARK    5  A    between atoms: C_19  and  C_21
REMARK    6  A    between atoms: C_21  and  C_22
REMARK    7  A    between atoms: C_25  and  N_30
REMARK    8  A    between atoms: C_26  and  O_31
REMARK    9  A    between atoms: C_27  and  O_33
REMARK                            x       y       z     vdW  Elec       q    Type
REMARK                         _______ _______ _______ _____ _____    ______ ____
ROOT
ATOM      1  N   UNL     1      34.597 -21.464 -19.279  0.00  0.00    +0.390 N 
ATOM      2  N   UNL     1      34.597 -19.497 -21.350  0.00  0.00    -0.312 N 
ATOM      3  C   UNL     1      33.380 -21.206 -20.059  0.00  0.00    -0.055 C 
ATOM      4  C   UNL     1      35.782 -21.277 -20.126  0.00  0.00    -0.055 C 
ATOM      5  C   UNL     1      33.367 -19.774 -20.601  0.00  0.00    +0.068 C 
ATOM      6  C   UNL     1      35.849 -19.847 -20.669  0.00  0.00    +0.068 C 
ATOM      7  H   UNL     1      34.637 -20.801 -18.504  0.00  0.00    -0.080 HD
ENDROOT
BRANCH   2   8
ATOM      8  C   UNL     1      34.624 -18.447 -22.276  0.00  0.00    +0.048 C 
ATOM      9  C   UNL     1      34.358 -17.121 -21.879  0.00  0.00    +0.018 C 
ATOM     10  C   UNL     1      34.918 -18.685 -23.634  0.00  0.00    +0.015 C 
ATOM     11  C   UNL     1      34.385 -16.076 -22.801  0.00  0.00    +0.073 C 
ATOM     12  C   UNL     1      34.945 -17.639 -24.557  0.00  0.00    +0.001 C 
ATOM     13  C   UNL     1      34.678 -16.335 -24.141  0.00  0.00    +0.004 C 
BRANCH  11  17
ATOM     14  F   UNL     1      34.584 -13.726 -23.206  0.00  0.00    -0.166 F 
ATOM     15  F   UNL     1      32.766 -14.408 -22.238  0.00  0.00    -0.166 F 
ATOM     16  F   UNL     1      34.642 -14.397 -21.138  0.00  0.00    -0.166 F 
ATOM     17  C   UNL     1      34.099 -14.682 -22.358  0.00  0.00    +0.419 C 
ENDBRANCH  11  17
ENDBRANCH   2   8
BRANCH   1  18
ATOM     18  C   UNL     1      34.572 -22.815 -18.722  0.00  0.00    -0.069 C 
BRANCH  18  19
ATOM     19  C   UNL     1      34.220 -22.792 -17.235  0.00  0.00    +0.046 C 
BRANCH  19  21
ATOM     20  O   UNL     1      36.529 -22.294 -16.750  0.00  0.00    -0.291 OA
ATOM     21  C   UNL     1      35.461 -22.755 -16.354  0.00  0.00    +0.171 C 
BRANCH  21  22
ATOM     22  C   UNL     1      35.371 -23.296 -14.965  0.00  0.00    +0.039 C 
ATOM     23  C   UNL     1      36.463 -23.174 -14.138  0.00  0.00    +0.030 C 
ATOM     24  C   UNL     1      34.198 -23.898 -14.568  0.00  0.00    +0.043 C 
ATOM     25  C   UNL     1      36.379 -23.681 -12.842  0.00  0.00    +0.179 C 
ATOM     26  C   UNL     1      34.114 -24.404 -13.271  0.00  0.00    +0.169 C 
ATOM     27  C   UNL     1      35.204 -24.295 -12.408  0.00  0.00    +0.190 C 
BRANCH  25  30
ATOM     28  O   UNL     1      38.097 -22.461 -11.907  0.00  0.00    -0.126 OA
ATOM     29  O   UNL     1      37.860 -24.559 -11.307  0.00  0.00    -0.126 OA
ATOM     30  N   UNL     1      37.501 -23.561 -11.975  0.00  0.00    +0.061 N 
ENDBRANCH  25  30
BRANCH  26  31
ATOM     31  O   UNL     1      32.961 -25.002 -12.861  0.00  0.00    -0.503 OA
ATOM     32  H   UNL     1      32.996 -25.793 -12.359  0.00  0.00    +0.292 HD
ENDBRANCH  26  31
BRANCH  27  33
ATOM     33  O   UNL     1      35.110 -24.796 -11.141  0.00  0.00    -0.502 OA
ATOM     34  H   UNL     1      34.386 -25.341 -10.905  0.00  0.00    +0.292 HD
ENDBRANCH  27  33
ENDBRANCH  21  22
ENDBRANCH  19  21
ENDBRANCH  18  19
ENDBRANCH   1  18
TORSDOF 9
ENDMDL
MODEL 4
REMARK VINA RESULT:     -11.6      3.288      4.986
REMARK  Name = 4369285
REMARK  9 active torsions:
REMARK  status: ('A' for Active; 'I' for Inactive)
REMARK    1  A    between atoms: N_1  and  C_18
REMARK    2  A    between atoms: N_2  and  C_8
REMARK    3  A    between atoms: C_11  and  C_17
REMARK    4  A    between atoms: C_18  and  C_19
REMARK    5  A    between atoms: C_19  and  C_21
REMARK    6  A    between atoms: C_21  and  C_22
REMARK    7  A    between atoms: C_25  and  N_30
REMARK    8  A    between atoms: C_26  and  O_31
REMARK    9  A    between atoms: C_27  and  O_33
REMARK                            x       y       z     vdW  Elec       q    Type
REMARK                         _______ _______ _______ _____ _____    ______ ____
ROOT
ATOM      1  N   UNL     1      33.734 -22.343 -19.183  0.00  0.00    +0.390 N 
ATOM      2  N   UNL     1      34.321 -19.976 -20.671  0.00  0.00    -0.312 N 
ATOM      3  C   UNL     1      35.084 -21.767 -19.161  0.00  0.00    -0.055 C 
ATOM      4  C   UNL     1      32.736 -21.272 -19.299  0.00  0.00    -0.055 C 
ATOM      5  C   UNL     1      35.367 -20.979 -20.442  0.00  0.00    +0.068 C 
ATOM      6  C   UNL     1      32.940 -20.467 -20.585  0.00  0.00    +0.068 C 
ATOM      7  H   UNL     1      33.652 -22.958 -19.992  0.00  0.00    -0.080 HD
ENDROOT
BRANCH   2   8
ATOM      8  C   UNL     1      34.579 -18.882 -21.505  0.00  0.00    +0.048 C 
ATOM      9  C   UNL     1      34.322 -17.565 -21.074  0.00  0.00    +0.018 C 
ATOM     10  C   UNL     1      35.103 -19.065 -22.800  0.00  0.00    +0.015 C 
ATOM     11  C   UNL     1      34.579 -16.475 -21.905  0.00  0.00    +0.073 C 
ATOM     12  C   UNL     1      35.360 -17.974 -23.632  0.00  0.00    +0.001 C 
ATOM     13  C   UNL     1      35.098 -16.680 -23.184  0.00  0.00    +0.004 C 
BRANCH  11  17
ATOM     14  F   UNL     1      32.974 -14.851 -21.191  0.00  0.00    -0.166 F 
ATOM     15  F   UNL     1      34.932 -14.774 -20.261  0.00  0.00    -0.166 F 
ATOM     16  F   UNL     1      34.686 -14.137 -22.326  0.00  0.00    -0.166 F 
ATOM     17  C   UNL     1      34.298 -15.091 -21.429  0.00  0.00    +0.419 C 
ENDBRANCH  11  17
ENDBRANCH   2   8
BRANCH   1  18
ATOM     18  C   UNL     1      33.496 -23.137 -17.979  0.00  0.00    -0.069 C 
BRANCH  18  19
ATOM     19  C   UNL     1      34.584 -22.893 -16.934  0.00  0.00    +0.046 C 
BRANCH  19  21
ATOM     20  O   UNL     1      33.067 -23.203 -15.086  0.00  0.00    -0.291 OA
ATOM     21  C   UNL     1      34.183 -23.407 -15.559  0.00  0.00    +0.171 C 
BRANCH  21  22
ATOM     22  C   UNL     1      35.180 -24.183 -14.764  0.00  0.00    +0.039 C 
ATOM     23  C   UNL     1      35.195 -24.031 -13.397  0.00  0.00    +0.030 C 
ATOM     24  C   UNL     1      36.046 -25.019 -15.430  0.00  0.00    +0.043 C 
ATOM     25  C   UNL     1      36.128 -24.755 -12.655  0.00  0.00    +0.179 C 
ATOM     26  C   UNL     1      36.978 -25.744 -14.688  0.00  0.00    +0.169 C 
ATOM     27  C   UNL     1      37.019 -25.613 -13.300  0.00  0.00    +0.190 C 
BRANCH  25  30
ATOM     28  O   UNL     1      35.215 -25.089 -10.564  0.00  0.00    -0.126 OA
ATOM     29  O   UNL     1      37.116 -24.002 -10.711  0.00  0.00    -0.126 OA
ATOM     30  N   UNL     1      36.154 -24.608 -11.240  0.00  0.00    +0.061 N 
ENDBRANCH  25  30
BRANCH  26  31
ATOM     31  O   UNL     1      37.843 -26.577 -15.332  0.00  0.00    -0.503 OA
ATOM     32  H   UNL     1      37.615 -27.476 -15.468  0.00  0.00    +0.292 HD
ENDBRANCH  26  31
BRANCH  27  33
ATOM     33  O   UNL     1      37.936 -26.326 -12.584  0.00  0.00    -0.502 OA
ATOM     34  H   UNL     1      37.865 -26.378 -11.651  0.00  0.00    +0.292 HD
ENDBRANCH  27  33
ENDBRANCH  21  22
ENDBRANCH  19  21
ENDBRANCH  18  19
ENDBRANCH   1  18
TORSDOF 9
ENDMDL
MODEL 5
REMARK VINA RESULT:     -11.3      3.351      4.920
REMARK  Name = 4369285
REMARK  9 active torsions:
REMARK  status: ('A' for Active; 'I' for Inactive)
REMARK    1  A    between atoms: N_1  and  C_18
REMARK    2  A    between atoms: N_2  and  C_8
REMARK    3  A    between atoms: C_11  and  C_17
REMARK    4  A    between atoms: C_18  and  C_19
REMARK    5  A    between atoms: C_19  and  C_21
REMARK    6  A    between atoms: C_21  and  C_22
REMARK    7  A    between atoms: C_25  and  N_30
REMARK    8  A    between atoms: C_26  and  O_31
REMARK    9  A    between atoms: C_27  and  O_33
REMARK                            x       y       z     vdW  Elec       q    Type
REMARK                         _______ _______ _______ _____ _____    ______ ____
ROOT
ATOM      1  N   UNL     1      34.679 -21.521 -18.902  0.00  0.00    +0.390 N 
ATOM      2  N   UNL     1      34.625 -19.801 -21.181  0.00  0.00    -0.312 N 
ATOM      3  C   UNL     1      33.457 -21.390 -19.705  0.00  0.00    -0.055 C 
ATOM      4  C   UNL     1      35.860 -21.395 -19.765  0.00  0.00    -0.055 C 
ATOM      5  C   UNL     1      33.402 -20.029 -20.404  0.00  0.00    +0.068 C 
ATOM      6  C   UNL     1      35.886 -20.035 -20.466  0.00  0.00    +0.068 C 
ATOM      7  H   UNL     1      34.698 -20.775 -18.207  0.00  0.00    -0.080 HD
ENDROOT
BRANCH   2   8
ATOM      8  C   UNL     1      34.623 -18.862 -22.219  0.00  0.00    +0.048 C 
ATOM      9  C   UNL     1      34.406 -17.493 -21.960  0.00  0.00    +0.018 C 
ATOM     10  C   UNL     1      34.837 -19.257 -23.555  0.00  0.00    +0.015 C 
ATOM     11  C   UNL     1      34.404 -16.558 -22.995  0.00  0.00    +0.073 C 
ATOM     12  C   UNL     1      34.836 -18.321 -24.590  0.00  0.00    +0.001 C 
ATOM     13  C   UNL     1      34.619 -16.972 -24.310  0.00  0.00    +0.004 C 
BRANCH  11  17
ATOM     14  F   UNL     1      32.855 -14.803 -22.503  0.00  0.00    -0.166 F 
ATOM     15  F   UNL     1      34.810 -14.679 -21.572  0.00  0.00    -0.166 F 
ATOM     16  F   UNL     1      34.598 -14.297 -23.702  0.00  0.00    -0.166 F 
ATOM     17  C   UNL     1      34.171 -15.116 -22.697  0.00  0.00    +0.419 C 
ENDBRANCH  11  17
ENDBRANCH   2   8
BRANCH   1  18
ATOM     18  C   UNL     1      34.693 -22.802 -18.196  0.00  0.00    -0.069 C 
BRANCH  18  19
ATOM     19  C   UNL     1      35.436 -22.688 -16.865  0.00  0.00    +0.046 C 
BRANCH  19  21
ATOM     20  O   UNL     1      33.524 -23.567 -15.687  0.00  0.00    -0.291 OA
ATOM     21  C   UNL     1      34.748 -23.473 -15.757  0.00  0.00    +0.171 C 
BRANCH  21  22
ATOM     22  C   UNL     1      35.591 -24.148 -14.726  0.00  0.00    +0.039 C 
ATOM     23  C   UNL     1      35.748 -23.540 -13.502  0.00  0.00    +0.030 C 
ATOM     24  C   UNL     1      36.177 -25.352 -15.041  0.00  0.00    +0.043 C 
ATOM     25  C   UNL     1      36.536 -24.170 -12.540  0.00  0.00    +0.179 C 
ATOM     26  C   UNL     1      36.965 -25.983 -14.078  0.00  0.00    +0.169 C 
ATOM     27  C   UNL     1      37.144 -25.392 -12.827  0.00  0.00    +0.190 C 
BRANCH  25  30
ATOM     28  O   UNL     1      36.270 -24.135 -10.250  0.00  0.00    -0.126 OA
ATOM     29  O   UNL     1      37.289 -22.444 -11.208  0.00  0.00    -0.126 OA
ATOM     30  N   UNL     1      36.707 -23.552 -11.270  0.00  0.00    +0.061 N 
ENDBRANCH  25  30
BRANCH  26  31
ATOM     31  O   UNL     1      37.554 -27.176 -14.373  0.00  0.00    -0.503 OA
ATOM     32  H   UNL     1      37.693 -27.422 -15.266  0.00  0.00    +0.292 HD
ENDBRANCH  26  31
BRANCH  27  33
ATOM     33  O   UNL     1      37.918 -26.018 -11.893  0.00  0.00    -0.502 OA
ATOM     34  H   UNL     1      38.852 -25.975 -11.953  0.00  0.00    +0.292 HD
ENDBRANCH  27  33
ENDBRANCH  21  22
ENDBRANCH  19  21
ENDBRANCH  18  19
ENDBRANCH   1  18
TORSDOF 9
ENDMDL
MODEL 6
REMARK VINA RESULT:     -11.1      6.091     10.176
REMARK  Name = 4369285
REMARK  9 active torsions:
REMARK  status: ('A' for Active; 'I' for Inactive)
REMARK    1  A    between atoms: N_1  and  C_18
REMARK    2  A    between atoms: N_2  and  C_8
REMARK    3  A    between atoms: C_11  and  C_17
REMARK    4  A    between atoms: C_18  and  C_19
REMARK    5  A    between atoms: C_19  and  C_21
REMARK    6  A    between atoms: C_21  and  C_22
REMARK    7  A    between atoms: C_25  and  N_30
REMARK    8  A    between atoms: C_26  and  O_31
REMARK    9  A    between atoms: C_27  and  O_33
REMARK                            x       y       z     vdW  Elec       q    Type
REMARK                         _______ _______ _______ _____ _____    ______ ____
ROOT
ATOM      1  N   UNL     1      35.701 -22.140 -18.755  0.00  0.00    +0.390 N 
ATOM      2  N   UNL     1      33.810 -22.978 -16.785  0.00  0.00    -0.312 N 
ATOM      3  C   UNL     1      34.266 -21.902 -18.954  0.00  0.00    -0.055 C 
ATOM      4  C   UNL     1      36.028 -22.051 -17.327  0.00  0.00    -0.055 C 
ATOM      5  C   UNL     1      33.427 -22.938 -18.201  0.00  0.00    +0.068 C 
ATOM      6  C   UNL     1      35.249 -23.092 -16.519  0.00  0.00    +0.068 C 
ATOM      7  H   UNL     1      35.928 -23.076 -19.088  0.00  0.00    -0.080 HD
ENDROOT
BRANCH   2   8
ATOM      8  C   UNL     1      32.922 -23.508 -15.841  0.00  0.00    +0.048 C 
ATOM      9  C   UNL     1      31.536 -23.548 -16.089  0.00  0.00    +0.018 C 
ATOM     10  C   UNL     1      33.390 -24.018 -14.613  0.00  0.00    +0.015 C 
ATOM     11  C   UNL     1      30.653 -24.076 -15.148  0.00  0.00    +0.073 C 
ATOM     12  C   UNL     1      32.506 -24.547 -13.671  0.00  0.00    +0.001 C 
ATOM     13  C   UNL     1      31.138 -24.575 -13.939  0.00  0.00    +0.004 C 
BRANCH  11  17
ATOM     14  F   UNL     1      28.491 -24.957 -14.624  0.00  0.00    -0.166 F 
ATOM     15  F   UNL     1      28.578 -22.893 -15.285  0.00  0.00    -0.166 F 
ATOM     16  F   UNL     1      28.911 -24.503 -16.709  0.00  0.00    -0.166 F 
ATOM     17  C   UNL     1      29.190 -24.105 -15.433  0.00  0.00    +0.419 C 
ENDBRANCH  11  17
ENDBRANCH   2   8
BRANCH   1  18
ATOM     18  C   UNL     1      36.490 -21.178 -19.523  0.00  0.00    -0.069 C 
BRANCH  18  19
ATOM     19  C   UNL     1      35.592 -20.299 -20.394  0.00  0.00    +0.046 C 
BRANCH  19  21
ATOM     20  O   UNL     1      37.592 -19.103 -21.016  0.00  0.00    -0.291 OA
ATOM     21  C   UNL     1      36.364 -19.159 -21.042  0.00  0.00    +0.171 C 
BRANCH  21  22
ATOM     22  C   UNL     1      35.600 -18.076 -21.731  0.00  0.00    +0.039 C 
ATOM     23  C   UNL     1      35.364 -18.193 -23.081  0.00  0.00    +0.030 C 
ATOM     24  C   UNL     1      35.163 -17.004 -20.988  0.00  0.00    +0.043 C 
ATOM     25  C   UNL     1      34.652 -17.181 -23.724  0.00  0.00    +0.179 C 
ATOM     26  C   UNL     1      34.450 -15.992 -21.630  0.00  0.00    +0.169 C 
ATOM     27  C   UNL     1      34.193 -16.081 -22.998  0.00  0.00    +0.190 C 
BRANCH  25  30
ATOM     28  O   UNL     1      33.899 -18.349 -25.564  0.00  0.00    -0.126 OA
ATOM     29  O   UNL     1      34.684 -16.321 -25.864  0.00  0.00    -0.126 OA
ATOM     30  N   UNL     1      34.399 -17.289 -25.120  0.00  0.00    +0.061 N 
ENDBRANCH  25  30
BRANCH  26  31
ATOM     31  O   UNL     1      34.010 -14.923 -20.910  0.00  0.00    -0.503 OA
ATOM     32  H   UNL     1      34.194 -14.052 -21.204  0.00  0.00    +0.292 HD
ENDBRANCH  26  31
BRANCH  27  33
ATOM     33  O   UNL     1      33.496 -15.084 -23.617  0.00  0.00    -0.502 OA
ATOM     34  H   UNL     1      32.948 -14.513 -23.115  0.00  0.00    +0.292 HD
ENDBRANCH  27  33
ENDBRANCH  21  22
ENDBRANCH  19  21
ENDBRANCH  18  19
ENDBRANCH   1  18
TORSDOF 9
ENDMDL
MODEL 7
REMARK VINA RESULT:     -10.9      6.028     10.133
REMARK  Name = 4369285
REMARK  9 active torsions:
REMARK  status: ('A' for Active; 'I' for Inactive)
REMARK    1  A    between atoms: N_1  and  C_18
REMARK    2  A    between atoms: N_2  and  C_8
REMARK    3  A    between atoms: C_11  and  C_17
REMARK    4  A    between atoms: C_18  and  C_19
REMARK    5  A    between atoms: C_19  and  C_21
REMARK    6  A    between atoms: C_21  and  C_22
REMARK    7  A    between atoms: C_25  and  N_30
REMARK    8  A    between atoms: C_26  and  O_31
REMARK    9  A    between atoms: C_27  and  O_33
REMARK                            x       y       z     vdW  Elec       q    Type
REMARK                         _______ _______ _______ _____ _____    ______ ____
ROOT
ATOM      1  N   UNL     1      35.702 -22.090 -18.801  0.00  0.00    +0.390 N 
ATOM      2  N   UNL     1      33.828 -22.953 -16.825  0.00  0.00    -0.312 N 
ATOM      3  C   UNL     1      34.265 -21.860 -18.989  0.00  0.00    -0.055 C 
ATOM      4  C   UNL     1      36.038 -22.009 -17.373  0.00  0.00    -0.055 C 
ATOM      5  C   UNL     1      33.437 -22.905 -18.238  0.00  0.00    +0.068 C 
ATOM      6  C   UNL     1      35.269 -23.060 -16.568  0.00  0.00    +0.068 C 
ATOM      7  H   UNL     1      35.934 -23.024 -19.141  0.00  0.00    -0.080 HD
ENDROOT
BRANCH   2   8
ATOM      8  C   UNL     1      32.949 -23.493 -15.879  0.00  0.00    +0.048 C 
ATOM      9  C   UNL     1      31.560 -23.526 -16.113  0.00  0.00    +0.018 C 
ATOM     10  C   UNL     1      33.428 -24.022 -14.663  0.00  0.00    +0.015 C 
ATOM     11  C   UNL     1      30.685 -24.065 -15.170  0.00  0.00    +0.073 C 
ATOM     12  C   UNL     1      32.553 -24.561 -13.720  0.00  0.00    +0.001 C 
ATOM     13  C   UNL     1      31.182 -24.582 -13.974  0.00  0.00    +0.004 C 
BRANCH  11  17
ATOM     14  F   UNL     1      28.522 -24.922 -14.612  0.00  0.00    -0.166 F 
ATOM     15  F   UNL     1      28.619 -22.868 -15.303  0.00  0.00    -0.166 F 
ATOM     16  F   UNL     1      28.924 -24.500 -16.708  0.00  0.00    -0.166 F 
ATOM     17  C   UNL     1      29.219 -24.087 -15.440  0.00  0.00    +0.419 C 
ENDBRANCH  11  17
ENDBRANCH   2   8
BRANCH   1  18
ATOM     18  C   UNL     1      36.482 -21.119 -19.566  0.00  0.00    -0.069 C 
BRANCH  18  19
ATOM     19  C   UNL     1      35.583 -20.295 -20.488  0.00  0.00    +0.046 C 
BRANCH  19  21
ATOM     20  O   UNL     1      37.565 -19.056 -21.080  0.00  0.00    -0.291 OA
ATOM     21  C   UNL     1      36.344 -19.170 -21.174  0.00  0.00    +0.171 C 
BRANCH  21  22
ATOM     22  C   UNL     1      35.580 -18.178 -21.987  0.00  0.00    +0.039 C 
ATOM     23  C   UNL     1      34.916 -17.164 -21.335  0.00  0.00    +0.030 C 
ATOM     24  C   UNL     1      35.569 -18.317 -23.356  0.00  0.00    +0.043 C 
ATOM     25  C   UNL     1      34.201 -16.239 -22.095  0.00  0.00    +0.179 C 
ATOM     26  C   UNL     1      34.855 -17.390 -24.115  0.00  0.00    +0.169 C 
ATOM     27  C   UNL     1      34.172 -16.351 -23.485  0.00  0.00    +0.190 C 
BRANCH  25  30
ATOM     28  O   UNL     1      34.128 -14.490 -20.594  0.00  0.00    -0.126 OA
ATOM     29  O   UNL     1      32.305 -14.982 -21.713  0.00  0.00    -0.126 OA
ATOM     30  N   UNL     1      33.511 -15.185 -21.434  0.00  0.00    +0.061 N 
ENDBRANCH  25  30
BRANCH  26  31
ATOM     31  O   UNL     1      34.834 -17.513 -25.472  0.00  0.00    -0.503 OA
ATOM     32  H   UNL     1      35.162 -16.820 -26.011  0.00  0.00    +0.292 HD
ENDBRANCH  26  31
BRANCH  27  33
ATOM     33  O   UNL     1      33.475 -15.451 -24.238  0.00  0.00    -0.502 OA
ATOM     34  H   UNL     1      33.633 -15.388 -25.160  0.00  0.00    +0.292 HD
ENDBRANCH  27  33
ENDBRANCH  21  22
ENDBRANCH  19  21
ENDBRANCH  18  19
ENDBRANCH   1  18
TORSDOF 9
ENDMDL
MODEL 8
REMARK VINA RESULT:     -10.8      2.284      3.596
REMARK  Name = 4369285
REMARK  9 active torsions:
REMARK  status: ('A' for Active; 'I' for Inactive)
REMARK    1  A    between atoms: N_1  and  C_18
REMARK    2  A    between atoms: N_2  and  C_8
REMARK    3  A    between atoms: C_11  and  C_17
REMARK    4  A    between atoms: C_18  and  C_19
REMARK    5  A    between atoms: C_19  and  C_21
REMARK    6  A    between atoms: C_21  and  C_22
REMARK    7  A    between atoms: C_25  and  N_30
REMARK    8  A    between atoms: C_26  and  O_31
REMARK    9  A    between atoms: C_27  and  O_33
REMARK                            x       y       z     vdW  Elec       q    Type
REMARK                         _______ _______ _______ _____ _____    ______ ____
ROOT
ATOM      1  N   UNL     1      34.863 -21.256 -19.973  0.00  0.00    +0.390 N 
ATOM      2  N   UNL     1      34.681 -18.894 -21.570  0.00  0.00    -0.312 N 
ATOM      3  C   UNL     1      35.986 -20.313 -20.036  0.00  0.00    -0.055 C 
ATOM      4  C   UNL     1      33.593 -20.526 -20.078  0.00  0.00    -0.055 C 
ATOM      5  C   UNL     1      35.981 -19.538 -21.357  0.00  0.00    +0.068 C 
ATOM      6  C   UNL     1      33.507 -19.759 -21.400  0.00  0.00    +0.068 C 
ATOM      7  H   UNL     1      34.935 -21.906 -20.755  0.00  0.00    -0.080 HD
ENDROOT
BRANCH   2   8
ATOM      8  C   UNL     1      34.579 -17.812 -22.453  0.00  0.00    +0.048 C 
ATOM      9  C   UNL     1      34.104 -16.560 -22.015  0.00  0.00    +0.018 C 
ATOM     10  C   UNL     1      34.947 -17.944 -23.806  0.00  0.00    +0.015 C 
ATOM     11  C   UNL     1      34.002 -15.483 -22.895  0.00  0.00    +0.073 C 
ATOM     12  C   UNL     1      34.846 -16.867 -24.687  0.00  0.00    +0.001 C 
ATOM     13  C   UNL     1      34.373 -15.636 -24.231  0.00  0.00    +0.004 C 
BRANCH  11  17
ATOM     14  F   UNL     1      33.652 -13.983 -21.064  0.00  0.00    -0.166 F 
ATOM     15  F   UNL     1      34.110 -13.095 -22.989  0.00  0.00    -0.166 F 
ATOM     16  F   UNL     1      32.162 -13.998 -22.648  0.00  0.00    -0.166 F 
ATOM     17  C   UNL     1      33.495 -14.168 -22.409  0.00  0.00    +0.419 C 
ENDBRANCH  11  17
ENDBRANCH   2   8
BRANCH   1  18
ATOM     18  C   UNL     1      34.910 -22.027 -18.732  0.00  0.00    -0.069 C 
BRANCH  18  19
ATOM     19  C   UNL     1      33.810 -23.089 -18.702  0.00  0.00    +0.046 C 
BRANCH  19  21
ATOM     20  O   UNL     1      31.772 -22.362 -17.638  0.00  0.00    -0.291 OA
ATOM     21  C   UNL     1      32.869 -22.904 -17.520  0.00  0.00    +0.171 C 
BRANCH  21  22
ATOM     22  C   UNL     1      33.297 -23.398 -16.178  0.00  0.00    +0.039 C 
ATOM     23  C   UNL     1      34.427 -24.178 -16.093  0.00  0.00    +0.030 C 
ATOM     24  C   UNL     1      32.545 -23.053 -15.079  0.00  0.00    +0.043 C 
ATOM     25  C   UNL     1      34.825 -24.641 -14.839  0.00  0.00    +0.179 C 
ATOM     26  C   UNL     1      32.944 -23.515 -13.825  0.00  0.00    +0.169 C 
ATOM     27  C   UNL     1      34.085 -24.308 -13.704  0.00  0.00    +0.190 C 
BRANCH  25  30
ATOM     28  O   UNL     1      36.912 -25.087 -13.965  0.00  0.00    -0.126 OA
ATOM     29  O   UNL     1      36.065 -26.497 -15.418  0.00  0.00    -0.126 OA
ATOM     30  N   UNL     1      35.992 -25.449 -14.736  0.00  0.00    +0.061 N 
ENDBRANCH  25  30
BRANCH  26  31
ATOM     31  O   UNL     1      32.210 -23.183 -12.726  0.00  0.00    -0.503 OA
ATOM     32  H   UNL     1      32.206 -22.299 -12.414  0.00  0.00    +0.292 HD
ENDBRANCH  26  31
BRANCH  27  33
ATOM     33  O   UNL     1      34.465 -24.755 -12.472  0.00  0.00    -0.502 OA
ATOM     34  H   UNL     1      34.988 -25.529 -12.395  0.00  0.00    +0.292 HD
ENDBRANCH  27  33
ENDBRANCH  21  22
ENDBRANCH  19  21
ENDBRANCH  18  19
ENDBRANCH   1  18
TORSDOF 9
ENDMDL
MODEL 9
REMARK VINA RESULT:     -10.7      6.769     10.896
REMARK  Name = 4369285
REMARK  9 active torsions:
REMARK  status: ('A' for Active; 'I' for Inactive)
REMARK    1  A    between atoms: N_1  and  C_18
REMARK    2  A    between atoms: N_2  and  C_8
REMARK    3  A    between atoms: C_11  and  C_17
REMARK    4  A    between atoms: C_18  and  C_19
REMARK    5  A    between atoms: C_19  and  C_21
REMARK    6  A    between atoms: C_21  and  C_22
REMARK    7  A    between atoms: C_25  and  N_30
REMARK    8  A    between atoms: C_26  and  O_31
REMARK    9  A    between atoms: C_27  and  O_33
REMARK                            x       y       z     vdW  Elec       q    Type
REMARK                         _______ _______ _______ _____ _____    ______ ____
ROOT
ATOM      1  N   UNL     1      35.532 -21.467 -18.895  0.00  0.00    +0.390 N 
ATOM      2  N   UNL     1      35.716 -22.859 -16.407  0.00  0.00    -0.312 N 
ATOM      3  C   UNL     1      36.835 -21.667 -18.250  0.00  0.00    -0.055 C 
ATOM      4  C   UNL     1      34.657 -22.614 -18.619  0.00  0.00    -0.055 C 
ATOM      5  C   UNL     1      36.683 -21.805 -16.733  0.00  0.00    +0.068 C 
ATOM      6  C   UNL     1      34.432 -22.784 -17.114  0.00  0.00    +0.068 C 
ATOM      7  H   UNL     1      35.101 -20.625 -18.512  0.00  0.00    -0.080 HD
ENDROOT
BRANCH   2   8
ATOM      8  C   UNL     1      35.734 -23.450 -15.138  0.00  0.00    +0.048 C 
ATOM      9  C   UNL     1      36.947 -23.840 -14.536  0.00  0.00    +0.018 C 
ATOM     10  C   UNL     1      34.539 -23.672 -14.425  0.00  0.00    +0.015 C 
ATOM     11  C   UNL     1      36.964 -24.429 -13.272  0.00  0.00    +0.073 C 
ATOM     12  C   UNL     1      34.556 -24.260 -13.160  0.00  0.00    +0.001 C 
ATOM     13  C   UNL     1      35.769 -24.639 -12.584  0.00  0.00    +0.004 C 
BRANCH  11  17
ATOM     14  F   UNL     1      38.726 -23.949 -11.726  0.00  0.00    -0.166 F 
ATOM     15  F   UNL     1      38.205 -26.036 -12.007  0.00  0.00    -0.166 F 
ATOM     16  F   UNL     1      39.261 -24.962 -13.575  0.00  0.00    -0.166 F 
ATOM     17  C   UNL     1      38.259 -24.835 -12.656  0.00  0.00    +0.419 C 
ENDBRANCH  11  17
ENDBRANCH   2   8
BRANCH   1  18
ATOM     18  C   UNL     1      35.695 -21.282 -20.335  0.00  0.00    -0.069 C 
BRANCH  18  19
ATOM     19  C   UNL     1      35.827 -19.800 -20.689  0.00  0.00    +0.046 C 
BRANCH  19  21
ATOM     20  O   UNL     1      33.513 -19.901 -21.358  0.00  0.00    -0.291 OA
ATOM     21  C   UNL     1      34.546 -19.239 -21.288  0.00  0.00    +0.171 C 
BRANCH  21  22
ATOM     22  C   UNL     1      34.550 -17.838 -21.805  0.00  0.00    +0.039 C 
ATOM     23  C   UNL     1      34.376 -17.634 -23.155  0.00  0.00    +0.030 C 
ATOM     24  C   UNL     1      34.728 -16.807 -20.912  0.00  0.00    +0.043 C 
ATOM     25  C   UNL     1      34.381 -16.326 -23.638  0.00  0.00    +0.179 C 
ATOM     26  C   UNL     1      34.732 -15.498 -21.395  0.00  0.00    +0.169 C 
ATOM     27  C   UNL     1      34.558 -15.258 -22.758  0.00  0.00    +0.190 C 
BRANCH  25  30
ATOM     28  O   UNL     1      34.898 -16.750 -25.844  0.00  0.00    -0.126 OA
ATOM     29  O   UNL     1      33.352 -15.256 -25.403  0.00  0.00    -0.126 OA
ATOM     30  N   UNL     1      34.201 -16.100 -25.031  0.00  0.00    +0.061 N 
ENDBRANCH  25  30
BRANCH  26  31
ATOM     31  O   UNL     1      34.907 -14.465 -20.525  0.00  0.00    -0.503 OA
ATOM     32  H   UNL     1      35.706 -14.391 -20.039  0.00  0.00    +0.292 HD
ENDBRANCH  26  31
BRANCH  27  33
ATOM     33  O   UNL     1      34.564 -13.973 -23.220  0.00  0.00    -0.502 OA
ATOM     34  H   UNL     1      33.932 -13.358 -22.904  0.00  0.00    +0.292 HD
ENDBRANCH  27  33
ENDBRANCH  21  22
ENDBRANCH  19  21
ENDBRANCH  18  19
ENDBRANCH   1  18
TORSDOF 9
ENDMDL
