MODEL 1
REMARK VINA RESULT:      -7.1      0.000      0.000
REMARK  Name = 6961
REMARK  8 active torsions:
REMARK  status: ('A' for Active; 'I' for Inactive)
REMARK    1  A    between atoms: C_1  and  C_8
REMARK    2  A    between atoms: C_2  and  C_12
REMARK    3  A    between atoms: C_3  and  C_16
REMARK    4  A    between atoms: C_4  and  C_20
REMARK    5  A    between atoms: C_8  and  O_9
REMARK    6  A    between atoms: C_12  and  O_13
REMARK    7  A    between atoms: C_16  and  O_17
REMARK    8  A    between atoms: C_20  and  O_21
REMARK                            x       y       z     vdW  Elec       q    Type
REMARK                         _______ _______ _______ _____ _____    ______ ____
ROOT
ATOM      1  C   UNL     1      31.615 -23.714 -14.679  0.00  0.00    +0.082 C 
ATOM      2  C   UNL     1      30.976 -23.319 -15.854  0.00  0.00    +0.082 C 
ATOM      3  C   UNL     1      33.754 -23.559 -15.791  0.00  0.00    +0.082 C 
ATOM      4  C   UNL     1      33.115 -23.164 -16.965  0.00  0.00    +0.082 C 
ATOM      5  C   UNL     1      33.004 -23.834 -14.647  0.00  0.00    +0.013 C 
ATOM      6  C   UNL     1      31.725 -23.044 -16.997  0.00  0.00    +0.013 C 
ENDROOT
BRANCH   1   8
ATOM      7  O   UNL     1      30.827 -23.299 -12.458  0.00  0.00    -0.245 OA
ATOM      8  C   UNL     1      30.859 -24.008 -13.468  0.00  0.00    +0.338 C 
BRANCH   8   9
ATOM      9  O   UNL     1      30.171 -25.178 -13.557  0.00  0.00    -0.477 OA
ATOM     10  H   UNL     1      30.426 -25.824 -14.187  0.00  0.00    +0.295 HD
ENDBRANCH   8   9
ENDBRANCH   1   8
BRANCH   2  12
ATOM     11  O   UNL     1      28.895 -22.149 -15.694  0.00  0.00    -0.245 OA
ATOM     12  C   UNL     1      29.526 -23.184 -15.919  0.00  0.00    +0.338 C 
BRANCH  12  13
ATOM     13  O   UNL     1      28.913 -24.349 -16.265  0.00  0.00    -0.477 OA
ATOM     14  H   UNL     1      27.980 -24.382 -16.343  0.00  0.00    +0.295 HD
ENDBRANCH  12  13
ENDBRANCH   2  12
BRANCH   3  16
ATOM     15  O   UNL     1      35.826 -24.754 -15.798  0.00  0.00    -0.245 OA
ATOM     16  C   UNL     1      35.204 -23.692 -15.725  0.00  0.00    +0.338 C 
BRANCH  16  17
ATOM     17  O   UNL     1      35.827 -22.493 -15.573  0.00  0.00    -0.477 OA
ATOM     18  H   UNL     1      36.139 -22.230 -14.730  0.00  0.00    +0.295 HD
ENDBRANCH  16  17
ENDBRANCH   3  16
BRANCH   4  20
ATOM     19  O   UNL     1      34.505 -21.831 -18.386  0.00  0.00    -0.245 OA
ATOM     20  C   UNL     1      33.870 -22.869 -18.177  0.00  0.00    +0.338 C 
BRANCH  20  21
ATOM     21  O   UNL     1      33.807 -23.878 -19.084  0.00  0.00    -0.477 OA
ATOM     22  H   UNL     1      33.756 -23.684 -20.000  0.00  0.00    +0.295 HD
ENDBRANCH  20  21
ENDBRANCH   4  20
TORSDOF 8
ENDMDL
MODEL 2
REMARK VINA RESULT:      -7.1      0.028      4.857
REMARK  Name = 6961
REMARK  8 active torsions:
REMARK  status: ('A' for Active; 'I' for Inactive)
REMARK    1  A    between atoms: C_1  and  C_8
REMARK    2  A    between atoms: C_2  and  C_12
REMARK    3  A    between atoms: C_3  and  C_16
REMARK    4  A    between atoms: C_4  and  C_20
REMARK    5  A    between atoms: C_8  and  O_9
REMARK    6  A    between atoms: C_12  and  O_13
REMARK    7  A    between atoms: C_16  and  O_17
REMARK    8  A    between atoms: C_20  and  O_21
REMARK                            x       y       z     vdW  Elec       q    Type
REMARK                         _______ _______ _______ _____ _____    ______ ____
ROOT
ATOM      1  C   UNL     1      33.739 -23.559 -15.805  0.00  0.00    +0.082 C 
ATOM      2  C   UNL     1      33.093 -23.166 -16.976  0.00  0.00    +0.082 C 
ATOM      3  C   UNL     1      31.607 -23.711 -14.679  0.00  0.00    +0.082 C 
ATOM      4  C   UNL     1      30.960 -23.318 -15.851  0.00  0.00    +0.082 C 
ATOM      5  C   UNL     1      32.996 -23.832 -14.656  0.00  0.00    +0.013 C 
ATOM      6  C   UNL     1      31.703 -23.045 -16.999  0.00  0.00    +0.013 C 
ENDROOT
BRANCH   1   8
ATOM      7  O   UNL     1      35.808 -24.761 -15.812  0.00  0.00    -0.245 OA
ATOM      8  C   UNL     1      35.189 -23.695 -15.749  0.00  0.00    +0.338 C 
BRANCH   8   9
ATOM      9  O   UNL     1      35.817 -22.496 -15.616  0.00  0.00    -0.477 OA
ATOM     10  H   UNL     1      36.698 -22.462 -15.296  0.00  0.00    +0.295 HD
ENDBRANCH   8   9
ENDBRANCH   1   8
BRANCH   2  12
ATOM     11  O   UNL     1      34.444 -21.824 -18.424  0.00  0.00    -0.245 OA
ATOM     12  C   UNL     1      33.840 -22.874 -18.193  0.00  0.00    +0.338 C 
BRANCH  12  13
ATOM     13  O   UNL     1      33.808 -23.905 -19.080  0.00  0.00    -0.477 OA
ATOM     14  H   UNL     1      33.556 -23.752 -19.968  0.00  0.00    +0.295 HD
ENDBRANCH  12  13
ENDBRANCH   2  12
BRANCH   3  16
ATOM     15  O   UNL     1      30.834 -23.295 -12.454  0.00  0.00    -0.245 OA
ATOM     16  C   UNL     1      30.859 -24.003 -13.463  0.00  0.00    +0.338 C 
BRANCH  16  17
ATOM     17  O   UNL     1      30.166 -25.171 -13.551  0.00  0.00    -0.477 OA
ATOM     18  H   UNL     1      29.905 -25.499 -14.388  0.00  0.00    +0.295 HD
ENDBRANCH  16  17
ENDBRANCH   3  16
BRANCH   4  20
ATOM     19  O   UNL     1      28.882 -22.145 -15.679  0.00  0.00    -0.245 OA
ATOM     20  C   UNL     1      29.510 -23.182 -15.907  0.00  0.00    +0.338 C 
BRANCH  20  21
ATOM     21  O   UNL     1      28.895 -24.346 -16.246  0.00  0.00    -0.477 OA
ATOM     22  H   UNL     1      28.359 -24.387 -17.014  0.00  0.00    +0.295 HD
ENDBRANCH  20  21
ENDBRANCH   4  20
TORSDOF 8
ENDMDL
MODEL 3
REMARK VINA RESULT:      -7.1      0.038      5.689
REMARK  Name = 6961
REMARK  8 active torsions:
REMARK  status: ('A' for Active; 'I' for Inactive)
REMARK    1  A    between atoms: C_1  and  C_8
REMARK    2  A    between atoms: C_2  and  C_12
REMARK    3  A    between atoms: C_3  and  C_16
REMARK    4  A    between atoms: C_4  and  C_20
REMARK    5  A    between atoms: C_8  and  O_9
REMARK    6  A    between atoms: C_12  and  O_13
REMARK    7  A    between atoms: C_16  and  O_17
REMARK    8  A    between atoms: C_20  and  O_21
REMARK                            x       y       z     vdW  Elec       q    Type
REMARK                         _______ _______ _______ _____ _____    ______ ____
ROOT
ATOM      1  C   UNL     1      33.140 -23.160 -16.977  0.00  0.00    +0.082 C 
ATOM      2  C   UNL     1      33.770 -23.550 -15.796  0.00  0.00    +0.082 C 
ATOM      3  C   UNL     1      30.992 -23.321 -15.883  0.00  0.00    +0.082 C 
ATOM      4  C   UNL     1      31.622 -23.711 -14.702  0.00  0.00    +0.082 C 
ATOM      5  C   UNL     1      31.750 -23.045 -17.021  0.00  0.00    +0.013 C 
ATOM      6  C   UNL     1      33.011 -23.826 -14.658  0.00  0.00    +0.013 C 
ENDROOT
BRANCH   1   8
ATOM      7  O   UNL     1      34.566 -21.841 -18.374  0.00  0.00    -0.245 OA
ATOM      8  C   UNL     1      33.904 -22.865 -18.182  0.00  0.00    +0.338 C 
BRANCH   8   9
ATOM      9  O   UNL     1      33.817 -23.857 -19.107  0.00  0.00    -0.477 OA
ATOM     10  H   UNL     1      33.979 -24.747 -18.857  0.00  0.00    +0.295 HD
ENDBRANCH   8   9
ENDBRANCH   1   8
BRANCH   2  12
ATOM     11  O   UNL     1      35.846 -24.738 -15.794  0.00  0.00    -0.245 OA
ATOM     12  C   UNL     1      35.220 -23.678 -15.717  0.00  0.00    +0.338 C 
BRANCH  12  13
ATOM     13  O   UNL     1      35.838 -22.478 -15.547  0.00  0.00    -0.477 OA
ATOM     14  H   UNL     1      36.419 -22.349 -14.824  0.00  0.00    +0.295 HD
ENDBRANCH  12  13
ENDBRANCH   2  12
BRANCH   3  16
ATOM     15  O   UNL     1      28.905 -22.159 -15.738  0.00  0.00    -0.245 OA
ATOM     16  C   UNL     1      29.542 -23.191 -15.961  0.00  0.00    +0.338 C 
BRANCH  16  17
ATOM     17  O   UNL     1      28.937 -24.357 -16.319  0.00  0.00    -0.477 OA
ATOM     18  H   UNL     1      29.451 -25.126 -16.466  0.00  0.00    +0.295 HD
ENDBRANCH  16  17
ENDBRANCH   3  16
BRANCH   4  20
ATOM     19  O   UNL     1      30.841 -23.312 -12.475  0.00  0.00    -0.245 OA
ATOM     20  C   UNL     1      30.857 -24.005 -13.497  0.00  0.00    +0.338 C 
BRANCH  20  21
ATOM     21  O   UNL     1      30.139 -25.154 -13.607  0.00  0.00    -0.477 OA
ATOM     22  H   UNL     1      29.481 -25.233 -14.270  0.00  0.00    +0.295 HD
ENDBRANCH  20  21
ENDBRANCH   4  20
TORSDOF 8
ENDMDL
MODEL 4
REMARK VINA RESULT:      -7.1      0.051      3.145
REMARK  Name = 6961
REMARK  8 active torsions:
REMARK  status: ('A' for Active; 'I' for Inactive)
REMARK    1  A    between atoms: C_1  and  C_8
REMARK    2  A    between atoms: C_2  and  C_12
REMARK    3  A    between atoms: C_3  and  C_16
REMARK    4  A    between atoms: C_4  and  C_20
REMARK    5  A    between atoms: C_8  and  O_9
REMARK    6  A    between atoms: C_12  and  O_13
REMARK    7  A    between atoms: C_16  and  O_17
REMARK    8  A    between atoms: C_20  and  O_21
REMARK                            x       y       z     vdW  Elec       q    Type
REMARK                         _______ _______ _______ _____ _____    ______ ____
ROOT
ATOM      1  C   UNL     1      31.011 -23.330 -15.874  0.00  0.00    +0.082 C 
ATOM      2  C   UNL     1      31.642 -23.730 -14.697  0.00  0.00    +0.082 C 
ATOM      3  C   UNL     1      33.159 -23.161 -16.968  0.00  0.00    +0.082 C 
ATOM      4  C   UNL     1      33.790 -23.561 -15.791  0.00  0.00    +0.082 C 
ATOM      5  C   UNL     1      31.769 -23.046 -17.010  0.00  0.00    +0.013 C 
ATOM      6  C   UNL     1      33.032 -23.845 -14.655  0.00  0.00    +0.013 C 
ENDROOT
BRANCH   1   8
ATOM      7  O   UNL     1      28.926 -22.164 -15.742  0.00  0.00    -0.245 OA
ATOM      8  C   UNL     1      29.561 -23.201 -15.950  0.00  0.00    +0.338 C 
BRANCH   8   9
ATOM      9  O   UNL     1      28.954 -24.372 -16.282  0.00  0.00    -0.477 OA
ATOM     10  H   UNL     1      28.515 -24.454 -17.107  0.00  0.00    +0.295 HD
ENDBRANCH   8   9
ENDBRANCH   1   8
BRANCH   2  12
ATOM     11  O   UNL     1      30.816 -23.322 -12.489  0.00  0.00    -0.245 OA
ATOM     12  C   UNL     1      30.879 -24.035 -13.493  0.00  0.00    +0.338 C 
BRANCH  12  13
ATOM     13  O   UNL     1      30.218 -25.221 -13.586  0.00  0.00    -0.477 OA
ATOM     14  H   UNL     1      30.460 -25.937 -13.034  0.00  0.00    +0.295 HD
ENDBRANCH  12  13
ENDBRANCH   2  12
BRANCH   3  16
ATOM     15  O   UNL     1      34.601 -21.842 -18.348  0.00  0.00    -0.245 OA
ATOM     16  C   UNL     1      33.922 -22.857 -18.171  0.00  0.00    +0.338 C 
BRANCH  16  17
ATOM     17  O   UNL     1      33.814 -23.833 -19.113  0.00  0.00    -0.477 OA
ATOM     18  H   UNL     1      34.411 -24.554 -19.110  0.00  0.00    +0.295 HD
ENDBRANCH  16  17
ENDBRANCH   3  16
BRANCH   4  20
ATOM     19  O   UNL     1      35.865 -24.752 -15.795  0.00  0.00    -0.245 OA
ATOM     20  C   UNL     1      35.239 -23.691 -15.715  0.00  0.00    +0.338 C 
BRANCH  20  21
ATOM     21  O   UNL     1      35.858 -22.493 -15.542  0.00  0.00    -0.477 OA
ATOM     22  H   UNL     1      36.157 -22.238 -14.691  0.00  0.00    +0.295 HD
ENDBRANCH  20  21
ENDBRANCH   4  20
TORSDOF 8
ENDMDL
MODEL 5
REMARK VINA RESULT:      -7.1      3.326      6.124
REMARK  Name = 6961
REMARK  8 active torsions:
REMARK  status: ('A' for Active; 'I' for Inactive)
REMARK    1  A    between atoms: C_1  and  C_8
REMARK    2  A    between atoms: C_2  and  C_12
REMARK    3  A    between atoms: C_3  and  C_16
REMARK    4  A    between atoms: C_4  and  C_20
REMARK    5  A    between atoms: C_8  and  O_9
REMARK    6  A    between atoms: C_12  and  O_13
REMARK    7  A    between atoms: C_16  and  O_17
REMARK    8  A    between atoms: C_20  and  O_21
REMARK                            x       y       z     vdW  Elec       q    Type
REMARK                         _______ _______ _______ _____ _____    ______ ____
ROOT
ATOM      1  C   UNL     1      35.769 -23.688 -15.393  0.00  0.00    +0.082 C 
ATOM      2  C   UNL     1      36.932 -23.176 -15.967  0.00  0.00    +0.082 C 
ATOM      3  C   UNL     1      37.090 -25.260 -14.120  0.00  0.00    +0.082 C 
ATOM      4  C   UNL     1      38.252 -24.748 -14.693  0.00  0.00    +0.082 C 
ATOM      5  C   UNL     1      35.847 -24.730 -14.469  0.00  0.00    +0.013 C 
ATOM      6  C   UNL     1      38.174 -23.706 -15.617  0.00  0.00    +0.013 C 
ENDROOT
BRANCH   1   8
ATOM      7  O   UNL     1      33.897 -23.289 -16.829  0.00  0.00    -0.245 OA
ATOM      8  C   UNL     1      34.456 -23.156 -15.737  0.00  0.00    +0.338 C 
BRANCH   8   9
ATOM      9  O   UNL     1      33.887 -22.476 -14.706  0.00  0.00    -0.477 OA
ATOM     10  H   UNL     1      33.526 -22.945 -13.978  0.00  0.00    +0.295 HD
ENDBRANCH   8   9
ENDBRANCH   1   8
BRANCH   2  12
ATOM     11  O   UNL     1      36.448 -22.176 -18.085  0.00  0.00    -0.245 OA
ATOM     12  C   UNL     1      36.883 -22.087 -16.934  0.00  0.00    +0.338 C 
BRANCH  12  13
ATOM     13  O   UNL     1      37.379 -20.925 -16.431  0.00  0.00    -0.477 OA
ATOM     14  H   UNL     1      36.799 -20.219 -16.223  0.00  0.00    +0.295 HD
ENDBRANCH  12  13
ENDBRANCH   2  12
BRANCH   3  16
ATOM     15  O   UNL     1      37.253 -26.212 -11.931  0.00  0.00    -0.245 OA
ATOM     16  C   UNL     1      37.138 -26.348 -13.151  0.00  0.00    +0.338 C 
BRANCH  16  17
ATOM     17  O   UNL     1      37.039 -27.570 -13.741  0.00  0.00    -0.477 OA
ATOM     18  H   UNL     1      37.471 -28.310 -13.362  0.00  0.00    +0.295 HD
ENDBRANCH  16  17
ENDBRANCH   3  16
BRANCH   4  20
ATOM     19  O   UNL     1      40.444 -24.666 -13.736  0.00  0.00    -0.245 OA
ATOM     20  C   UNL     1      39.565 -25.279 -14.348  0.00  0.00    +0.338 C 
BRANCH  20  21
ATOM     21  O   UNL     1      39.736 -26.557 -14.779  0.00  0.00    -0.477 OA
ATOM     22  H   UNL     1      39.756 -27.262 -14.161  0.00  0.00    +0.295 HD
ENDBRANCH  20  21
ENDBRANCH   4  20
TORSDOF 8
ENDMDL
MODEL 6
REMARK VINA RESULT:      -7.1      1.981      4.174
REMARK  Name = 6961
REMARK  8 active torsions:
REMARK  status: ('A' for Active; 'I' for Inactive)
REMARK    1  A    between atoms: C_1  and  C_8
REMARK    2  A    between atoms: C_2  and  C_12
REMARK    3  A    between atoms: C_3  and  C_16
REMARK    4  A    between atoms: C_4  and  C_20
REMARK    5  A    between atoms: C_8  and  O_9
REMARK    6  A    between atoms: C_12  and  O_13
REMARK    7  A    between atoms: C_16  and  O_17
REMARK    8  A    between atoms: C_20  and  O_21
REMARK                            x       y       z     vdW  Elec       q    Type
REMARK                         _______ _______ _______ _____ _____    ______ ____
ROOT
ATOM      1  C   UNL     1      33.487 -23.380 -16.328  0.00  0.00    +0.082 C 
ATOM      2  C   UNL     1      32.684 -23.705 -15.236  0.00  0.00    +0.082 C 
ATOM      3  C   UNL     1      35.462 -23.753 -14.987  0.00  0.00    +0.082 C 
ATOM      4  C   UNL     1      34.659 -24.078 -13.895  0.00  0.00    +0.082 C 
ATOM      5  C   UNL     1      34.877 -23.404 -16.204  0.00  0.00    +0.013 C 
ATOM      6  C   UNL     1      33.270 -24.054 -14.019  0.00  0.00    +0.013 C 
ENDROOT
BRANCH   1   8
ATOM      7  O   UNL     1      31.929 -22.274 -17.769  0.00  0.00    -0.245 OA
ATOM      8  C   UNL     1      32.906 -23.012 -17.613  0.00  0.00    +0.338 C 
BRANCH   8   9
ATOM      9  O   UNL     1      33.564 -23.577 -18.660  0.00  0.00    -0.477 OA
ATOM     10  H   UNL     1      33.279 -24.403 -19.002  0.00  0.00    +0.295 HD
ENDBRANCH   8   9
ENDBRANCH   1   8
BRANCH   2  12
ATOM     11  O   UNL     1      30.530 -24.640 -15.694  0.00  0.00    -0.245 OA
ATOM     12  C   UNL     1      31.230 -23.690 -15.334  0.00  0.00    +0.338 C 
BRANCH  12  13
ATOM     13  O   UNL     1      30.700 -22.489 -14.977  0.00  0.00    -0.477 OA
ATOM     14  H   UNL     1      30.301 -21.942 -15.624  0.00  0.00    +0.295 HD
ENDBRANCH  12  13
ENDBRANCH   2  12
BRANCH   3  16
ATOM     15  O   UNL     1      37.608 -22.878 -14.391  0.00  0.00    -0.245 OA
ATOM     16  C   UNL     1      36.916 -23.769 -14.890  0.00  0.00    +0.338 C 
BRANCH  16  17
ATOM     17  O   UNL     1      37.457 -24.901 -15.417  0.00  0.00    -0.477 OA
ATOM     18  H   UNL     1      36.952 -25.435 -15.997  0.00  0.00    +0.295 HD
ENDBRANCH  16  17
ENDBRANCH   3  16
BRANCH   4  20
ATOM     19  O   UNL     1      35.126 -23.802 -11.564  0.00  0.00    -0.245 OA
ATOM     20  C   UNL     1      35.240 -24.448 -12.610  0.00  0.00    +0.338 C 
BRANCH  20  21
ATOM     21  O   UNL     1      35.943 -25.609 -12.675  0.00  0.00    -0.477 OA
ATOM     22  H   UNL     1      36.634 -25.774 -12.063  0.00  0.00    +0.295 HD
ENDBRANCH  20  21
ENDBRANCH   4  20
TORSDOF 8
ENDMDL
MODEL 7
REMARK VINA RESULT:      -7.0      3.372      6.160
REMARK  Name = 6961
REMARK  8 active torsions:
REMARK  status: ('A' for Active; 'I' for Inactive)
REMARK    1  A    between atoms: C_1  and  C_8
REMARK    2  A    between atoms: C_2  and  C_12
REMARK    3  A    between atoms: C_3  and  C_16
REMARK    4  A    between atoms: C_4  and  C_20
REMARK    5  A    between atoms: C_8  and  O_9
REMARK    6  A    between atoms: C_12  and  O_13
REMARK    7  A    between atoms: C_16  and  O_17
REMARK    8  A    between atoms: C_20  and  O_21
REMARK                            x       y       z     vdW  Elec       q    Type
REMARK                         _______ _______ _______ _____ _____    ______ ____
ROOT
ATOM      1  C   UNL     1      36.994 -23.001 -16.129  0.00  0.00    +0.082 C 
ATOM      2  C   UNL     1      35.893 -23.559 -15.482  0.00  0.00    +0.082 C 
ATOM      3  C   UNL     1      38.455 -24.530 -14.962  0.00  0.00    +0.082 C 
ATOM      4  C   UNL     1      37.354 -25.088 -14.314  0.00  0.00    +0.082 C 
ATOM      5  C   UNL     1      38.276 -23.487 -15.870  0.00  0.00    +0.013 C 
ATOM      6  C   UNL     1      36.072 -24.603 -14.573  0.00  0.00    +0.013 C 
ENDROOT
BRANCH   1   8
ATOM      7  O   UNL     1      37.241 -20.756 -16.918  0.00  0.00    -0.245 OA
ATOM      8  C   UNL     1      36.839 -21.911 -17.084  0.00  0.00    +0.338 C 
BRANCH   8   9
ATOM      9  O   UNL     1      36.188 -22.299 -18.213  0.00  0.00    -0.477 OA
ATOM     10  H   UNL     1      35.274 -22.508 -18.178  0.00  0.00    +0.295 HD
ENDBRANCH   8   9
ENDBRANCH   1   8
BRANCH   2  12
ATOM     11  O   UNL     1      33.963 -23.103 -16.821  0.00  0.00    -0.245 OA
ATOM     12  C   UNL     1      34.541 -23.075 -15.731  0.00  0.00    +0.338 C 
BRANCH  12  13
ATOM     13  O   UNL     1      33.956 -22.571 -14.611  0.00  0.00    -0.477 OA
ATOM     14  H   UNL     1      33.338 -21.871 -14.678  0.00  0.00    +0.295 HD
ENDBRANCH  12  13
ENDBRANCH   2  12
BRANCH   3  16
ATOM     15  O   UNL     1      40.513 -24.699 -13.752  0.00  0.00    -0.245 OA
ATOM     16  C   UNL     1      39.807 -25.016 -14.713  0.00  0.00    +0.338 C 
BRANCH  16  17
ATOM     17  O   UNL     1      40.230 -25.883 -15.672  0.00  0.00    -0.477 OA
ATOM     18  H   UNL     1      41.145 -25.979 -15.846  0.00  0.00    +0.295 HD
ENDBRANCH  16  17
ENDBRANCH   3  16
BRANCH   4  20
ATOM     19  O   UNL     1      37.878 -26.056 -12.189  0.00  0.00    -0.245 OA
ATOM     20  C   UNL     1      37.508 -26.179 -13.360  0.00  0.00    +0.338 C 
BRANCH  20  21
ATOM     21  O   UNL     1      37.197 -27.387 -13.900  0.00  0.00    -0.477 OA
ATOM     22  H   UNL     1      36.933 -27.446 -14.798  0.00  0.00    +0.295 HD
ENDBRANCH  20  21
ENDBRANCH   4  20
TORSDOF 8
ENDMDL
MODEL 8
REMARK VINA RESULT:      -7.0      8.953     11.767
REMARK  Name = 6961
REMARK  8 active torsions:
REMARK  status: ('A' for Active; 'I' for Inactive)
REMARK    1  A    between atoms: C_1  and  C_8
REMARK    2  A    between atoms: C_2  and  C_12
REMARK    3  A    between atoms: C_3  and  C_16
REMARK    4  A    between atoms: C_4  and  C_20
REMARK    5  A    between atoms: C_8  and  O_9
REMARK    6  A    between atoms: C_12  and  O_13
REMARK    7  A    between atoms: C_16  and  O_17
REMARK    8  A    between atoms: C_20  and  O_21
REMARK                            x       y       z     vdW  Elec       q    Type
REMARK                         _______ _______ _______ _____ _____    ______ ____
ROOT
ATOM      1  C   UNL     1      33.699 -15.251 -24.648  0.00  0.00    +0.082 C 
ATOM      2  C   UNL     1      33.599 -14.468 -23.498  0.00  0.00    +0.082 C 
ATOM      3  C   UNL     1      34.689 -17.031 -23.349  0.00  0.00    +0.082 C 
ATOM      4  C   UNL     1      34.590 -16.248 -22.200  0.00  0.00    +0.082 C 
ATOM      5  C   UNL     1      34.243 -16.533 -24.573  0.00  0.00    +0.013 C 
ATOM      6  C   UNL     1      34.045 -14.966 -22.274  0.00  0.00    +0.013 C 
ENDROOT
BRANCH   1   8
ATOM      7  O   UNL     1      33.867 -14.853 -27.001  0.00  0.00    -0.245 OA
ATOM      8  C   UNL     1      33.242 -14.759 -25.941  0.00  0.00    +0.338 C 
BRANCH   8   9
ATOM      9  O   UNL     1      32.020 -14.166 -25.868  0.00  0.00    -0.477 OA
ATOM     10  H   UNL     1      31.694 -13.673 -26.596  0.00  0.00    +0.295 HD
ENDBRANCH   8   9
ENDBRANCH   1   8
BRANCH   2  12
ATOM     11  O   UNL     1      33.586 -12.136 -24.033  0.00  0.00    -0.245 OA
ATOM     12  C   UNL     1      33.035 -13.125 -23.543  0.00  0.00    +0.338 C 
BRANCH  12  13
ATOM     13  O   UNL     1      31.800 -13.063 -22.975  0.00  0.00    -0.477 OA
ATOM     14  H   UNL     1      31.499 -12.263 -22.594  0.00  0.00    +0.295 HD
ENDBRANCH  12  13
ENDBRANCH   2  12
BRANCH   3  16
ATOM     15  O   UNL     1      34.606 -19.422 -23.376  0.00  0.00    -0.245 OA
ATOM     16  C   UNL     1      35.253 -18.374 -23.304  0.00  0.00    +0.338 C 
BRANCH  16  17
ATOM     17  O   UNL     1      36.607 -18.363 -23.173  0.00  0.00    -0.477 OA
ATOM     18  H   UNL     1      37.151 -18.376 -23.936  0.00  0.00    +0.295 HD
ENDBRANCH  16  17
ENDBRANCH   3  16
BRANCH   4  20
ATOM     19  O   UNL     1      35.452 -17.884 -20.681  0.00  0.00    -0.245 OA
ATOM     20  C   UNL     1      35.046 -16.740 -20.906  0.00  0.00    +0.338 C 
BRANCH  20  21
ATOM     21  O   UNL     1      34.981 -15.788 -19.938  0.00  0.00    -0.477 OA
ATOM     22  H   UNL     1      34.148 -15.461 -19.657  0.00  0.00    +0.295 HD
ENDBRANCH  20  21
ENDBRANCH   4  20
TORSDOF 8
ENDMDL
MODEL 9
REMARK VINA RESULT:      -7.0      8.950     11.845
REMARK  Name = 6961
REMARK  8 active torsions:
REMARK  status: ('A' for Active; 'I' for Inactive)
REMARK    1  A    between atoms: C_1  and  C_8
REMARK    2  A    between atoms: C_2  and  C_12
REMARK    3  A    between atoms: C_3  and  C_16
REMARK    4  A    between atoms: C_4  and  C_20
REMARK    5  A    between atoms: C_8  and  O_9
REMARK    6  A    between atoms: C_12  and  O_13
REMARK    7  A    between atoms: C_16  and  O_17
REMARK    8  A    between atoms: C_20  and  O_21
REMARK                            x       y       z     vdW  Elec       q    Type
REMARK                         _______ _______ _______ _____ _____    ______ ____
ROOT
ATOM      1  C   UNL     1      34.690 -17.037 -23.354  0.00  0.00    +0.082 C 
ATOM      2  C   UNL     1      34.589 -16.256 -22.204  0.00  0.00    +0.082 C 
ATOM      3  C   UNL     1      33.698 -15.256 -24.650  0.00  0.00    +0.082 C 
ATOM      4  C   UNL     1      33.597 -14.475 -23.499  0.00  0.00    +0.082 C 
ATOM      5  C   UNL     1      34.244 -16.537 -24.578  0.00  0.00    +0.013 C 
ATOM      6  C   UNL     1      34.043 -14.975 -22.276  0.00  0.00    +0.013 C 
ENDROOT
BRANCH   1   8
ATOM      7  O   UNL     1      34.612 -19.429 -23.388  0.00  0.00    -0.245 OA
ATOM      8  C   UNL     1      35.257 -18.379 -23.312  0.00  0.00    +0.338 C 
BRANCH   8   9
ATOM      9  O   UNL     1      36.610 -18.366 -23.176  0.00  0.00    -0.477 OA
ATOM     10  H   UNL     1      37.101 -19.156 -23.300  0.00  0.00    +0.295 HD
ENDBRANCH   8   9
ENDBRANCH   1   8
BRANCH   2  12
ATOM     11  O   UNL     1      35.452 -17.893 -20.687  0.00  0.00    -0.245 OA
ATOM     12  C   UNL     1      35.046 -16.750 -20.911  0.00  0.00    +0.338 C 
BRANCH  12  13
ATOM     13  O   UNL     1      34.981 -15.798 -19.941  0.00  0.00    -0.477 OA
ATOM     14  H   UNL     1      34.256 -15.207 -19.913  0.00  0.00    +0.295 HD
ENDBRANCH  12  13
ENDBRANCH   2  12
BRANCH   3  16
ATOM     15  O   UNL     1      33.866 -14.855 -27.003  0.00  0.00    -0.245 OA
ATOM     16  C   UNL     1      33.242 -14.762 -25.943  0.00  0.00    +0.338 C 
BRANCH  16  17
ATOM     17  O   UNL     1      32.019 -14.170 -25.869  0.00  0.00    -0.477 OA
ATOM     18  H   UNL     1      31.342 -14.557 -25.349  0.00  0.00    +0.295 HD
ENDBRANCH  16  17
ENDBRANCH   3  16
BRANCH   4  20
ATOM     19  O   UNL     1      33.582 -12.142 -24.032  0.00  0.00    -0.245 OA
ATOM     20  C   UNL     1      33.031 -13.132 -23.542  0.00  0.00    +0.338 C 
BRANCH  20  21
ATOM     21  O   UNL     1      31.798 -13.072 -22.972  0.00  0.00    -0.477 OA
ATOM     22  H   UNL     1      31.168 -13.743 -23.147  0.00  0.00    +0.295 HD
ENDBRANCH  20  21
ENDBRANCH   4  20
TORSDOF 8
ENDMDL
