MODEL 1
REMARK VINA RESULT:      -5.4      0.000      0.000
REMARK  Name = 8094
REMARK  6 active torsions:
REMARK  status: ('A' for Active; 'I' for Inactive)
REMARK    1  A    between atoms: C_1  and  C_2
REMARK    2  A    between atoms: C_1  and  C_6
REMARK    3  A    between atoms: C_2  and  C_3
REMARK    4  A    between atoms: C_3  and  C_4
REMARK    5  A    between atoms: C_6  and  C_8
REMARK    6  A    between atoms: C_8  and  O_9
REMARK                            x       y       z     vdW  Elec       q    Type
REMARK                         _______ _______ _______ _____ _____    ______ ____
ROOT
ATOM      1  C   UNL     1      35.293 -18.761 -22.883  0.00  0.00    +0.012 C 
ENDROOT
BRANCH   1   2
ATOM      2  C   UNL     1      34.292 -18.739 -21.722  0.00  0.00    +0.001 C 
BRANCH   2   3
ATOM      3  C   UNL     1      34.536 -19.905 -20.762  0.00  0.00    +0.000 C 
BRANCH   3   4
ATOM      4  C   UNL     1      33.247 -20.521 -20.214  0.00  0.00    +0.000 C 
ATOM      5  C   UNL     1      33.483 -21.722 -19.312  0.00  0.00    +0.000 C 
ENDBRANCH   3   4
ENDBRANCH   2   3
ENDBRANCH   1   2
BRANCH   1   6
ATOM      6  C   UNL     1      34.635 -18.446 -24.228  0.00  0.00    +0.109 C 
BRANCH   6   8
ATOM      7  O   UNL     1      34.680 -16.629 -25.851  0.00  0.00    -0.250 OA
ATOM      8  C   UNL     1      34.965 -17.063 -24.743  0.00  0.00    +0.314 C 
BRANCH   8   9
ATOM      9  O   UNL     1      35.609 -16.324 -23.802  0.00  0.00    -0.480 OA
ATOM     10  H   UNL     1      35.783 -16.689 -22.958  0.00  0.00    +0.295 HD
ENDBRANCH   8   9
ENDBRANCH   6   8
ENDBRANCH   1   6
TORSDOF 6
ENDMDL
MODEL 2
REMARK VINA RESULT:      -5.3      4.352      5.946
REMARK  Name = 8094
REMARK  6 active torsions:
REMARK  status: ('A' for Active; 'I' for Inactive)
REMARK    1  A    between atoms: C_1  and  C_2
REMARK    2  A    between atoms: C_1  and  C_6
REMARK    3  A    between atoms: C_2  and  C_3
REMARK    4  A    between atoms: C_3  and  C_4
REMARK    5  A    between atoms: C_6  and  C_8
REMARK    6  A    between atoms: C_8  and  O_9
REMARK                            x       y       z     vdW  Elec       q    Type
REMARK                         _______ _______ _______ _____ _____    ______ ____
ROOT
ATOM      1  C   UNL     1      33.044 -20.258 -20.384  0.00  0.00    +0.012 C 
ENDROOT
BRANCH   1   2
ATOM      2  C   UNL     1      33.673 -19.024 -21.042  0.00  0.00    +0.001 C 
BRANCH   2   3
ATOM      3  C   UNL     1      35.164 -19.242 -21.311  0.00  0.00    +0.000 C 
BRANCH   3   4
ATOM      4  C   UNL     1      35.645 -18.602 -22.615  0.00  0.00    +0.000 C 
ATOM      5  C   UNL     1      34.889 -19.085 -23.843  0.00  0.00    +0.000 C 
ENDBRANCH   3   4
ENDBRANCH   2   3
ENDBRANCH   1   2
BRANCH   1   6
ATOM      6  C   UNL     1      34.091 -21.190 -19.770  0.00  0.00    +0.109 C 
BRANCH   6   8
ATOM      7  O   UNL     1      32.544 -22.379 -18.310  0.00  0.00    -0.250 OA
ATOM      8  C   UNL     1      33.488 -22.397 -19.089  0.00  0.00    +0.314 C 
BRANCH   8   9
ATOM      9  O   UNL     1      34.113 -23.543 -19.468  0.00  0.00    -0.480 OA
ATOM     10  H   UNL     1      35.035 -23.638 -19.339  0.00  0.00    +0.295 HD
ENDBRANCH   8   9
ENDBRANCH   6   8
ENDBRANCH   1   6
TORSDOF 6
ENDMDL
MODEL 3
REMARK VINA RESULT:      -5.1      1.328      1.976
REMARK  Name = 8094
REMARK  6 active torsions:
REMARK  status: ('A' for Active; 'I' for Inactive)
REMARK    1  A    between atoms: C_1  and  C_2
REMARK    2  A    between atoms: C_1  and  C_6
REMARK    3  A    between atoms: C_2  and  C_3
REMARK    4  A    between atoms: C_3  and  C_4
REMARK    5  A    between atoms: C_6  and  C_8
REMARK    6  A    between atoms: C_8  and  O_9
REMARK                            x       y       z     vdW  Elec       q    Type
REMARK                         _______ _______ _______ _____ _____    ______ ____
ROOT
ATOM      1  C   UNL     1      34.512 -19.256 -22.356  0.00  0.00    +0.012 C 
ENDROOT
BRANCH   1   2
ATOM      2  C   UNL     1      34.461 -19.631 -20.871  0.00  0.00    +0.001 C 
BRANCH   2   3
ATOM      3  C   UNL     1      33.154 -20.351 -20.529  0.00  0.00    +0.000 C 
BRANCH   3   4
ATOM      4  C   UNL     1      33.314 -21.415 -19.441  0.00  0.00    +0.000 C 
ATOM      5  C   UNL     1      34.730 -21.957 -19.326  0.00  0.00    +0.000 C 
ENDBRANCH   3   4
ENDBRANCH   2   3
ENDBRANCH   1   2
BRANCH   1   6
ATOM      6  C   UNL     1      35.695 -18.344 -22.688  0.00  0.00    +0.109 C 
BRANCH   6   8
ATOM      7  O   UNL     1      34.931 -16.334 -21.541  0.00  0.00    -0.250 OA
ATOM      8  C   UNL     1      35.373 -16.874 -22.547  0.00  0.00    +0.314 C 
BRANCH   8   9
ATOM      9  O   UNL     1      35.660 -16.192 -23.687  0.00  0.00    -0.480 OA
ATOM     10  H   UNL     1      36.300 -15.509 -23.676  0.00  0.00    +0.295 HD
ENDBRANCH   8   9
ENDBRANCH   6   8
ENDBRANCH   1   6
TORSDOF 6
ENDMDL
MODEL 4
REMARK VINA RESULT:      -5.1      8.560     10.006
REMARK  Name = 8094
REMARK  6 active torsions:
REMARK  status: ('A' for Active; 'I' for Inactive)
REMARK    1  A    between atoms: C_1  and  C_2
REMARK    2  A    between atoms: C_1  and  C_6
REMARK    3  A    between atoms: C_2  and  C_3
REMARK    4  A    between atoms: C_3  and  C_4
REMARK    5  A    between atoms: C_6  and  C_8
REMARK    6  A    between atoms: C_8  and  O_9
REMARK                            x       y       z     vdW  Elec       q    Type
REMARK                         _______ _______ _______ _____ _____    ______ ____
ROOT
ATOM      1  C   UNL     1      28.489 -22.407 -15.826  0.00  0.00    +0.012 C 
ENDROOT
BRANCH   1   2
ATOM      2  C   UNL     1      29.567 -23.490 -15.708  0.00  0.00    +0.001 C 
BRANCH   2   3
ATOM      3  C   UNL     1      30.631 -23.100 -14.679  0.00  0.00    +0.000 C 
BRANCH   3   4
ATOM      4  C   UNL     1      32.061 -23.220 -15.209  0.00  0.00    +0.000 C 
ATOM      5  C   UNL     1      32.156 -23.130 -16.725  0.00  0.00    +0.000 C 
ENDBRANCH   3   4
ENDBRANCH   2   3
ENDBRANCH   1   2
BRANCH   1   6
ATOM      6  C   UNL     1      27.666 -22.539 -17.109  0.00  0.00    +0.109 C 
BRANCH   6   8
ATOM      7  O   UNL     1      26.335 -20.685 -17.962  0.00  0.00    -0.250 OA
ATOM      8  C   UNL     1      26.485 -21.596 -17.159  0.00  0.00    +0.314 C 
BRANCH   8   9
ATOM      9  O   UNL     1      25.569 -21.898 -16.202  0.00  0.00    -0.480 OA
ATOM     10  H   UNL     1      25.578 -21.441 -15.385  0.00  0.00    +0.295 HD
ENDBRANCH   8   9
ENDBRANCH   6   8
ENDBRANCH   1   6
TORSDOF 6
ENDMDL
MODEL 5
REMARK VINA RESULT:      -5.0      3.594      5.537
REMARK  Name = 8094
REMARK  6 active torsions:
REMARK  status: ('A' for Active; 'I' for Inactive)
REMARK    1  A    between atoms: C_1  and  C_2
REMARK    2  A    between atoms: C_1  and  C_6
REMARK    3  A    between atoms: C_2  and  C_3
REMARK    4  A    between atoms: C_3  and  C_4
REMARK    5  A    between atoms: C_6  and  C_8
REMARK    6  A    between atoms: C_8  and  O_9
REMARK                            x       y       z     vdW  Elec       q    Type
REMARK                         _______ _______ _______ _____ _____    ______ ____
ROOT
ATOM      1  C   UNL     1      33.889 -19.709 -21.512  0.00  0.00    +0.012 C 
ENDROOT
BRANCH   1   2
ATOM      2  C   UNL     1      34.565 -18.362 -21.229  0.00  0.00    +0.001 C 
BRANCH   2   3
ATOM      3  C   UNL     1      35.466 -17.942 -22.393  0.00  0.00    +0.000 C 
BRANCH   3   4
ATOM      4  C   UNL     1      35.191 -18.717 -23.683  0.00  0.00    +0.000 C 
ATOM      5  C   UNL     1      34.644 -17.850 -24.807  0.00  0.00    +0.000 C 
ENDBRANCH   3   4
ENDBRANCH   2   3
ENDBRANCH   1   2
BRANCH   1   6
ATOM      6  C   UNL     1      33.000 -20.171 -20.356  0.00  0.00    +0.109 C 
BRANCH   6   8
ATOM      7  O   UNL     1      34.792 -21.554 -19.455  0.00  0.00    -0.250 OA
ATOM      8  C   UNL     1      33.598 -21.311 -19.563  0.00  0.00    +0.314 C 
BRANCH   8   9
ATOM      9  O   UNL     1      32.635 -22.042 -18.943  0.00  0.00    -0.480 OA
ATOM     10  H   UNL     1      32.789 -22.392 -18.089  0.00  0.00    +0.295 HD
ENDBRANCH   8   9
ENDBRANCH   6   8
ENDBRANCH   1   6
TORSDOF 6
ENDMDL
MODEL 6
REMARK VINA RESULT:      -5.0      8.670     10.283
REMARK  Name = 8094
REMARK  6 active torsions:
REMARK  status: ('A' for Active; 'I' for Inactive)
REMARK    1  A    between atoms: C_1  and  C_2
REMARK    2  A    between atoms: C_1  and  C_6
REMARK    3  A    between atoms: C_2  and  C_3
REMARK    4  A    between atoms: C_3  and  C_4
REMARK    5  A    between atoms: C_6  and  C_8
REMARK    6  A    between atoms: C_8  and  O_9
REMARK                            x       y       z     vdW  Elec       q    Type
REMARK                         _______ _______ _______ _____ _____    ______ ____
ROOT
ATOM      1  C   UNL     1      28.962 -24.913 -15.027  0.00  0.00    +0.012 C 
ENDROOT
BRANCH   1   2
ATOM      2  C   UNL     1      30.469 -25.033 -14.776  0.00  0.00    +0.001 C 
BRANCH   2   3
ATOM      3  C   UNL     1      31.029 -23.748 -14.160  0.00  0.00    +0.000 C 
BRANCH   3   4
ATOM      4  C   UNL     1      32.217 -23.172 -14.934  0.00  0.00    +0.000 C 
ATOM      5  C   UNL     1      32.072 -23.289 -16.443  0.00  0.00    +0.000 C 
ENDBRANCH   3   4
ENDBRANCH   2   3
ENDBRANCH   1   2
BRANCH   1   6
ATOM      6  C   UNL     1      28.532 -23.478 -15.334  0.00  0.00    +0.109 C 
BRANCH   6   8
ATOM      7  O   UNL     1      27.752 -24.109 -17.554  0.00  0.00    -0.250 OA
ATOM      8  C   UNL     1      28.183 -23.258 -16.789  0.00  0.00    +0.314 C 
BRANCH   8   9
ATOM      9  O   UNL     1      28.384 -21.965 -17.156  0.00  0.00    -0.480 OA
ATOM     10  H   UNL     1      28.571 -21.317 -16.507  0.00  0.00    +0.295 HD
ENDBRANCH   8   9
ENDBRANCH   6   8
ENDBRANCH   1   6
TORSDOF 6
ENDMDL
MODEL 7
REMARK VINA RESULT:      -4.9      1.524      2.149
REMARK  Name = 8094
REMARK  6 active torsions:
REMARK  status: ('A' for Active; 'I' for Inactive)
REMARK    1  A    between atoms: C_1  and  C_2
REMARK    2  A    between atoms: C_1  and  C_6
REMARK    3  A    between atoms: C_2  and  C_3
REMARK    4  A    between atoms: C_3  and  C_4
REMARK    5  A    between atoms: C_6  and  C_8
REMARK    6  A    between atoms: C_8  and  O_9
REMARK                            x       y       z     vdW  Elec       q    Type
REMARK                         _______ _______ _______ _____ _____    ______ ____
ROOT
ATOM      1  C   UNL     1      34.490 -18.176 -25.007  0.00  0.00    +0.012 C 
ENDROOT
BRANCH   1   2
ATOM      2  C   UNL     1      34.812 -19.279 -23.992  0.00  0.00    +0.001 C 
BRANCH   2   3
ATOM      3  C   UNL     1      34.894 -18.713 -22.572  0.00  0.00    +0.000 C 
BRANCH   3   4
ATOM      4  C   UNL     1      34.043 -19.485 -21.561  0.00  0.00    +0.000 C 
ATOM      5  C   UNL     1      34.863 -20.234 -20.523  0.00  0.00    +0.000 C 
ENDBRANCH   3   4
ENDBRANCH   2   3
ENDBRANCH   1   2
BRANCH   1   6
ATOM      6  C   UNL     1      34.564 -16.777 -24.394  0.00  0.00    +0.109 C 
BRANCH   6   8
ATOM      7  O   UNL     1      33.602 -15.758 -26.387  0.00  0.00    -0.250 OA
ATOM      8  C   UNL     1      33.792 -15.740 -25.179  0.00  0.00    +0.314 C 
BRANCH   8   9
ATOM      9  O   UNL     1      33.296 -14.771 -24.365  0.00  0.00    -0.480 OA
ATOM     10  H   UNL     1      33.610 -14.691 -23.487  0.00  0.00    +0.295 HD
ENDBRANCH   8   9
ENDBRANCH   6   8
ENDBRANCH   1   6
TORSDOF 6
ENDMDL
MODEL 8
REMARK VINA RESULT:      -4.9     11.571     12.374
REMARK  Name = 8094
REMARK  6 active torsions:
REMARK  status: ('A' for Active; 'I' for Inactive)
REMARK    1  A    between atoms: C_1  and  C_2
REMARK    2  A    between atoms: C_1  and  C_6
REMARK    3  A    between atoms: C_2  and  C_3
REMARK    4  A    between atoms: C_3  and  C_4
REMARK    5  A    between atoms: C_6  and  C_8
REMARK    6  A    between atoms: C_8  and  O_9
REMARK                            x       y       z     vdW  Elec       q    Type
REMARK                         _______ _______ _______ _____ _____    ______ ____
ROOT
ATOM      1  C   UNL     1      37.894 -26.001 -13.808  0.00  0.00    +0.012 C 
ENDROOT
BRANCH   1   2
ATOM      2  C   UNL     1      37.810 -25.758 -12.296  0.00  0.00    +0.001 C 
BRANCH   2   3
ATOM      3  C   UNL     1      37.759 -24.261 -11.980  0.00  0.00    +0.000 C 
BRANCH   3   4
ATOM      4  C   UNL     1      36.475 -23.834 -11.265  0.00  0.00    +0.000 C 
ATOM      5  C   UNL     1      35.243 -23.876 -12.155  0.00  0.00    +0.000 C 
ENDBRANCH   3   4
ENDBRANCH   2   3
ENDBRANCH   1   2
BRANCH   1   6
ATOM      6  C   UNL     1      38.975 -25.150 -14.477  0.00  0.00    +0.109 C 
BRANCH   6   8
ATOM      7  O   UNL     1      40.963 -26.447 -13.928  0.00  0.00    -0.250 OA
ATOM      8  C   UNL     1      40.245 -25.918 -14.765  0.00  0.00    +0.314 C 
BRANCH   8   9
ATOM      9  O   UNL     1      40.495 -25.978 -16.099  0.00  0.00    -0.480 OA
ATOM     10  H   UNL     1      39.983 -25.470 -16.696  0.00  0.00    +0.295 HD
ENDBRANCH   8   9
ENDBRANCH   6   8
ENDBRANCH   1   6
TORSDOF 6
ENDMDL
MODEL 9
REMARK VINA RESULT:      -4.9      2.263      3.042
REMARK  Name = 8094
REMARK  6 active torsions:
REMARK  status: ('A' for Active; 'I' for Inactive)
REMARK    1  A    between atoms: C_1  and  C_2
REMARK    2  A    between atoms: C_1  and  C_6
REMARK    3  A    between atoms: C_2  and  C_3
REMARK    4  A    between atoms: C_3  and  C_4
REMARK    5  A    between atoms: C_6  and  C_8
REMARK    6  A    between atoms: C_8  and  O_9
REMARK                            x       y       z     vdW  Elec       q    Type
REMARK                         _______ _______ _______ _____ _____    ______ ____
ROOT
ATOM      1  C   UNL     1      34.985 -15.726 -23.195  0.00  0.00    +0.012 C 
ENDROOT
BRANCH   1   2
ATOM      2  C   UNL     1      34.539 -15.857 -21.734  0.00  0.00    +0.001 C 
BRANCH   2   3
ATOM      3  C   UNL     1      34.898 -17.234 -21.170  0.00  0.00    +0.000 C 
BRANCH   3   4
ATOM      4  C   UNL     1      35.612 -18.136 -22.178  0.00  0.00    +0.000 C 
ATOM      5  C   UNL     1      34.775 -19.322 -22.632  0.00  0.00    +0.000 C 
ENDBRANCH   3   4
ENDBRANCH   2   3
ENDBRANCH   1   2
BRANCH   1   6
ATOM      6  C   UNL     1      33.809 -15.510 -24.149  0.00  0.00    +0.109 C 
BRANCH   6   8
ATOM      7  O   UNL     1      34.387 -17.378 -25.603  0.00  0.00    -0.250 OA
ATOM      8  C   UNL     1      33.968 -16.237 -25.465  0.00  0.00    +0.314 C 
BRANCH   8   9
ATOM      9  O   UNL     1      33.558 -15.467 -26.508  0.00  0.00    -0.480 OA
ATOM     10  H   UNL     1      33.739 -15.734 -27.387  0.00  0.00    +0.295 HD
ENDBRANCH   8   9
ENDBRANCH   6   8
ENDBRANCH   1   6
TORSDOF 6
ENDMDL
