MODEL 1
REMARK VINA RESULT:      -9.4      0.000      0.000
REMARK  Name = 5881
REMARK  1 active torsions:
REMARK  status: ('A' for Active; 'I' for Inactive)
REMARK    1  A    between atoms: C_20  and  O_21
REMARK                            x       y       z     vdW  Elec       q    Type
REMARK                         _______ _______ _______ _____ _____    ______ ____
ROOT
ATOM      1  O   UNL     1      34.327 -24.496 -12.432  0.00  0.00    -0.296 OA
ATOM      2  C   UNL     1      34.444 -22.301 -17.190  0.00  0.00    +0.004 C 
ATOM      3  C   UNL     1      35.850 -22.761 -16.700  0.00  0.00    +0.005 C 
ATOM      4  C   UNL     1      35.805 -22.979 -15.186  0.00  0.00    +0.007 C 
ATOM      5  C   UNL     1      34.764 -24.041 -14.782  0.00  0.00    +0.052 C 
ATOM      6  C   UNL     1      34.416 -22.098 -18.757  0.00  0.00    +0.015 C 
ATOM      7  C   UNL     1      33.290 -23.189 -16.641  0.00  0.00    +0.001 C 
ATOM      8  C   UNL     1      33.387 -23.490 -15.135  0.00  0.00    +0.007 C 
ATOM      9  C   UNL     1      37.072 -23.394 -14.446  0.00  0.00    +0.008 C 
ATOM     10  C   UNL     1      36.908 -21.712 -17.073  0.00  0.00    +0.025 C 
ATOM     11  C   UNL     1      35.665 -21.342 -19.230  0.00  0.00    -0.047 C 
ATOM     12  C   UNL     1      33.148 -21.269 -19.120  0.00  0.00    +0.006 C 
ATOM     13  C   UNL     1      35.103 -24.129 -13.305  0.00  0.00    +0.150 C 
ATOM     14  C   UNL     1      36.548 -23.736 -13.043  0.00  0.00    +0.064 C 
ATOM     15  C   UNL     1      36.752 -21.173 -18.459  0.00  0.00    -0.035 C 
ATOM     16  C   UNL     1      34.979 -25.448 -15.369  0.00  0.00    +0.007 C 
ATOM     17  C   UNL     1      34.370 -23.455 -19.499  0.00  0.00    +0.004 C 
ATOM     18  C   UNL     1      35.637 -20.770 -20.628  0.00  0.00    +0.051 C 
ATOM     19  C   UNL     1      33.120 -20.757 -20.558  0.00  0.00    +0.030 C 
ATOM     20  C   UNL     1      34.374 -19.951 -20.882  0.00  0.00    +0.115 C 
ENDROOT
BRANCH  20  21
ATOM     21  O   UNL     1      34.351 -19.566 -22.252  0.00  0.00    -0.384 OA
ATOM     22  H   UNL     1      33.433 -19.534 -22.564  0.00  0.00    +0.210 HD
ENDBRANCH  20  21
TORSDOF 1
ENDMDL
MODEL 2
REMARK VINA RESULT:      -9.1      3.560      5.881
REMARK  Name = 5881
REMARK  1 active torsions:
REMARK  status: ('A' for Active; 'I' for Inactive)
REMARK    1  A    between atoms: C_20  and  O_21
REMARK                            x       y       z     vdW  Elec       q    Type
REMARK                         _______ _______ _______ _____ _____    ______ ____
ROOT
ATOM      1  O   UNL     1      28.940 -24.758 -14.629  0.00  0.00    -0.296 OA
ATOM      2  C   UNL     1      34.172 -24.474 -14.681  0.00  0.00    +0.004 C 
ATOM      3  C   UNL     1      33.494 -23.297 -15.446  0.00  0.00    +0.005 C 
ATOM      4  C   UNL     1      32.042 -23.671 -15.753  0.00  0.00    +0.007 C 
ATOM      5  C   UNL     1      31.235 -23.967 -14.474  0.00  0.00    +0.052 C 
ATOM      6  C   UNL     1      35.667 -24.129 -14.299  0.00  0.00    +0.015 C 
ATOM      7  C   UNL     1      33.316 -25.000 -13.494  0.00  0.00    +0.001 C 
ATOM      8  C   UNL     1      31.831 -25.217 -13.835  0.00  0.00    +0.007 C 
ATOM      9  C   UNL     1      31.163 -22.703 -16.536  0.00  0.00    +0.008 C 
ATOM     10  C   UNL     1      34.267 -22.991 -16.736  0.00  0.00    +0.025 C 
ATOM     11  C   UNL     1      36.395 -23.477 -15.484  0.00  0.00    -0.047 C 
ATOM     12  C   UNL     1      36.392 -25.454 -13.920  0.00  0.00    +0.006 C 
ATOM     13  C   UNL     1      29.865 -24.116 -15.108  0.00  0.00    +0.150 C 
ATOM     14  C   UNL     1      29.768 -23.334 -16.409  0.00  0.00    +0.064 C 
ATOM     15  C   UNL     1      35.751 -22.993 -16.560  0.00  0.00    -0.035 C 
ATOM     16  C   UNL     1      31.131 -22.810 -13.464  0.00  0.00    +0.007 C 
ATOM     17  C   UNL     1      35.730 -23.149 -13.103  0.00  0.00    +0.004 C 
ATOM     18  C   UNL     1      37.902 -23.399 -15.408  0.00  0.00    +0.051 C 
ATOM     19  C   UNL     1      37.909 -25.328 -13.789  0.00  0.00    +0.030 C 
ATOM     20  C   UNL     1      38.524 -24.748 -15.059  0.00  0.00    +0.115 C 
ENDROOT
BRANCH  20  21
ATOM     21  O   UNL     1      39.924 -24.565 -14.868  0.00  0.00    -0.384 OA
ATOM     22  H   UNL     1      40.071 -23.913 -14.166  0.00  0.00    +0.210 HD
ENDBRANCH  20  21
TORSDOF 1
ENDMDL
MODEL 3
REMARK VINA RESULT:      -7.9      3.277      6.257
REMARK  Name = 5881
REMARK  1 active torsions:
REMARK  status: ('A' for Active; 'I' for Inactive)
REMARK    1  A    between atoms: C_20  and  O_21
REMARK                            x       y       z     vdW  Elec       q    Type
REMARK                         _______ _______ _______ _____ _____    ______ ____
ROOT
ATOM      1  O   UNL     1      29.520 -22.266 -17.116  0.00  0.00    -0.296 OA
ATOM      2  C   UNL     1      34.227 -23.558 -15.207  0.00  0.00    +0.004 C 
ATOM      3  C   UNL     1      33.057 -23.966 -14.262  0.00  0.00    +0.005 C 
ATOM      4  C   UNL     1      31.798 -23.193 -14.662  0.00  0.00    +0.007 C 
ATOM      5  C   UNL     1      31.383 -23.473 -16.120  0.00  0.00    +0.052 C 
ATOM      6  C   UNL     1      35.549 -24.356 -14.868  0.00  0.00    +0.015 C 
ATOM      7  C   UNL     1      33.831 -23.589 -16.711  0.00  0.00    +0.001 C 
ATOM      8  C   UNL     1      32.481 -22.920 -17.023  0.00  0.00    +0.007 C 
ATOM      9  C   UNL     1      30.513 -23.379 -13.863  0.00  0.00    +0.008 C 
ATOM     10  C   UNL     1      33.435 -23.682 -12.801  0.00  0.00    +0.025 C 
ATOM     11  C   UNL     1      35.783 -24.401 -13.352  0.00  0.00    -0.047 C 
ATOM     12  C   UNL     1      36.746 -23.629 -15.549  0.00  0.00    +0.006 C 
ATOM     13  C   UNL     1      30.063 -22.725 -16.119  0.00  0.00    +0.150 C 
ATOM     14  C   UNL     1      29.472 -22.643 -14.720  0.00  0.00    +0.064 C 
ATOM     15  C   UNL     1      34.833 -24.084 -12.456  0.00  0.00    -0.035 C 
ATOM     16  C   UNL     1      31.059 -24.940 -16.455  0.00  0.00    +0.007 C 
ATOM     17  C   UNL     1      35.474 -25.813 -15.383  0.00  0.00    +0.004 C 
ATOM     18  C   UNL     1      37.156 -24.819 -12.878  0.00  0.00    +0.051 C 
ATOM     19  C   UNL     1      38.120 -24.117 -15.096  0.00  0.00    +0.030 C 
ATOM     20  C   UNL     1      38.262 -24.035 -13.579  0.00  0.00    +0.115 C 
ENDROOT
BRANCH  20  21
ATOM     21  O   UNL     1      39.519 -24.577 -13.189  0.00  0.00    -0.384 OA
ATOM     22  H   UNL     1      39.439 -25.539 -13.089  0.00  0.00    +0.210 HD
ENDBRANCH  20  21
TORSDOF 1
ENDMDL
MODEL 4
REMARK VINA RESULT:      -7.9      3.242      5.023
REMARK  Name = 5881
REMARK  1 active torsions:
REMARK  status: ('A' for Active; 'I' for Inactive)
REMARK    1  A    between atoms: C_20  and  O_21
REMARK                            x       y       z     vdW  Elec       q    Type
REMARK                         _______ _______ _______ _____ _____    ______ ____
ROOT
ATOM      1  O   UNL     1      37.916 -23.408 -13.320  0.00  0.00    -0.296 OA
ATOM      2  C   UNL     1      32.862 -23.336 -14.706  0.00  0.00    +0.004 C 
ATOM      3  C   UNL     1      33.824 -23.439 -15.927  0.00  0.00    +0.005 C 
ATOM      4  C   UNL     1      35.231 -23.026 -15.492  0.00  0.00    +0.007 C 
ATOM      5  C   UNL     1      35.772 -23.913 -14.354  0.00  0.00    +0.052 C 
ATOM      6  C   UNL     1      31.396 -23.791 -15.084  0.00  0.00    +0.015 C 
ATOM      7  C   UNL     1      33.430 -24.015 -13.427  0.00  0.00    +0.001 C 
ATOM      8  C   UNL     1      34.899 -23.668 -13.128  0.00  0.00    +0.007 C 
ATOM      9  C   UNL     1      36.360 -22.999 -16.516  0.00  0.00    +0.008 C 
ATOM     10  C   UNL     1      33.319 -22.551 -17.073  0.00  0.00    +0.025 C 
ATOM     11  C   UNL     1      30.971 -23.193 -16.433  0.00  0.00    -0.047 C 
ATOM     12  C   UNL     1      30.427 -23.288 -13.974  0.00  0.00    +0.006 C 
ATOM     13  C   UNL     1      37.187 -23.365 -14.302  0.00  0.00    +0.150 C 
ATOM     14  C   UNL     1      37.605 -22.782 -15.643  0.00  0.00    +0.064 C 
ATOM     15  C   UNL     1      31.843 -22.636 -17.291  0.00  0.00    -0.035 C 
ATOM     16  C   UNL     1      35.892 -25.415 -14.674  0.00  0.00    +0.007 C 
ATOM     17  C   UNL     1      31.296 -25.332 -15.192  0.00  0.00    +0.004 C 
ATOM     18  C   UNL     1      29.501 -23.244 -16.777  0.00  0.00    +0.051 C 
ATOM     19  C   UNL     1      28.946 -23.410 -14.327  0.00  0.00    +0.030 C 
ATOM     20  C   UNL     1      28.633 -22.705 -15.643  0.00  0.00    +0.115 C 
ENDROOT
BRANCH  20  21
ATOM     21  O   UNL     1      27.266 -22.914 -15.981  0.00  0.00    -0.384 OA
ATOM     22  H   UNL     1      26.903 -23.628 -15.433  0.00  0.00    +0.210 HD
ENDBRANCH  20  21
TORSDOF 1
ENDMDL
MODEL 5
REMARK VINA RESULT:      -7.1      9.275     13.547
REMARK  Name = 5881
REMARK  1 active torsions:
REMARK  status: ('A' for Active; 'I' for Inactive)
REMARK    1  A    between atoms: C_20  and  O_21
REMARK                            x       y       z     vdW  Elec       q    Type
REMARK                         _______ _______ _______ _____ _____    ______ ____
ROOT
ATOM      1  O   UNL     1      33.076  -6.390 -22.989  0.00  0.00    -0.296 OA
ATOM      2  C   UNL     1      33.257 -11.605 -22.503  0.00  0.00    +0.004 C 
ATOM      3  C   UNL     1      32.124 -10.956 -21.652  0.00  0.00    +0.005 C 
ATOM      4  C   UNL     1      32.404  -9.458 -21.506  0.00  0.00    +0.007 C 
ATOM      5  C   UNL     1      32.475  -8.744 -22.869  0.00  0.00    +0.052 C 
ATOM      6  C   UNL     1      33.001 -13.149 -22.725  0.00  0.00    +0.015 C 
ATOM      7  C   UNL     1      33.564 -10.816 -23.808  0.00  0.00    +0.001 C 
ATOM      8  C   UNL     1      33.689  -9.295 -23.611  0.00  0.00    +0.007 C 
ATOM      9  C   UNL     1      31.461  -8.592 -20.677  0.00  0.00    +0.008 C 
ATOM     10  C   UNL     1      32.039 -11.636 -20.279  0.00  0.00    +0.025 C 
ATOM     11  C   UNL     1      32.559 -13.820 -21.416  0.00  0.00    -0.047 C 
ATOM     12  C   UNL     1      34.331 -13.799 -23.209  0.00  0.00    +0.006 C 
ATOM     13  C   UNL     1      32.578  -7.317 -22.364  0.00  0.00    +0.150 C 
ATOM     14  C   UNL     1      31.948  -7.169 -20.988  0.00  0.00    +0.064 C 
ATOM     15  C   UNL     1      32.150 -13.126 -20.341  0.00  0.00    -0.035 C 
ATOM     16  C   UNL     1      31.203  -8.817 -23.733  0.00  0.00    +0.007 C 
ATOM     17  C   UNL     1      31.897 -13.390 -23.781  0.00  0.00    +0.004 C 
ATOM     18  C   UNL     1      32.604 -15.329 -21.367  0.00  0.00    +0.051 C 
ATOM     19  C   UNL     1      34.323 -15.327 -23.207  0.00  0.00    +0.030 C 
ATOM     20  C   UNL     1      33.952 -15.874 -21.832  0.00  0.00    +0.115 C 
ENDROOT
BRANCH  20  21
ATOM     21  O   UNL     1      33.871 -17.294 -21.892  0.00  0.00    -0.384 OA
ATOM     22  H   UNL     1      32.967 -17.575 -21.680  0.00  0.00    +0.210 HD
ENDBRANCH  20  21
TORSDOF 1
ENDMDL
MODEL 6
REMARK VINA RESULT:      -7.0      6.010      9.338
REMARK  Name = 5881
REMARK  1 active torsions:
REMARK  status: ('A' for Active; 'I' for Inactive)
REMARK    1  A    between atoms: C_20  and  O_21
REMARK                            x       y       z     vdW  Elec       q    Type
REMARK                         _______ _______ _______ _____ _____    ______ ____
ROOT
ATOM      1  O   UNL     1      36.081 -19.708 -20.085  0.00  0.00    -0.296 OA
ATOM      2  C   UNL     1      34.545 -15.567 -22.905  0.00  0.00    +0.004 C 
ATOM      3  C   UNL     1      34.141 -16.925 -23.554  0.00  0.00    +0.005 C 
ATOM      4  C   UNL     1      34.974 -18.046 -22.927  0.00  0.00    +0.007 C 
ATOM      5  C   UNL     1      34.769 -18.140 -21.403  0.00  0.00    +0.052 C 
ATOM      6  C   UNL     1      33.686 -14.372 -23.484  0.00  0.00    +0.015 C 
ATOM      7  C   UNL     1      34.589 -15.626 -21.352  0.00  0.00    +0.001 C 
ATOM      8  C   UNL     1      35.318 -16.857 -20.787  0.00  0.00    +0.007 C 
ATOM      9  C   UNL     1      34.802 -19.479 -23.419  0.00  0.00    +0.008 C 
ATOM     10  C   UNL     1      34.352 -16.868 -25.074  0.00  0.00    +0.025 C 
ATOM     11  C   UNL     1      33.571 -14.476 -25.012  0.00  0.00    -0.047 C 
ATOM     12  C   UNL     1      34.397 -13.036 -23.115  0.00  0.00    +0.006 C 
ATOM     13  C   UNL     1      35.564 -19.408 -21.153  0.00  0.00    +0.150 C 
ATOM     14  C   UNL     1      35.609 -20.287 -22.393  0.00  0.00    +0.064 C 
ATOM     15  C   UNL     1      33.886 -15.590 -25.695  0.00  0.00    -0.035 C 
ATOM     16  C   UNL     1      33.329 -18.421 -20.937  0.00  0.00    +0.007 C 
ATOM     17  C   UNL     1      32.255 -14.371 -22.897  0.00  0.00    +0.004 C 
ATOM     18  C   UNL     1      33.085 -13.251 -25.751  0.00  0.00    +0.051 C 
ATOM     19  C   UNL     1      33.841 -11.807 -23.832  0.00  0.00    +0.030 C 
ATOM     20  C   UNL     1      33.857 -11.998 -25.345  0.00  0.00    +0.115 C 
ENDROOT
BRANCH  20  21
ATOM     21  O   UNL     1      33.254 -10.871 -25.973  0.00  0.00    -0.384 OA
ATOM     22  H   UNL     1      32.303 -11.031 -26.080  0.00  0.00    +0.210 HD
ENDBRANCH  20  21
TORSDOF 1
ENDMDL
MODEL 7
REMARK VINA RESULT:      -6.8      6.446      9.639
REMARK  Name = 5881
REMARK  1 active torsions:
REMARK  status: ('A' for Active; 'I' for Inactive)
REMARK    1  A    between atoms: C_20  and  O_21
REMARK                            x       y       z     vdW  Elec       q    Type
REMARK                         _______ _______ _______ _____ _____    ______ ____
ROOT
ATOM      1  O   UNL     1      35.223 -20.035 -24.187  0.00  0.00    -0.296 OA
ATOM      2  C   UNL     1      33.396 -15.369 -22.649  0.00  0.00    +0.004 C 
ATOM      3  C   UNL     1      33.741 -16.309 -21.455  0.00  0.00    +0.005 C 
ATOM      4  C   UNL     1      33.845 -17.748 -21.964  0.00  0.00    +0.007 C 
ATOM      5  C   UNL     1      34.927 -17.904 -23.050  0.00  0.00    +0.052 C 
ATOM      6  C   UNL     1      33.316 -13.859 -22.192  0.00  0.00    +0.015 C 
ATOM      7  C   UNL     1      34.300 -15.612 -23.892  0.00  0.00    +0.001 C 
ATOM      8  C   UNL     1      34.478 -17.095 -24.263  0.00  0.00    +0.007 C 
ATOM      9  C   UNL     1      34.133 -18.877 -20.981  0.00  0.00    +0.008 C 
ATOM     10  C   UNL     1      32.669 -16.188 -20.362  0.00  0.00    +0.025 C 
ATOM     11  C   UNL     1      32.533 -13.729 -20.878  0.00  0.00    -0.047 C 
ATOM     12  C   UNL     1      32.586 -13.049 -23.305  0.00  0.00    +0.006 C 
ATOM     13  C   UNL     1      34.883 -19.415 -23.187  0.00  0.00    +0.150 C 
ATOM     14  C   UNL     1      34.394 -20.074 -21.908  0.00  0.00    +0.064 C 
ATOM     15  C   UNL     1      32.247 -14.780 -20.091  0.00  0.00    -0.035 C 
ATOM     16  C   UNL     1      36.361 -17.540 -22.625  0.00  0.00    +0.007 C 
ATOM     17  C   UNL     1      34.727 -13.263 -21.967  0.00  0.00    +0.004 C 
ATOM     18  C   UNL     1      32.072 -12.345 -20.484  0.00  0.00    +0.051 C 
ATOM     19  C   UNL     1      32.189 -11.632 -22.896  0.00  0.00    +0.030 C 
ATOM     20  C   UNL     1      31.344 -11.641 -21.626  0.00  0.00    +0.115 C 
ENDROOT
BRANCH  20  21
ATOM     21  O   UNL     1      31.067 -10.302 -21.230  0.00  0.00    -0.384 OA
ATOM     22  H   UNL     1      31.009  -9.738 -22.017  0.00  0.00    +0.210 HD
ENDBRANCH  20  21
TORSDOF 1
ENDMDL
MODEL 8
REMARK VINA RESULT:      -6.7      1.159      6.720
REMARK  Name = 5881
REMARK  1 active torsions:
REMARK  status: ('A' for Active; 'I' for Inactive)
REMARK    1  A    between atoms: C_20  and  O_21
REMARK                            x       y       z     vdW  Elec       q    Type
REMARK                         _______ _______ _______ _____ _____    ______ ____
ROOT
ATOM      1  O   UNL     1      36.534 -19.446 -20.386  0.00  0.00    -0.296 OA
ATOM      2  C   UNL     1      36.008 -22.284 -16.011  0.00  0.00    +0.004 C 
ATOM      3  C   UNL     1      35.067 -22.760 -17.159  0.00  0.00    +0.005 C 
ATOM      4  C   UNL     1      34.963 -21.654 -18.212  0.00  0.00    +0.007 C 
ATOM      5  C   UNL     1      36.336 -21.289 -18.810  0.00  0.00    +0.052 C 
ATOM      6  C   UNL     1      36.189 -23.403 -14.910  0.00  0.00    +0.015 C 
ATOM      7  C   UNL     1      37.344 -21.680 -16.532  0.00  0.00    +0.001 C 
ATOM      8  C   UNL     1      37.176 -20.681 -17.691  0.00  0.00    +0.007 C 
ATOM      9  C   UNL     1      34.064 -21.851 -19.427  0.00  0.00    +0.008 C 
ATOM     10  C   UNL     1      33.684 -23.115 -16.596  0.00  0.00    +0.025 C 
ATOM     11  C   UNL     1      34.839 -24.048 -14.563  0.00  0.00    -0.047 C 
ATOM     12  C   UNL     1      36.782 -22.740 -13.632  0.00  0.00    +0.006 C 
ATOM     13  C   UNL     1      35.857 -20.338 -19.892  0.00  0.00    +0.150 C 
ATOM     14  C   UNL     1      34.433 -20.656 -20.318  0.00  0.00    +0.064 C 
ATOM     15  C   UNL     1      33.739 -23.893 -15.320  0.00  0.00    -0.035 C 
ATOM     16  C   UNL     1      37.082 -22.431 -19.522  0.00  0.00    +0.007 C 
ATOM     17  C   UNL     1      37.141 -24.522 -15.397  0.00  0.00    +0.004 C 
ATOM     18  C   UNL     1      34.777 -24.882 -13.306  0.00  0.00    +0.051 C 
ATOM     19  C   UNL     1      36.762 -23.632 -12.392  0.00  0.00    +0.030 C 
ATOM     20  C   UNL     1      35.353 -24.141 -12.102  0.00  0.00    +0.115 C 
ENDROOT
BRANCH  20  21
ATOM     21  O   UNL     1      35.390 -25.035 -10.995  0.00  0.00    -0.384 OA
ATOM     22  H   UNL     1      35.034 -24.591 -10.209  0.00  0.00    +0.210 HD
ENDBRANCH  20  21
TORSDOF 1
ENDMDL
MODEL 9
REMARK VINA RESULT:      -6.6      8.314     11.772
REMARK  Name = 5881
REMARK  1 active torsions:
REMARK  status: ('A' for Active; 'I' for Inactive)
REMARK    1  A    between atoms: C_20  and  O_21
REMARK                            x       y       z     vdW  Elec       q    Type
REMARK                         _______ _______ _______ _____ _____    ______ ____
ROOT
ATOM      1  O   UNL     1      34.960 -17.136 -20.627  0.00  0.00    -0.296 OA
ATOM      2  C   UNL     1      33.050 -12.328 -21.464  0.00  0.00    +0.004 C 
ATOM      3  C   UNL     1      33.182 -13.164 -22.772  0.00  0.00    +0.005 C 
ATOM      4  C   UNL     1      34.120 -14.346 -22.519  0.00  0.00    +0.007 C 
ATOM      5  C   UNL     1      33.609 -15.262 -21.390  0.00  0.00    +0.052 C 
ATOM      6  C   UNL     1      32.058 -11.112 -21.652  0.00  0.00    +0.015 C 
ATOM      7  C   UNL     1      32.757 -13.203 -20.211  0.00  0.00    +0.001 C 
ATOM      8  C   UNL     1      33.642 -14.456 -20.095  0.00  0.00    +0.007 C 
ATOM      9  C   UNL     1      34.452 -15.303 -23.658  0.00  0.00    +0.008 C 
ATOM     10  C   UNL     1      33.706 -12.280 -23.913  0.00  0.00    +0.025 C 
ATOM     11  C   UNL     1      32.322 -10.395 -22.983  0.00  0.00    -0.047 C 
ATOM     12  C   UNL     1      32.283 -10.112 -20.479  0.00  0.00    +0.006 C 
ATOM     13  C   UNL     1      34.636 -16.371 -21.526  0.00  0.00    +0.150 C 
ATOM     14  C   UNL     1      35.193 -16.440 -22.939  0.00  0.00    +0.064 C 
ATOM     15  C   UNL     1      33.069 -10.929 -23.965  0.00  0.00    -0.035 C 
ATOM     16  C   UNL     1      32.230 -15.906 -21.621  0.00  0.00    +0.007 C 
ATOM     17  C   UNL     1      30.584 -11.583 -21.647  0.00  0.00    +0.004 C 
ATOM     18  C   UNL     1      31.706  -9.027 -23.164  0.00  0.00    +0.051 C 
ATOM     19  C   UNL     1      31.596  -8.760 -20.663  0.00  0.00    +0.030 C 
ATOM     20  C   UNL     1      32.003  -8.109 -21.981  0.00  0.00    +0.115 C 
ENDROOT
BRANCH  20  21
ATOM     21  O   UNL     1      31.279  -6.896 -22.156  0.00  0.00    -0.384 OA
ATOM     22  H   UNL     1      31.889  -6.144 -22.101  0.00  0.00    +0.210 HD
ENDBRANCH  20  21
TORSDOF 1
ENDMDL
