MODEL 1
REMARK VINA RESULT:      -5.4      0.000      0.000
REMARK  Name = 5281077
REMARK  4 active torsions:
REMARK  status: ('A' for Active; 'I' for Inactive)
REMARK    1  A    between atoms: C_1  and  C_3
REMARK    2  A    between atoms: C_1  and  O_5
REMARK    3  A    between atoms: C_1  and  C_7
REMARK    4  A    between atoms: C_1  and  C_9
REMARK                            x       y       z     vdW  Elec       q    Type
REMARK                         _______ _______ _______ _____ _____    ______ ____
ROOT
ATOM      1  C   UNL     1      34.795 -18.705 -21.449  0.00  0.00    +0.162 C 
ENDROOT
BRANCH   1   3
ATOM      2 CL   UNL     1      34.107 -14.678 -20.834  0.00  0.00    -0.082 Cl
ATOM      3  C   UNL     1      34.261 -17.288 -21.451  0.00  0.00    +0.025 C 
ATOM      4  C   UNL     1      34.782 -16.253 -20.781  0.00  0.00    +0.067 C 
ENDBRANCH   1   3
BRANCH   1   5
ATOM      5  O   UNL     1      35.975 -18.794 -20.648  0.00  0.00    -0.372 OA
ATOM      6  H   UNL     1      35.953 -19.613 -20.129  0.00  0.00    +0.212 HD
ENDBRANCH   1   5
BRANCH   1   7
ATOM      7  C   UNL     1      35.129 -19.182 -22.880  0.00  0.00    +0.044 C 
ATOM      8  C   UNL     1      34.835 -18.150 -23.966  0.00  0.00    +0.004 C 
ENDBRANCH   1   7
BRANCH   1   9
ATOM      9  C   UNL     1      33.760 -19.581 -20.859  0.00  0.00    -0.048 C 
ATOM     10  C   UNL     1      32.920 -20.289 -20.375  0.00  0.00    -0.012 C 
ENDBRANCH   1   9
TORSDOF 4
ENDMDL
MODEL 2
REMARK VINA RESULT:      -5.2      2.245      2.984
REMARK  Name = 5281077
REMARK  4 active torsions:
REMARK  status: ('A' for Active; 'I' for Inactive)
REMARK    1  A    between atoms: C_1  and  C_3
REMARK    2  A    between atoms: C_1  and  O_5
REMARK    3  A    between atoms: C_1  and  C_7
REMARK    4  A    between atoms: C_1  and  C_9
REMARK                            x       y       z     vdW  Elec       q    Type
REMARK                         _______ _______ _______ _____ _____    ______ ____
ROOT
ATOM      1  C   UNL     1      35.241 -18.965 -21.217  0.00  0.00    +0.162 C 
ENDROOT
BRANCH   1   3
ATOM      2 CL   UNL     1      34.700 -17.946 -25.183  0.00  0.00    -0.082 Cl
ATOM      3  C   UNL     1      35.242 -18.894 -22.729  0.00  0.00    +0.025 C 
ATOM      4  C   UNL     1      34.658 -17.945 -23.470  0.00  0.00    +0.067 C 
ENDBRANCH   1   3
BRANCH   1   5
ATOM      5  O   UNL     1      35.284 -17.652 -20.654  0.00  0.00    -0.372 OA
ATOM      6  H   UNL     1      34.429 -17.447 -20.245  0.00  0.00    +0.212 HD
ENDBRANCH   1   5
BRANCH   1   7
ATOM      7  C   UNL     1      36.451 -19.769 -20.691  0.00  0.00    +0.044 C 
ATOM      8  C   UNL     1      36.078 -21.078 -19.999  0.00  0.00    +0.004 C 
ENDBRANCH   1   7
BRANCH   1   9
ATOM      9  C   UNL     1      33.984 -19.616 -20.791  0.00  0.00    -0.048 C 
ATOM     10  C   UNL     1      32.961 -20.142 -20.448  0.00  0.00    -0.012 C 
ENDBRANCH   1   9
TORSDOF 4
ENDMDL
MODEL 3
REMARK VINA RESULT:      -5.2      4.926      6.152
REMARK  Name = 5281077
REMARK  4 active torsions:
REMARK  status: ('A' for Active; 'I' for Inactive)
REMARK    1  A    between atoms: C_1  and  C_3
REMARK    2  A    between atoms: C_1  and  O_5
REMARK    3  A    between atoms: C_1  and  C_7
REMARK    4  A    between atoms: C_1  and  C_9
REMARK                            x       y       z     vdW  Elec       q    Type
REMARK                         _______ _______ _______ _____ _____    ______ ____
ROOT
ATOM      1  C   UNL     1      34.034 -22.433 -18.924  0.00  0.00    +0.162 C 
ENDROOT
BRANCH   1   3
ATOM      2 CL   UNL     1      32.361 -23.664 -15.354  0.00  0.00    -0.082 Cl
ATOM      3  C   UNL     1      33.109 -22.774 -17.775  0.00  0.00    +0.025 C 
ATOM      4  C   UNL     1      33.478 -23.301 -16.602  0.00  0.00    +0.067 C 
ENDBRANCH   1   3
BRANCH   1   5
ATOM      5  O   UNL     1      34.164 -23.548 -19.809  0.00  0.00    -0.372 OA
ATOM      6  H   UNL     1      33.283 -23.881 -20.042  0.00  0.00    +0.212 HD
ENDBRANCH   1   5
BRANCH   1   7
ATOM      7  C   UNL     1      35.439 -22.037 -18.417  0.00  0.00    +0.044 C 
ATOM      8  C   UNL     1      36.326 -21.390 -19.478  0.00  0.00    +0.004 C 
ENDBRANCH   1   7
BRANCH   1   9
ATOM      9  C   UNL     1      33.437 -21.308 -19.673  0.00  0.00    -0.048 C 
ATOM     10  C   UNL     1      32.948 -20.396 -20.282  0.00  0.00    -0.012 C 
ENDBRANCH   1   9
TORSDOF 4
ENDMDL
MODEL 4
REMARK VINA RESULT:      -5.1      2.422      3.450
REMARK  Name = 5281077
REMARK  4 active torsions:
REMARK  status: ('A' for Active; 'I' for Inactive)
REMARK    1  A    between atoms: C_1  and  C_3
REMARK    2  A    between atoms: C_1  and  O_5
REMARK    3  A    between atoms: C_1  and  C_7
REMARK    4  A    between atoms: C_1  and  C_9
REMARK                            x       y       z     vdW  Elec       q    Type
REMARK                         _______ _______ _______ _____ _____    ______ ____
ROOT
ATOM      1  C   UNL     1      35.342 -18.234 -22.450  0.00  0.00    +0.162 C 
ENDROOT
BRANCH   1   3
ATOM      2 CL   UNL     1      33.226 -20.717 -19.916  0.00  0.00    -0.082 Cl
ATOM      3  C   UNL     1      34.902 -19.261 -21.428  0.00  0.00    +0.025 C 
ATOM      4  C   UNL     1      33.637 -19.541 -21.092  0.00  0.00    +0.067 C 
ENDBRANCH   1   3
BRANCH   1   5
ATOM      5  O   UNL     1      36.768 -18.191 -22.534  0.00  0.00    -0.372 OA
ATOM      6  H   UNL     1      37.149 -18.790 -21.873  0.00  0.00    +0.212 HD
ENDBRANCH   1   5
BRANCH   1   7
ATOM      7  C   UNL     1      34.824 -16.824 -22.089  0.00  0.00    +0.044 C 
ATOM      8  C   UNL     1      34.912 -15.815 -23.231  0.00  0.00    +0.004 C 
ENDBRANCH   1   7
BRANCH   1   9
ATOM      9  C   UNL     1      34.807 -18.642 -23.766  0.00  0.00    -0.048 C 
ATOM     10  C   UNL     1      34.369 -18.970 -24.835  0.00  0.00    -0.012 C 
ENDBRANCH   1   9
TORSDOF 4
ENDMDL
MODEL 5
REMARK VINA RESULT:      -5.0      1.425      2.605
REMARK  Name = 5281077
REMARK  4 active torsions:
REMARK  status: ('A' for Active; 'I' for Inactive)
REMARK    1  A    between atoms: C_1  and  C_3
REMARK    2  A    between atoms: C_1  and  O_5
REMARK    3  A    between atoms: C_1  and  C_7
REMARK    4  A    between atoms: C_1  and  C_9
REMARK                            x       y       z     vdW  Elec       q    Type
REMARK                         _______ _______ _______ _____ _____    ______ ____
ROOT
ATOM      1  C   UNL     1      34.578 -19.061 -21.587  0.00  0.00    +0.162 C 
ENDROOT
BRANCH   1   3
ATOM      2 CL   UNL     1      34.412 -15.062 -20.565  0.00  0.00    -0.082 Cl
ATOM      3  C   UNL     1      34.156 -17.646 -21.250  0.00  0.00    +0.025 C 
ATOM      4  C   UNL     1      34.977 -16.635 -20.942  0.00  0.00    +0.067 C 
ENDBRANCH   1   3
BRANCH   1   5
ATOM      5  O   UNL     1      33.581 -19.994 -21.167  0.00  0.00    -0.372 OA
ATOM      6  H   UNL     1      34.006 -20.743 -20.720  0.00  0.00    +0.212 HD
ENDBRANCH   1   5
BRANCH   1   7
ATOM      7  C   UNL     1      35.916 -19.425 -20.906  0.00  0.00    +0.044 C 
ATOM      8  C   UNL     1      35.893 -20.753 -20.154  0.00  0.00    +0.004 C 
ENDBRANCH   1   7
BRANCH   1   9
ATOM      9  C   UNL     1      34.722 -19.157 -23.055  0.00  0.00    -0.048 C 
ATOM     10  C   UNL     1      34.843 -19.237 -24.247  0.00  0.00    -0.012 C 
ENDBRANCH   1   9
TORSDOF 4
ENDMDL
MODEL 6
REMARK VINA RESULT:      -5.0      2.009      3.297
REMARK  Name = 5281077
REMARK  4 active torsions:
REMARK  status: ('A' for Active; 'I' for Inactive)
REMARK    1  A    between atoms: C_1  and  C_3
REMARK    2  A    between atoms: C_1  and  O_5
REMARK    3  A    between atoms: C_1  and  C_7
REMARK    4  A    between atoms: C_1  and  C_9
REMARK                            x       y       z     vdW  Elec       q    Type
REMARK                         _______ _______ _______ _____ _____    ______ ____
ROOT
ATOM      1  C   UNL     1      35.366 -18.635 -21.509  0.00  0.00    +0.162 C 
ENDROOT
BRANCH   1   3
ATOM      2 CL   UNL     1      34.489 -17.937 -25.484  0.00  0.00    -0.082 Cl
ATOM      3  C   UNL     1      34.968 -18.738 -22.966  0.00  0.00    +0.025 C 
ATOM      4  C   UNL     1      34.962 -17.734 -23.850  0.00  0.00    +0.067 C 
ENDBRANCH   1   3
BRANCH   1   5
ATOM      5  O   UNL     1      36.779 -18.790 -21.363  0.00  0.00    -0.372 OA
ATOM      6  H   UNL     1      37.002 -18.858 -20.421  0.00  0.00    +0.212 HD
ENDBRANCH   1   5
BRANCH   1   7
ATOM      7  C   UNL     1      34.658 -19.711 -20.656  0.00  0.00    +0.044 C 
ATOM      8  C   UNL     1      33.144 -19.763 -20.846  0.00  0.00    +0.004 C 
ENDBRANCH   1   7
BRANCH   1   9
ATOM      9  C   UNL     1      34.990 -17.288 -21.027  0.00  0.00    -0.048 C 
ATOM     10  C   UNL     1      34.683 -16.194 -20.641  0.00  0.00    -0.012 C 
ENDBRANCH   1   9
TORSDOF 4
ENDMDL
MODEL 7
REMARK VINA RESULT:      -4.9      9.425     10.902
REMARK  Name = 5281077
REMARK  4 active torsions:
REMARK  status: ('A' for Active; 'I' for Inactive)
REMARK    1  A    between atoms: C_1  and  C_3
REMARK    2  A    between atoms: C_1  and  O_5
REMARK    3  A    between atoms: C_1  and  C_7
REMARK    4  A    between atoms: C_1  and  C_9
REMARK                            x       y       z     vdW  Elec       q    Type
REMARK                         _______ _______ _______ _____ _____    ______ ____
ROOT
ATOM      1  C   UNL     1      32.716  -7.532 -20.966  0.00  0.00    +0.162 C 
ENDROOT
BRANCH   1   3
ATOM      2 CL   UNL     1      31.104 -11.149 -19.790  0.00  0.00    -0.082 Cl
ATOM      3  C   UNL     1      31.997  -8.862 -20.879  0.00  0.00    +0.025 C 
ATOM      4  C   UNL     1      31.936  -9.651 -19.800  0.00  0.00    +0.067 C 
ENDBRANCH   1   3
BRANCH   1   5
ATOM      5  O   UNL     1      33.487  -7.302 -19.785  0.00  0.00    -0.372 OA
ATOM      6  H   UNL     1      32.904  -6.997 -19.072  0.00  0.00    +0.212 HD
ENDBRANCH   1   5
BRANCH   1   7
ATOM      7  C   UNL     1      31.719  -6.365 -21.144  0.00  0.00    +0.044 C 
ATOM      8  C   UNL     1      30.971  -6.380 -22.474  0.00  0.00    +0.004 C 
ENDBRANCH   1   7
BRANCH   1   9
ATOM      9  C   UNL     1      33.635  -7.585 -22.123  0.00  0.00    -0.048 C 
ATOM     10  C   UNL     1      34.385  -7.631 -23.059  0.00  0.00    -0.012 C 
ENDBRANCH   1   9
TORSDOF 4
ENDMDL
MODEL 8
REMARK VINA RESULT:      -4.9      1.480      2.525
REMARK  Name = 5281077
REMARK  4 active torsions:
REMARK  status: ('A' for Active; 'I' for Inactive)
REMARK    1  A    between atoms: C_1  and  C_3
REMARK    2  A    between atoms: C_1  and  O_5
REMARK    3  A    between atoms: C_1  and  C_7
REMARK    4  A    between atoms: C_1  and  C_9
REMARK                            x       y       z     vdW  Elec       q    Type
REMARK                         _______ _______ _______ _____ _____    ______ ____
ROOT
ATOM      1  C   UNL     1      34.652 -19.096 -21.491  0.00  0.00    +0.162 C 
ENDROOT
BRANCH   1   3
ATOM      2 CL   UNL     1      34.647 -15.009 -20.895  0.00  0.00    -0.082 Cl
ATOM      3  C   UNL     1      34.973 -17.617 -21.445  0.00  0.00    +0.025 C 
ATOM      4  C   UNL     1      34.210 -16.666 -20.896  0.00  0.00    +0.067 C 
ENDBRANCH   1   3
BRANCH   1   5
ATOM      5  O   UNL     1      34.659 -19.569 -22.839  0.00  0.00    -0.372 OA
ATOM      6  H   UNL     1      33.883 -20.131 -22.989  0.00  0.00    +0.212 HD
ENDBRANCH   1   5
BRANCH   1   7
ATOM      7  C   UNL     1      33.269 -19.390 -20.869  0.00  0.00    +0.044 C 
ATOM      8  C   UNL     1      33.173 -20.745 -20.171  0.00  0.00    +0.004 C 
ENDBRANCH   1   7
BRANCH   1   9
ATOM      9  C   UNL     1      35.702 -19.814 -20.737  0.00  0.00    -0.048 C 
ATOM     10  C   UNL     1      36.551 -20.400 -20.123  0.00  0.00    -0.012 C 
ENDBRANCH   1   9
TORSDOF 4
ENDMDL
MODEL 9
REMARK VINA RESULT:      -4.8      3.857      5.517
REMARK  Name = 5281077
REMARK  4 active torsions:
REMARK  status: ('A' for Active; 'I' for Inactive)
REMARK    1  A    between atoms: C_1  and  C_3
REMARK    2  A    between atoms: C_1  and  O_5
REMARK    3  A    between atoms: C_1  and  C_7
REMARK    4  A    between atoms: C_1  and  C_9
REMARK                            x       y       z     vdW  Elec       q    Type
REMARK                         _______ _______ _______ _____ _____    ______ ____
ROOT
ATOM      1  C   UNL     1      34.039 -22.470 -18.830  0.00  0.00    +0.162 C 
ENDROOT
BRANCH   1   3
ATOM      2 CL   UNL     1      33.405 -19.125 -21.168  0.00  0.00    -0.082 Cl
ATOM      3  C   UNL     1      33.455 -21.311 -19.608  0.00  0.00    +0.025 C 
ATOM      4  C   UNL     1      34.148 -20.415 -20.321  0.00  0.00    +0.067 C 
ENDBRANCH   1   3
BRANCH   1   5
ATOM      5  O   UNL     1      34.136 -23.631 -19.658  0.00  0.00    -0.372 OA
ATOM      6  H   UNL     1      33.391 -24.223 -19.474  0.00  0.00    +0.212 HD
ENDBRANCH   1   5
BRANCH   1   7
ATOM      7  C   UNL     1      33.174 -22.813 -17.597  0.00  0.00    +0.044 C 
ATOM      8  C   UNL     1      33.945 -23.473 -16.457  0.00  0.00    +0.004 C 
ENDBRANCH   1   7
BRANCH   1   9
ATOM      9  C   UNL     1      35.400 -22.089 -18.396  0.00  0.00    -0.048 C 
ATOM     10  C   UNL     1      36.506 -21.784 -18.042  0.00  0.00    -0.012 C 
ENDBRANCH   1   9
TORSDOF 4
ENDMDL
