MODEL 1
REMARK VINA RESULT:      -9.0      0.000      0.000
REMARK  Name = 5311017
REMARK  5 active torsions:
REMARK  status: ('A' for Active; 'I' for Inactive)
REMARK    1  A    between atoms: N_1  and  C_4
REMARK    2  A    between atoms: N_1  and  C_13
REMARK    3  A    between atoms: C_4  and  C_6
REMARK    4  A    between atoms: C_6  and  C_7
REMARK    5  A    between atoms: C_13  and  C_14
REMARK                            x       y       z     vdW  Elec       q    Type
REMARK                         _______ _______ _______ _____ _____    ______ ____
ROOT
ATOM      1  N   UNL     1      34.431 -17.225 -22.256  0.00  0.00    +0.390 N 
ATOM      2  C   UNL     1      34.933 -16.714 -20.983  0.00  0.00    -0.100 C 
ATOM      3  H   UNL     1      33.452 -16.955 -22.349  0.00  0.00    -0.079 HD
ENDROOT
BRANCH   1   4
ATOM      4  C   UNL     1      34.519 -18.688 -22.289  0.00  0.00    -0.053 C 
ATOM      5  C   UNL     1      34.874 -19.117 -23.712  0.00  0.00    -0.023 C 
BRANCH   4   6
ATOM      6  C   UNL     1      35.555 -19.162 -21.254  0.00  0.00    +0.006 C 
BRANCH   6   7
ATOM      7  C   UNL     1      35.054 -20.274 -20.363  0.00  0.00    -0.024 C 
ATOM      8  C   UNL     1      35.967 -21.050 -19.667  0.00  0.00    -0.004 C 
ATOM      9  C   UNL     1      33.690 -20.496 -20.255  0.00  0.00    -0.004 C 
ATOM     10  C   UNL     1      35.505 -22.076 -18.844  0.00  0.00    -0.000 C 
ATOM     11  C   UNL     1      33.228 -21.522 -19.431  0.00  0.00    -0.000 C 
ATOM     12  C   UNL     1      34.135 -22.312 -18.725  0.00  0.00    -0.000 C 
ENDBRANCH   6   7
ENDBRANCH   4   6
ENDBRANCH   1   4
BRANCH   1  13
ATOM     13  C   UNL     1      35.177 -16.647 -23.373  0.00  0.00    -0.050 C 
BRANCH  13  14
ATOM     14  C   UNL     1      34.343 -15.670 -24.158  0.00  0.00    -0.043 C 
ATOM     15  C   UNL     1      34.061 -14.424 -23.618  0.00  0.00    -0.006 C 
ATOM     16  C   UNL     1      33.868 -16.030 -25.412  0.00  0.00    -0.006 C 
ATOM     17  C   UNL     1      33.289 -13.518 -24.346  0.00  0.00    -0.000 C 
ATOM     18  C   UNL     1      33.095 -15.124 -26.140  0.00  0.00    -0.000 C 
ATOM     19  C   UNL     1      32.807 -13.869 -25.606  0.00  0.00    -0.000 C 
ENDBRANCH  13  14
ENDBRANCH   1  13
TORSDOF 5
ENDMDL
MODEL 2
REMARK VINA RESULT:      -8.9      0.500      7.350
REMARK  Name = 5311017
REMARK  5 active torsions:
REMARK  status: ('A' for Active; 'I' for Inactive)
REMARK    1  A    between atoms: N_1  and  C_4
REMARK    2  A    between atoms: N_1  and  C_13
REMARK    3  A    between atoms: C_4  and  C_6
REMARK    4  A    between atoms: C_6  and  C_7
REMARK    5  A    between atoms: C_13  and  C_14
REMARK                            x       y       z     vdW  Elec       q    Type
REMARK                         _______ _______ _______ _____ _____    ______ ____
ROOT
ATOM      1  N   UNL     1      34.596 -18.667 -22.301  0.00  0.00    +0.390 N 
ATOM      2  C   UNL     1      34.982 -19.086 -23.647  0.00  0.00    -0.100 C 
ATOM      3  H   UNL     1      33.707 -19.110 -22.069  0.00  0.00    -0.079 HD
ENDROOT
BRANCH   1   4
ATOM      4  C   UNL     1      34.424 -17.212 -22.250  0.00  0.00    -0.053 C 
ATOM      5  C   UNL     1      34.908 -16.718 -20.887  0.00  0.00    -0.023 C 
BRANCH   4   6
ATOM      6  C   UNL     1      35.189 -16.564 -23.418  0.00  0.00    +0.006 C 
BRANCH   6   7
ATOM      7  C   UNL     1      34.350 -15.611 -24.235  0.00  0.00    -0.024 C 
ATOM      8  C   UNL     1      34.080 -14.346 -23.737  0.00  0.00    -0.004 C 
ATOM      9  C   UNL     1      33.866 -16.017 -25.468  0.00  0.00    -0.004 C 
ATOM     10  C   UNL     1      33.306 -13.465 -24.492  0.00  0.00    -0.000 C 
ATOM     11  C   UNL     1      33.091 -15.136 -26.223  0.00  0.00    -0.000 C 
ATOM     12  C   UNL     1      32.812 -13.860 -25.734  0.00  0.00    -0.000 C 
ENDBRANCH   6   7
ENDBRANCH   4   6
ENDBRANCH   1   4
BRANCH   1  13
ATOM     13  C   UNL     1      35.594 -19.095 -21.323  0.00  0.00    -0.050 C 
BRANCH  13  14
ATOM     14  C   UNL     1      35.079 -20.204 -20.445  0.00  0.00    -0.043 C 
ATOM     15  C   UNL     1      35.980 -21.009 -19.762  0.00  0.00    -0.006 C 
ATOM     16  C   UNL     1      33.710 -20.407 -20.331  0.00  0.00    -0.006 C 
ATOM     17  C   UNL     1      35.503 -22.037 -18.947  0.00  0.00    -0.000 C 
ATOM     18  C   UNL     1      33.234 -21.435 -19.516  0.00  0.00    -0.000 C 
ATOM     19  C   UNL     1      34.131 -22.249 -18.825  0.00  0.00    -0.000 C 
ENDBRANCH  13  14
ENDBRANCH   1  13
TORSDOF 5
ENDMDL
MODEL 3
REMARK VINA RESULT:      -8.7      1.398      2.523
REMARK  Name = 5311017
REMARK  5 active torsions:
REMARK  status: ('A' for Active; 'I' for Inactive)
REMARK    1  A    between atoms: N_1  and  C_4
REMARK    2  A    between atoms: N_1  and  C_13
REMARK    3  A    between atoms: C_4  and  C_6
REMARK    4  A    between atoms: C_6  and  C_7
REMARK    5  A    between atoms: C_13  and  C_14
REMARK                            x       y       z     vdW  Elec       q    Type
REMARK                         _______ _______ _______ _____ _____    ______ ____
ROOT
ATOM      1  N   UNL     1      35.157 -17.139 -24.081  0.00  0.00    +0.390 N 
ATOM      2  C   UNL     1      34.120 -16.557 -24.930  0.00  0.00    -0.100 C 
ATOM      3  H   UNL     1      35.987 -17.300 -24.650  0.00  0.00    -0.079 HD
ENDROOT
BRANCH   1   4
ATOM      4  C   UNL     1      34.707 -18.422 -23.533  0.00  0.00    -0.053 C 
ATOM      5  C   UNL     1      34.775 -19.470 -24.645  0.00  0.00    -0.023 C 
BRANCH   4   6
ATOM      6  C   UNL     1      35.574 -18.794 -22.317  0.00  0.00    +0.006 C 
BRANCH   6   7
ATOM      7  C   UNL     1      34.865 -19.671 -21.314  0.00  0.00    -0.024 C 
ATOM      8  C   UNL     1      33.488 -19.578 -21.184  0.00  0.00    -0.004 C 
ATOM      9  C   UNL     1      35.602 -20.554 -20.543  0.00  0.00    -0.004 C 
ATOM     10  C   UNL     1      32.832 -20.389 -20.258  0.00  0.00    -0.000 C 
ATOM     11  C   UNL     1      34.946 -21.366 -19.616  0.00  0.00    -0.000 C 
ATOM     12  C   UNL     1      33.561 -21.282 -19.474  0.00  0.00    -0.000 C 
ENDBRANCH   6   7
ENDBRANCH   4   6
ENDBRANCH   1   4
BRANCH   1  13
ATOM     13  C   UNL     1      35.511 -16.222 -22.999  0.00  0.00    -0.050 C 
BRANCH  13  14
ATOM     14  C   UNL     1      34.360 -15.325 -22.625  0.00  0.00    -0.043 C 
ATOM     15  C   UNL     1      34.177 -14.130 -23.306  0.00  0.00    -0.006 C 
ATOM     16  C   UNL     1      33.499 -15.707 -21.606  0.00  0.00    -0.006 C 
ATOM     17  C   UNL     1      33.111 -13.299 -22.960  0.00  0.00    -0.000 C 
ATOM     18  C   UNL     1      32.433 -14.876 -21.260  0.00  0.00    -0.000 C 
ATOM     19  C   UNL     1      32.240 -13.673 -21.938  0.00  0.00    -0.000 C 
ENDBRANCH  13  14
ENDBRANCH   1  13
TORSDOF 5
ENDMDL
MODEL 4
REMARK VINA RESULT:      -8.7      1.203      2.470
REMARK  Name = 5311017
REMARK  5 active torsions:
REMARK  status: ('A' for Active; 'I' for Inactive)
REMARK    1  A    between atoms: N_1  and  C_4
REMARK    2  A    between atoms: N_1  and  C_13
REMARK    3  A    between atoms: C_4  and  C_6
REMARK    4  A    between atoms: C_6  and  C_7
REMARK    5  A    between atoms: C_13  and  C_14
REMARK                            x       y       z     vdW  Elec       q    Type
REMARK                         _______ _______ _______ _____ _____    ______ ____
ROOT
ATOM      1  N   UNL     1      34.807 -16.061 -23.303  0.00  0.00    +0.390 N 
ATOM      2  C   UNL     1      34.918 -17.052 -24.370  0.00  0.00    -0.100 C 
ATOM      3  H   UNL     1      35.544 -15.368 -23.428  0.00  0.00    -0.079 HD
ENDROOT
BRANCH   1   4
ATOM      4  C   UNL     1      34.981 -16.700 -21.995  0.00  0.00    -0.053 C 
ATOM      5  C   UNL     1      34.588 -15.695 -20.912  0.00  0.00    -0.023 C 
BRANCH   4   6
ATOM      6  C   UNL     1      34.140 -17.988 -21.937  0.00  0.00    +0.006 C 
BRANCH   6   7
ATOM      7  C   UNL     1      34.783 -19.095 -21.138  0.00  0.00    -0.024 C 
ATOM      8  C   UNL     1      36.162 -19.124 -21.006  0.00  0.00    -0.004 C 
ATOM      9  C   UNL     1      33.983 -20.062 -20.551  0.00  0.00    -0.004 C 
ATOM     10  C   UNL     1      36.757 -20.146 -20.267  0.00  0.00    -0.000 C 
ATOM     11  C   UNL     1      34.579 -21.085 -19.811  0.00  0.00    -0.000 C 
ATOM     12  C   UNL     1      35.965 -21.127 -19.670  0.00  0.00    -0.000 C 
ENDBRANCH   6   7
ENDBRANCH   4   6
ENDBRANCH   1   4
BRANCH   1  13
ATOM     13  C   UNL     1      33.516 -15.379 -23.366  0.00  0.00    -0.050 C 
BRANCH  13  14
ATOM     14  C   UNL     1      33.525 -14.254 -24.367  0.00  0.00    -0.043 C 
ATOM     15  C   UNL     1      33.148 -14.504 -25.679  0.00  0.00    -0.006 C 
ATOM     16  C   UNL     1      33.910 -12.982 -23.964  0.00  0.00    -0.006 C 
ATOM     17  C   UNL     1      33.156 -13.461 -26.607  0.00  0.00    -0.000 C 
ATOM     18  C   UNL     1      33.917 -11.940 -24.892  0.00  0.00    -0.000 C 
ATOM     19  C   UNL     1      33.540 -12.181 -26.212  0.00  0.00    -0.000 C 
ENDBRANCH  13  14
ENDBRANCH   1  13
TORSDOF 5
ENDMDL
MODEL 5
REMARK VINA RESULT:      -8.7      1.177      7.490
REMARK  Name = 5311017
REMARK  5 active torsions:
REMARK  status: ('A' for Active; 'I' for Inactive)
REMARK    1  A    between atoms: N_1  and  C_4
REMARK    2  A    between atoms: N_1  and  C_13
REMARK    3  A    between atoms: C_4  and  C_6
REMARK    4  A    between atoms: C_6  and  C_7
REMARK    5  A    between atoms: C_13  and  C_14
REMARK                            x       y       z     vdW  Elec       q    Type
REMARK                         _______ _______ _______ _____ _____    ______ ____
ROOT
ATOM      1  N   UNL     1      34.913 -16.608 -21.800  0.00  0.00    +0.390 N 
ATOM      2  C   UNL     1      34.567 -15.608 -20.791  0.00  0.00    -0.100 C 
ATOM      3  H   UNL     1      35.873 -16.909 -21.639  0.00  0.00    -0.079 HD
ENDROOT
BRANCH   1   4
ATOM      4  C   UNL     1      34.820 -16.029 -23.143  0.00  0.00    -0.053 C 
ATOM      5  C   UNL     1      34.980 -17.155 -24.165  0.00  0.00    -0.023 C 
BRANCH   4   6
ATOM      6  C   UNL     1      33.481 -15.284 -23.290  0.00  0.00    +0.006 C 
BRANCH   6   7
ATOM      7  C   UNL     1      33.500 -14.207 -24.348  0.00  0.00    -0.024 C 
ATOM      8  C   UNL     1      33.869 -12.918 -23.998  0.00  0.00    -0.004 C 
ATOM      9  C   UNL     1      33.151 -14.528 -25.650  0.00  0.00    -0.004 C 
ATOM     10  C   UNL     1      33.888 -11.923 -24.975  0.00  0.00    -0.000 C 
ATOM     11  C   UNL     1      33.169 -13.532 -26.627  0.00  0.00    -0.000 C 
ATOM     12  C   UNL     1      33.538 -12.230 -26.289  0.00  0.00    -0.000 C 
ENDBRANCH   6   7
ENDBRANCH   4   6
ENDBRANCH   1   4
BRANCH   1  13
ATOM     13  C   UNL     1      34.039 -17.774 -21.689  0.00  0.00    -0.050 C 
BRANCH  13  14
ATOM     14  C   UNL     1      34.740 -18.940 -21.043  0.00  0.00    -0.043 C 
ATOM     15  C   UNL     1      33.990 -19.990 -20.532  0.00  0.00    -0.006 C 
ATOM     16  C   UNL     1      36.126 -18.950 -20.969  0.00  0.00    -0.006 C 
ATOM     17  C   UNL     1      34.639 -21.070 -19.934  0.00  0.00    -0.000 C 
ATOM     18  C   UNL     1      36.775 -20.030 -20.371  0.00  0.00    -0.000 C 
ATOM     19  C   UNL     1      36.030 -21.090 -19.854  0.00  0.00    -0.000 C 
ENDBRANCH  13  14
ENDBRANCH   1  13
TORSDOF 5
ENDMDL
MODEL 6
REMARK VINA RESULT:      -8.6      1.404      6.444
REMARK  Name = 5311017
REMARK  5 active torsions:
REMARK  status: ('A' for Active; 'I' for Inactive)
REMARK    1  A    between atoms: N_1  and  C_4
REMARK    2  A    between atoms: N_1  and  C_13
REMARK    3  A    between atoms: C_4  and  C_6
REMARK    4  A    between atoms: C_6  and  C_7
REMARK    5  A    between atoms: C_13  and  C_14
REMARK                            x       y       z     vdW  Elec       q    Type
REMARK                         _______ _______ _______ _____ _____    ______ ____
ROOT
ATOM      1  N   UNL     1      34.663 -18.427 -23.623  0.00  0.00    +0.390 N 
ATOM      2  C   UNL     1      34.711 -19.525 -24.587  0.00  0.00    -0.100 C 
ATOM      3  H   UNL     1      33.705 -18.334 -23.288  0.00  0.00    -0.079 HD
ENDROOT
BRANCH   1   4
ATOM      4  C   UNL     1      35.061 -17.170 -24.264  0.00  0.00    -0.053 C 
ATOM      5  C   UNL     1      33.898 -16.681 -25.128  0.00  0.00    -0.023 C 
BRANCH   4   6
ATOM      6  C   UNL     1      35.463 -16.149 -23.185  0.00  0.00    +0.006 C 
BRANCH   6   7
ATOM      7  C   UNL     1      34.323 -15.270 -22.728  0.00  0.00    -0.024 C 
ATOM      8  C   UNL     1      33.518 -15.691 -21.682  0.00  0.00    -0.004 C 
ATOM      9  C   UNL     1      34.104 -14.058 -23.363  0.00  0.00    -0.004 C 
ATOM     10  C   UNL     1      32.466 -14.879 -21.260  0.00  0.00    -0.000 C 
ATOM     11  C   UNL     1      33.051 -13.246 -22.941  0.00  0.00    -0.000 C 
ATOM     12  C   UNL     1      32.233 -13.656 -21.889  0.00  0.00    -0.000 C 
ENDBRANCH   6   7
ENDBRANCH   4   6
ENDBRANCH   1   4
BRANCH   1  13
ATOM     13  C   UNL     1      35.528 -18.709 -22.479  0.00  0.00    -0.050 C 
BRANCH  13  14
ATOM     14  C   UNL     1      34.836 -19.564 -21.451  0.00  0.00    -0.043 C 
ATOM     15  C   UNL     1      33.462 -19.462 -21.290  0.00  0.00    -0.006 C 
ATOM     16  C   UNL     1      35.583 -20.442 -20.678  0.00  0.00    -0.006 C 
ATOM     17  C   UNL     1      32.821 -20.255 -20.338  0.00  0.00    -0.000 C 
ATOM     18  C   UNL     1      34.942 -21.235 -19.725  0.00  0.00    -0.000 C 
ATOM     19  C   UNL     1      33.561 -21.141 -19.556  0.00  0.00    -0.000 C 
ENDBRANCH  13  14
ENDBRANCH   1  13
TORSDOF 5
ENDMDL
MODEL 7
REMARK VINA RESULT:      -8.5      4.683      9.448
REMARK  Name = 5311017
REMARK  5 active torsions:
REMARK  status: ('A' for Active; 'I' for Inactive)
REMARK    1  A    between atoms: N_1  and  C_4
REMARK    2  A    between atoms: N_1  and  C_13
REMARK    3  A    between atoms: C_4  and  C_6
REMARK    4  A    between atoms: C_6  and  C_7
REMARK    5  A    between atoms: C_13  and  C_14
REMARK                            x       y       z     vdW  Elec       q    Type
REMARK                         _______ _______ _______ _____ _____    ______ ____
ROOT
ATOM      1  N   UNL     1      33.912 -23.845 -15.836  0.00  0.00    +0.390 N 
ATOM      2  C   UNL     1      34.982 -24.542 -15.125  0.00  0.00    -0.100 C 
ATOM      3  H   UNL     1      33.410 -24.524 -16.408  0.00  0.00    -0.079 HD
ENDROOT
BRANCH   1   4
ATOM      4  C   UNL     1      34.472 -22.814 -16.715  0.00  0.00    -0.053 C 
ATOM      5  C   UNL     1      35.973 -22.712 -16.441  0.00  0.00    -0.023 C 
BRANCH   4   6
ATOM      6  C   UNL     1      34.162 -23.165 -18.181  0.00  0.00    +0.006 C 
BRANCH   6   7
ATOM      7  C   UNL     1      34.201 -21.975 -19.109  0.00  0.00    -0.024 C 
ATOM      8  C   UNL     1      35.419 -21.551 -19.618  0.00  0.00    -0.004 C 
ATOM      9  C   UNL     1      33.020 -21.330 -19.437  0.00  0.00    -0.004 C 
ATOM     10  C   UNL     1      35.456 -20.452 -20.476  0.00  0.00    -0.000 C 
ATOM     11  C   UNL     1      33.057 -20.231 -20.296  0.00  0.00    -0.000 C 
ATOM     12  C   UNL     1      34.275 -19.793 -20.815  0.00  0.00    -0.000 C 
ENDBRANCH   6   7
ENDBRANCH   4   6
ENDBRANCH   1   4
BRANCH   1  13
ATOM     13  C   UNL     1      32.969 -23.250 -14.892  0.00  0.00    -0.050 C 
BRANCH  13  14
ATOM     14  C   UNL     1      31.551 -23.670 -15.175  0.00  0.00    -0.043 C 
ATOM     15  C   UNL     1      30.794 -22.949 -16.086  0.00  0.00    -0.006 C 
ATOM     16  C   UNL     1      31.022 -24.774 -14.520  0.00  0.00    -0.006 C 
ATOM     17  C   UNL     1      29.480 -23.339 -16.349  0.00  0.00    -0.000 C 
ATOM     18  C   UNL     1      29.708 -25.164 -14.782  0.00  0.00    -0.000 C 
ATOM     19  C   UNL     1      28.938 -24.446 -15.697  0.00  0.00    -0.000 C 
ENDBRANCH  13  14
ENDBRANCH   1  13
TORSDOF 5
ENDMDL
MODEL 8
REMARK VINA RESULT:      -8.4      1.596      7.442
REMARK  Name = 5311017
REMARK  5 active torsions:
REMARK  status: ('A' for Active; 'I' for Inactive)
REMARK    1  A    between atoms: N_1  and  C_4
REMARK    2  A    between atoms: N_1  and  C_13
REMARK    3  A    between atoms: C_4  and  C_6
REMARK    4  A    between atoms: C_6  and  C_7
REMARK    5  A    between atoms: C_13  and  C_14
REMARK                            x       y       z     vdW  Elec       q    Type
REMARK                         _______ _______ _______ _____ _____    ______ ____
ROOT
ATOM      1  N   UNL     1      34.345 -17.221 -22.698  0.00  0.00    +0.390 N 
ATOM      2  C   UNL     1      34.905 -17.179 -24.048  0.00  0.00    -0.100 C 
ATOM      3  H   UNL     1      33.545 -17.852 -22.701  0.00  0.00    -0.079 HD
ENDROOT
BRANCH   1   4
ATOM      4  C   UNL     1      33.890 -15.888 -22.294  0.00  0.00    -0.053 C 
ATOM      5  C   UNL     1      34.756 -15.418 -21.124  0.00  0.00    -0.023 C 
BRANCH   4   6
ATOM      6  C   UNL     1      33.960 -14.934 -23.500  0.00  0.00    +0.006 C 
BRANCH   6   7
ATOM      7  C   UNL     1      33.367 -13.572 -23.229  0.00  0.00    -0.024 C 
ATOM      8  C   UNL     1      32.342 -13.449 -22.304  0.00  0.00    -0.004 C 
ATOM      9  C   UNL     1      33.859 -12.470 -23.909  0.00  0.00    -0.004 C 
ATOM     10  C   UNL     1      31.795 -12.191 -22.053  0.00  0.00    -0.000 C 
ATOM     11  C   UNL     1      33.311 -11.211 -23.658  0.00  0.00    -0.000 C 
ATOM     12  C   UNL     1      32.279 -11.073 -22.730  0.00  0.00    -0.000 C 
ENDBRANCH   6   7
ENDBRANCH   4   6
ENDBRANCH   1   4
BRANCH   1  13
ATOM     13  C   UNL     1      35.332 -17.731 -21.748  0.00  0.00    -0.050 C 
BRANCH  13  14
ATOM     14  C   UNL     1      34.857 -18.988 -21.068  0.00  0.00    -0.043 C 
ATOM     15  C   UNL     1      35.788 -19.891 -20.576  0.00  0.00    -0.006 C 
ATOM     16  C   UNL     1      33.495 -19.226 -20.942  0.00  0.00    -0.006 C 
ATOM     17  C   UNL     1      35.350 -21.056 -19.945  0.00  0.00    -0.000 C 
ATOM     18  C   UNL     1      33.057 -20.390 -20.311  0.00  0.00    -0.000 C 
ATOM     19  C   UNL     1      33.984 -21.304 -19.813  0.00  0.00    -0.000 C 
ENDBRANCH  13  14
ENDBRANCH   1  13
TORSDOF 5
ENDMDL
MODEL 9
REMARK VINA RESULT:      -8.3      2.519      3.886
REMARK  Name = 5311017
REMARK  5 active torsions:
REMARK  status: ('A' for Active; 'I' for Inactive)
REMARK    1  A    between atoms: N_1  and  C_4
REMARK    2  A    between atoms: N_1  and  C_13
REMARK    3  A    between atoms: C_4  and  C_6
REMARK    4  A    between atoms: C_6  and  C_7
REMARK    5  A    between atoms: C_13  and  C_14
REMARK                            x       y       z     vdW  Elec       q    Type
REMARK                         _______ _______ _______ _____ _____    ______ ____
ROOT
ATOM      1  N   UNL     1      33.955 -14.764 -22.585  0.00  0.00    +0.390 N 
ATOM      2  C   UNL     1      33.802 -15.043 -24.011  0.00  0.00    -0.100 C 
ATOM      3  H   UNL     1      34.409 -13.857 -22.481  0.00  0.00    -0.079 HD
ENDROOT
BRANCH   1   4
ATOM      4  C   UNL     1      34.796 -15.786 -21.954  0.00  0.00    -0.053 C 
ATOM      5  C   UNL     1      34.471 -15.821 -20.460  0.00  0.00    -0.023 C 
BRANCH   4   6
ATOM      6  C   UNL     1      34.559 -17.142 -22.641  0.00  0.00    +0.006 C 
BRANCH   6   7
ATOM      7  C   UNL     1      34.889 -18.329 -21.768  0.00  0.00    -0.024 C 
ATOM      8  C   UNL     1      36.215 -18.607 -21.473  0.00  0.00    -0.004 C 
ATOM      9  C   UNL     1      33.862 -19.117 -21.277  0.00  0.00    -0.004 C 
ATOM     10  C   UNL     1      36.520 -19.702 -20.666  0.00  0.00    -0.000 C 
ATOM     11  C   UNL     1      34.167 -20.214 -20.470  0.00  0.00    -0.000 C 
ATOM     12  C   UNL     1      35.496 -20.505 -20.164  0.00  0.00    -0.000 C 
ENDBRANCH   6   7
ENDBRANCH   4   6
ENDBRANCH   1   4
BRANCH   1  13
ATOM     13  C   UNL     1      32.651 -14.705 -21.929  0.00  0.00    -0.050 C 
BRANCH  13  14
ATOM     14  C   UNL     1      32.259 -13.292 -21.585  0.00  0.00    -0.043 C 
ATOM     15  C   UNL     1      32.136 -12.352 -22.597  0.00  0.00    -0.006 C 
ATOM     16  C   UNL     1      32.027 -12.951 -20.259  0.00  0.00    -0.006 C 
ATOM     17  C   UNL     1      31.773 -11.043 -22.278  0.00  0.00    -0.000 C 
ATOM     18  C   UNL     1      31.664 -11.642 -19.941  0.00  0.00    -0.000 C 
ATOM     19  C   UNL     1      31.538 -10.689 -20.951  0.00  0.00    -0.000 C 
ENDBRANCH  13  14
ENDBRANCH   1  13
TORSDOF 5
ENDMDL
