MODEL 1
REMARK VINA RESULT:      -5.4      0.000      0.000
REMARK  Name = 4628690
REMARK  6 active torsions:
REMARK  status: ('A' for Active; 'I' for Inactive)
REMARK    1  A    between atoms: P_1  and  O_3
REMARK    2  A    between atoms: P_1  and  O_5
REMARK    3  A    between atoms: P_1  and  C_7
REMARK    4  A    between atoms: C_7  and  C_8
REMARK    5  A    between atoms: C_8  and  C_9
REMARK    6  A    between atoms: C_9  and  C_12
REMARK                            x       y       z     vdW  Elec       q    Type
REMARK                         _______ _______ _______ _____ _____    ______ ____
ROOT
ATOM      1  P   UNL     1      39.823 -25.250 -14.950  0.00  0.00    +0.337 P 
ATOM      2  O   UNL     1      40.612 -26.103 -15.877  0.00  0.00    -0.258 OA
ENDROOT
BRANCH   1   3
ATOM      3  O   UNL     1      40.605 -24.686 -13.661  0.00  0.00    -0.324 OA
ATOM      4  H   UNL     1      40.787 -23.741 -13.781  0.00  0.00    +0.220 HD
ENDBRANCH   1   3
BRANCH   1   5
ATOM      5  O   UNL     1      39.138 -23.943 -15.594  0.00  0.00    -0.324 OA
ATOM      6  H   UNL     1      39.098 -24.040 -16.558  0.00  0.00    +0.220 HD
ENDBRANCH   1   5
BRANCH   1   7
ATOM      7  C   UNL     1      38.411 -26.101 -14.207  0.00  0.00    +0.120 C 
BRANCH   7   8
ATOM      8  C   UNL     1      38.203 -25.756 -12.735  0.00  0.00    +0.042 C 
BRANCH   8   9
ATOM      9  C   UNL     1      37.224 -24.634 -12.533  0.00  0.00    +0.021 C 
ATOM     10  C   UNL     1      35.911 -24.736 -12.775  0.00  0.00    -0.001 C 
BRANCH   9  12
ATOM     11  O   UNL     1      38.873 -23.137 -11.680  0.00  0.00    -0.283 OA
ATOM     12  C   UNL     1      37.705 -23.339 -11.992  0.00  0.00    +0.230 C 
ENDBRANCH   9  12
ENDBRANCH   8   9
ENDBRANCH   7   8
ENDBRANCH   1   7
TORSDOF 6
ENDMDL
MODEL 2
REMARK VINA RESULT:      -5.4      2.090      3.115
REMARK  Name = 4628690
REMARK  6 active torsions:
REMARK  status: ('A' for Active; 'I' for Inactive)
REMARK    1  A    between atoms: P_1  and  O_3
REMARK    2  A    between atoms: P_1  and  O_5
REMARK    3  A    between atoms: P_1  and  C_7
REMARK    4  A    between atoms: C_7  and  C_8
REMARK    5  A    between atoms: C_8  and  C_9
REMARK    6  A    between atoms: C_9  and  C_12
REMARK                            x       y       z     vdW  Elec       q    Type
REMARK                         _______ _______ _______ _____ _____    ______ ____
ROOT
ATOM      1  P   UNL     1      40.530 -25.799 -14.598  0.00  0.00    +0.337 P 
ATOM      2  O   UNL     1      41.317 -26.930 -14.040  0.00  0.00    -0.258 OA
ENDROOT
BRANCH   1   3
ATOM      3  O   UNL     1      41.189 -24.337 -14.462  0.00  0.00    -0.324 OA
ATOM      4  H   UNL     1      40.981 -23.967 -13.591  0.00  0.00    +0.220 HD
ENDBRANCH   1   3
BRANCH   1   5
ATOM      5  O   UNL     1      40.133 -25.905 -16.155  0.00  0.00    -0.324 OA
ATOM      6  H   UNL     1      40.826 -26.389 -16.632  0.00  0.00    +0.220 HD
ENDBRANCH   1   5
BRANCH   1   7
ATOM      7  C   UNL     1      38.921 -25.574 -13.803  0.00  0.00    +0.120 C 
BRANCH   7   8
ATOM      8  C   UNL     1      37.971 -24.684 -14.598  0.00  0.00    +0.042 C 
BRANCH   8   9
ATOM      9  C   UNL     1      36.689 -25.379 -14.963  0.00  0.00    +0.021 C 
ATOM     10  C   UNL     1      35.520 -24.749 -15.131  0.00  0.00    -0.001 C 
BRANCH   9  12
ATOM     11  O   UNL     1      36.717 -27.340 -16.321  0.00  0.00    -0.283 OA
ATOM     12  C   UNL     1      36.699 -26.844 -15.200  0.00  0.00    +0.230 C 
ENDBRANCH   9  12
ENDBRANCH   8   9
ENDBRANCH   7   8
ENDBRANCH   1   7
TORSDOF 6
ENDMDL
MODEL 3
REMARK VINA RESULT:      -5.4      2.776      4.446
REMARK  Name = 4628690
REMARK  6 active torsions:
REMARK  status: ('A' for Active; 'I' for Inactive)
REMARK    1  A    between atoms: P_1  and  O_3
REMARK    2  A    between atoms: P_1  and  O_5
REMARK    3  A    between atoms: P_1  and  C_7
REMARK    4  A    between atoms: C_7  and  C_8
REMARK    5  A    between atoms: C_8  and  C_9
REMARK    6  A    between atoms: C_9  and  C_12
REMARK                            x       y       z     vdW  Elec       q    Type
REMARK                         _______ _______ _______ _____ _____    ______ ____
ROOT
ATOM      1  P   UNL     1      36.035 -24.131 -11.363  0.00  0.00    +0.337 P 
ATOM      2  O   UNL     1      37.059 -23.159 -10.894  0.00  0.00    -0.258 OA
ENDROOT
BRANCH   1   3
ATOM      3  O   UNL     1      35.327 -25.023 -10.226  0.00  0.00    -0.324 OA
ATOM      4  H   UNL     1      34.843 -25.753 -10.642  0.00  0.00    +0.220 HD
ENDBRANCH   1   3
BRANCH   1   5
ATOM      5  O   UNL     1      34.805 -23.521 -12.203  0.00  0.00    -0.324 OA
ATOM      6  H   UNL     1      35.083 -23.369 -13.120  0.00  0.00    +0.220 HD
ENDBRANCH   1   5
BRANCH   1   7
ATOM      7  C   UNL     1      36.690 -25.385 -12.489  0.00  0.00    +0.120 C 
BRANCH   7   8
ATOM      8  C   UNL     1      38.214 -25.426 -12.531  0.00  0.00    +0.042 C 
BRANCH   8   9
ATOM      9  C   UNL     1      38.766 -25.162 -13.904  0.00  0.00    +0.021 C 
ATOM     10  C   UNL     1      38.122 -24.462 -14.847  0.00  0.00    -0.001 C 
BRANCH   9  12
ATOM     11  O   UNL     1      41.046 -24.911 -14.560  0.00  0.00    -0.283 OA
ATOM     12  C   UNL     1      40.123 -25.655 -14.249  0.00  0.00    +0.230 C 
ENDBRANCH   9  12
ENDBRANCH   8   9
ENDBRANCH   7   8
ENDBRANCH   1   7
TORSDOF 6
ENDMDL
MODEL 4
REMARK VINA RESULT:      -5.3      1.710      2.166
REMARK  Name = 4628690
REMARK  6 active torsions:
REMARK  status: ('A' for Active; 'I' for Inactive)
REMARK    1  A    between atoms: P_1  and  O_3
REMARK    2  A    between atoms: P_1  and  O_5
REMARK    3  A    between atoms: P_1  and  C_7
REMARK    4  A    between atoms: C_7  and  C_8
REMARK    5  A    between atoms: C_8  and  C_9
REMARK    6  A    between atoms: C_9  and  C_12
REMARK                            x       y       z     vdW  Elec       q    Type
REMARK                         _______ _______ _______ _____ _____    ______ ____
ROOT
ATOM      1  P   UNL     1      39.287 -25.478 -14.947  0.00  0.00    +0.337 P 
ATOM      2  O   UNL     1      40.619 -26.006 -15.347  0.00  0.00    -0.258 OA
ENDROOT
BRANCH   1   3
ATOM      3  O   UNL     1      38.927 -23.995 -15.456  0.00  0.00    -0.324 OA
ATOM      4  H   UNL     1      37.964 -23.884 -15.475  0.00  0.00    +0.220 HD
ENDBRANCH   1   3
BRANCH   1   5
ATOM      5  O   UNL     1      38.012 -26.360 -15.381  0.00  0.00    -0.324 OA
ATOM      6  H   UNL     1      37.501 -25.881 -16.053  0.00  0.00    +0.220 HD
ENDBRANCH   1   5
BRANCH   1   7
ATOM      7  C   UNL     1      39.071 -25.338 -13.157  0.00  0.00    +0.120 C 
BRANCH   7   8
ATOM      8  C   UNL     1      37.641 -25.602 -12.697  0.00  0.00    +0.042 C 
BRANCH   8   9
ATOM      9  C   UNL     1      37.011 -24.406 -12.040  0.00  0.00    +0.021 C 
ATOM     10  C   UNL     1      37.614 -23.217 -11.917  0.00  0.00    -0.001 C 
BRANCH   9  12
ATOM     11  O   UNL     1      35.324 -25.140 -10.522  0.00  0.00    -0.283 OA
ATOM     12  C   UNL     1      35.622 -24.506 -11.529  0.00  0.00    +0.230 C 
ENDBRANCH   9  12
ENDBRANCH   8   9
ENDBRANCH   7   8
ENDBRANCH   1   7
TORSDOF 6
ENDMDL
MODEL 5
REMARK VINA RESULT:      -5.2      8.738      9.901
REMARK  Name = 4628690
REMARK  6 active torsions:
REMARK  status: ('A' for Active; 'I' for Inactive)
REMARK    1  A    between atoms: P_1  and  O_3
REMARK    2  A    between atoms: P_1  and  O_5
REMARK    3  A    between atoms: P_1  and  C_7
REMARK    4  A    between atoms: C_7  and  C_8
REMARK    5  A    between atoms: C_8  and  C_9
REMARK    6  A    between atoms: C_9  and  C_12
REMARK                            x       y       z     vdW  Elec       q    Type
REMARK                         _______ _______ _______ _____ _____    ______ ____
ROOT
ATOM      1  P   UNL     1      28.090 -23.240 -16.497  0.00  0.00    +0.337 P 
ATOM      2  O   UNL     1      27.748 -24.258 -17.525  0.00  0.00    -0.258 OA
ENDROOT
BRANCH   1   3
ATOM      3  O   UNL     1      28.867 -21.932 -17.020  0.00  0.00    -0.324 OA
ATOM      4  H   UNL     1      28.787 -21.223 -16.364  0.00  0.00    +0.220 HD
ENDBRANCH   1   3
BRANCH   1   5
ATOM      5  O   UNL     1      26.859 -22.647 -15.645  0.00  0.00    -0.324 OA
ATOM      6  H   UNL     1      26.983 -21.693 -15.519  0.00  0.00    +0.220 HD
ENDBRANCH   1   5
BRANCH   1   7
ATOM      7  C   UNL     1      29.194 -23.857 -15.205  0.00  0.00    +0.120 C 
BRANCH   7   8
ATOM      8  C   UNL     1      30.285 -22.865 -14.815  0.00  0.00    +0.042 C 
BRANCH   8   9
ATOM      9  C   UNL     1      31.667 -23.369 -15.120  0.00  0.00    +0.021 C 
ATOM     10  C   UNL     1      32.466 -23.953 -14.217  0.00  0.00    -0.001 C 
BRANCH   9  12
ATOM     11  O   UNL     1      31.669 -22.568 -17.367  0.00  0.00    -0.283 OA
ATOM     12  C   UNL     1      32.189 -23.268 -16.506  0.00  0.00    +0.230 C 
ENDBRANCH   9  12
ENDBRANCH   8   9
ENDBRANCH   7   8
ENDBRANCH   1   7
TORSDOF 6
ENDMDL
MODEL 6
REMARK VINA RESULT:      -5.2      2.354      2.567
REMARK  Name = 4628690
REMARK  6 active torsions:
REMARK  status: ('A' for Active; 'I' for Inactive)
REMARK    1  A    between atoms: P_1  and  O_3
REMARK    2  A    between atoms: P_1  and  O_5
REMARK    3  A    between atoms: P_1  and  C_7
REMARK    4  A    between atoms: C_7  and  C_8
REMARK    5  A    between atoms: C_8  and  C_9
REMARK    6  A    between atoms: C_9  and  C_12
REMARK                            x       y       z     vdW  Elec       q    Type
REMARK                         _______ _______ _______ _____ _____    ______ ____
ROOT
ATOM      1  P   UNL     1      37.364 -26.348 -14.872  0.00  0.00    +0.337 P 
ATOM      2  O   UNL     1      37.255 -27.016 -13.549  0.00  0.00    -0.258 OA
ENDROOT
BRANCH   1   3
ATOM      3  O   UNL     1      38.845 -25.920 -15.335  0.00  0.00    -0.324 OA
ATOM      4  H   UNL     1      39.326 -25.552 -14.579  0.00  0.00    +0.220 HD
ENDBRANCH   1   3
BRANCH   1   5
ATOM      5  O   UNL     1      36.782 -27.164 -16.133  0.00  0.00    -0.324 OA
ATOM      6  H   UNL     1      37.430 -27.828 -16.415  0.00  0.00    +0.220 HD
ENDBRANCH   1   5
BRANCH   1   7
ATOM      7  C   UNL     1      36.459 -24.785 -14.971  0.00  0.00    +0.120 C 
BRANCH   7   8
ATOM      8  C   UNL     1      37.068 -23.678 -14.117  0.00  0.00    +0.042 C 
BRANCH   8   9
ATOM      9  C   UNL     1      36.418 -23.561 -12.767  0.00  0.00    +0.021 C 
ATOM     10  C   UNL     1      35.198 -24.033 -12.481  0.00  0.00    -0.001 C 
BRANCH   9  12
ATOM     11  O   UNL     1      38.391 -22.862 -11.622  0.00  0.00    -0.283 OA
ATOM     12  C   UNL     1      37.167 -22.930 -11.652  0.00  0.00    +0.230 C 
ENDBRANCH   9  12
ENDBRANCH   8   9
ENDBRANCH   7   8
ENDBRANCH   1   7
TORSDOF 6
ENDMDL
MODEL 7
REMARK VINA RESULT:      -5.2      2.819      4.448
REMARK  Name = 4628690
REMARK  6 active torsions:
REMARK  status: ('A' for Active; 'I' for Inactive)
REMARK    1  A    between atoms: P_1  and  O_3
REMARK    2  A    between atoms: P_1  and  O_5
REMARK    3  A    between atoms: P_1  and  C_7
REMARK    4  A    between atoms: C_7  and  C_8
REMARK    5  A    between atoms: C_8  and  C_9
REMARK    6  A    between atoms: C_9  and  C_12
REMARK                            x       y       z     vdW  Elec       q    Type
REMARK                         _______ _______ _______ _____ _____    ______ ____
ROOT
ATOM      1  P   UNL     1      35.996 -24.114 -11.333  0.00  0.00    +0.337 P 
ATOM      2  O   UNL     1      37.025 -23.130 -10.904  0.00  0.00    -0.258 OA
ENDROOT
BRANCH   1   3
ATOM      3  O   UNL     1      35.317 -24.990 -10.166  0.00  0.00    -0.324 OA
ATOM      4  H   UNL     1      34.995 -24.403  -9.466  0.00  0.00    +0.220 HD
ENDBRANCH   1   3
BRANCH   1   5
ATOM      5  O   UNL     1      34.744 -23.523 -12.155  0.00  0.00    -0.324 OA
ATOM      6  H   UNL     1      34.936 -22.610 -12.425  0.00  0.00    +0.220 HD
ENDBRANCH   1   5
BRANCH   1   7
ATOM      7  C   UNL     1      36.630 -25.384 -12.453  0.00  0.00    +0.120 C 
BRANCH   7   8
ATOM      8  C   UNL     1      38.152 -25.488 -12.451  0.00  0.00    +0.042 C 
BRANCH   8   9
ATOM      9  C   UNL     1      38.759 -25.183 -13.792  0.00  0.00    +0.021 C 
ATOM     10  C   UNL     1      39.988 -25.568 -14.161  0.00  0.00    -0.001 C 
BRANCH   9  12
ATOM     11  O   UNL     1      37.954 -23.232 -14.903  0.00  0.00    -0.283 OA
ATOM     12  C   UNL     1      37.956 -24.454 -14.805  0.00  0.00    +0.230 C 
ENDBRANCH   9  12
ENDBRANCH   8   9
ENDBRANCH   7   8
ENDBRANCH   1   7
TORSDOF 6
ENDMDL
MODEL 8
REMARK VINA RESULT:      -5.1      8.680      9.793
REMARK  Name = 4628690
REMARK  6 active torsions:
REMARK  status: ('A' for Active; 'I' for Inactive)
REMARK    1  A    between atoms: P_1  and  O_3
REMARK    2  A    between atoms: P_1  and  O_5
REMARK    3  A    between atoms: P_1  and  C_7
REMARK    4  A    between atoms: C_7  and  C_8
REMARK    5  A    between atoms: C_8  and  C_9
REMARK    6  A    between atoms: C_9  and  C_12
REMARK                            x       y       z     vdW  Elec       q    Type
REMARK                         _______ _______ _______ _____ _____    ______ ____
ROOT
ATOM      1  P   UNL     1      28.038 -23.144 -16.425  0.00  0.00    +0.337 P 
ATOM      2  O   UNL     1      26.853 -22.529 -15.771  0.00  0.00    -0.258 OA
ENDROOT
BRANCH   1   3
ATOM      3  O   UNL     1      27.735 -24.239 -17.564  0.00  0.00    -0.324 OA
ATOM      4  H   UNL     1      27.876 -23.845 -18.438  0.00  0.00    +0.220 HD
ENDBRANCH   1   3
BRANCH   1   5
ATOM      5  O   UNL     1      29.072 -22.129 -17.126  0.00  0.00    -0.324 OA
ATOM      6  H   UNL     1      29.685 -21.780 -16.459  0.00  0.00    +0.220 HD
ENDBRANCH   1   5
BRANCH   1   7
ATOM      7  C   UNL     1      29.104 -24.056 -15.283  0.00  0.00    +0.120 C 
BRANCH   7   8
ATOM      8  C   UNL     1      30.222 -23.206 -14.688  0.00  0.00    +0.042 C 
BRANCH   8   9
ATOM      9  C   UNL     1      31.591 -23.713 -15.043  0.00  0.00    +0.021 C 
ATOM     10  C   UNL     1      32.274 -23.324 -16.127  0.00  0.00    -0.001 C 
BRANCH   9  12
ATOM     11  O   UNL     1      31.774 -25.059 -13.082  0.00  0.00    -0.283 OA
ATOM     12  C   UNL     1      32.270 -24.669 -14.133  0.00  0.00    +0.230 C 
ENDBRANCH   9  12
ENDBRANCH   8   9
ENDBRANCH   7   8
ENDBRANCH   1   7
TORSDOF 6
ENDMDL
MODEL 9
REMARK VINA RESULT:      -5.1      1.688      2.454
REMARK  Name = 4628690
REMARK  6 active torsions:
REMARK  status: ('A' for Active; 'I' for Inactive)
REMARK    1  A    between atoms: P_1  and  O_3
REMARK    2  A    between atoms: P_1  and  O_5
REMARK    3  A    between atoms: P_1  and  C_7
REMARK    4  A    between atoms: C_7  and  C_8
REMARK    5  A    between atoms: C_8  and  C_9
REMARK    6  A    between atoms: C_9  and  C_12
REMARK                            x       y       z     vdW  Elec       q    Type
REMARK                         _______ _______ _______ _____ _____    ______ ____
ROOT
ATOM      1  P   UNL     1      39.447 -25.348 -14.682  0.00  0.00    +0.337 P 
ATOM      2  O   UNL     1      40.903 -25.636 -14.595  0.00  0.00    -0.258 OA
ENDROOT
BRANCH   1   3
ATOM      3  O   UNL     1      39.031 -24.018 -15.486  0.00  0.00    -0.324 OA
ATOM      4  H   UNL     1      38.585 -23.402 -14.885  0.00  0.00    +0.220 HD
ENDBRANCH   1   3
BRANCH   1   5
ATOM      5  O   UNL     1      38.531 -26.500 -15.334  0.00  0.00    -0.324 OA
ATOM      6  H   UNL     1      38.815 -27.366 -15.001  0.00  0.00    +0.220 HD
ENDBRANCH   1   5
BRANCH   1   7
ATOM      7  C   UNL     1      38.662 -25.091 -13.073  0.00  0.00    +0.120 C 
BRANCH   7   8
ATOM      8  C   UNL     1      37.298 -25.762 -12.951  0.00  0.00    +0.042 C 
BRANCH   8   9
ATOM      9  C   UNL     1      36.158 -24.802 -13.137  0.00  0.00    +0.021 C 
ATOM     10  C   UNL     1      35.720 -23.968 -12.185  0.00  0.00    -0.001 C 
BRANCH   9  12
ATOM     11  O   UNL     1      36.044 -25.004 -15.511  0.00  0.00    -0.283 OA
ATOM     12  C   UNL     1      35.487 -24.717 -14.458  0.00  0.00    +0.230 C 
ENDBRANCH   9  12
ENDBRANCH   8   9
ENDBRANCH   7   8
ENDBRANCH   1   7
TORSDOF 6
ENDMDL
