MODEL 1
REMARK VINA RESULT:      -7.5      0.000      0.000
REMARK  Name = 4775
REMARK  5 active torsions:
REMARK  status: ('A' for Active; 'I' for Inactive)
REMARK    1  A    between atoms: C_1  and  C_2
REMARK    2  A    between atoms: C_1  and  C_8
REMARK    3  A    between atoms: C_8  and  C_9
REMARK    4  A    between atoms: C_9  and  C_11
REMARK    5  A    between atoms: C_11  and  O_12
REMARK                            x       y       z     vdW  Elec       q    Type
REMARK                         _______ _______ _______ _____ _____    ______ ____
ROOT
ATOM      1  C   UNL     1      34.279 -18.737 -21.753  0.00  0.00    +0.027 C 
ENDROOT
BRANCH   1   2
ATOM      2  C   UNL     1      34.431 -19.901 -20.810  0.00  0.00    -0.022 C 
ATOM      3  C   UNL     1      33.298 -20.497 -20.275  0.00  0.00    -0.004 C 
ATOM      4  C   UNL     1      35.700 -20.360 -20.490  0.00  0.00    -0.004 C 
ATOM      5  C   UNL     1      33.438 -21.576 -19.401  0.00  0.00    -0.000 C 
ATOM      6  C   UNL     1      35.840 -21.437 -19.616  0.00  0.00    -0.000 C 
ATOM      7  C   UNL     1      34.708 -22.046 -19.071  0.00  0.00    -0.000 C 
ENDBRANCH   1   2
BRANCH   1   8
ATOM      8  C   UNL     1      35.337 -18.675 -22.864  0.00  0.00    +0.016 C 
BRANCH   8   9
ATOM      9  C   UNL     1      34.756 -18.459 -24.265  0.00  0.00    +0.110 C 
BRANCH   9  11
ATOM     10  O   UNL     1      34.477 -16.623 -25.839  0.00  0.00    -0.250 OA
ATOM     11  C   UNL     1      34.910 -17.042 -24.775  0.00  0.00    +0.314 C 
BRANCH  11  12
ATOM     12  O   UNL     1      35.638 -16.277 -23.922  0.00  0.00    -0.480 OA
ATOM     13  H   UNL     1      36.252 -16.679 -23.340  0.00  0.00    +0.295 HD
ENDBRANCH  11  12
ENDBRANCH   9  11
ENDBRANCH   8   9
ENDBRANCH   1   8
TORSDOF 5
ENDMDL
MODEL 2
REMARK VINA RESULT:      -7.5      0.074      1.396
REMARK  Name = 4775
REMARK  5 active torsions:
REMARK  status: ('A' for Active; 'I' for Inactive)
REMARK    1  A    between atoms: C_1  and  C_2
REMARK    2  A    between atoms: C_1  and  C_8
REMARK    3  A    between atoms: C_8  and  C_9
REMARK    4  A    between atoms: C_9  and  C_11
REMARK    5  A    between atoms: C_11  and  O_12
REMARK                            x       y       z     vdW  Elec       q    Type
REMARK                         _______ _______ _______ _____ _____    ______ ____
ROOT
ATOM      1  C   UNL     1      34.246 -18.776 -21.740  0.00  0.00    +0.027 C 
ENDROOT
BRANCH   1   2
ATOM      2  C   UNL     1      34.386 -19.935 -20.788  0.00  0.00    -0.022 C 
ATOM      3  C   UNL     1      35.651 -20.419 -20.485  0.00  0.00    -0.004 C 
ATOM      4  C   UNL     1      33.251 -20.499 -20.227  0.00  0.00    -0.004 C 
ATOM      5  C   UNL     1      35.782 -21.491 -19.603  0.00  0.00    -0.000 C 
ATOM      6  C   UNL     1      33.381 -21.572 -19.345  0.00  0.00    -0.000 C 
ATOM      7  C   UNL     1      34.648 -22.068 -19.033  0.00  0.00    -0.000 C 
ENDBRANCH   1   2
BRANCH   1   8
ATOM      8  C   UNL     1      35.305 -18.732 -22.851  0.00  0.00    +0.016 C 
BRANCH   8   9
ATOM      9  C   UNL     1      34.730 -18.479 -24.248  0.00  0.00    +0.110 C 
BRANCH   9  11
ATOM     10  O   UNL     1      34.591 -16.642 -25.838  0.00  0.00    -0.250 OA
ATOM     11  C   UNL     1      34.938 -17.065 -24.745  0.00  0.00    +0.314 C 
BRANCH  11  12
ATOM     12  O   UNL     1      35.609 -16.308 -23.839  0.00  0.00    -0.480 OA
ATOM     13  H   UNL     1      36.347 -15.797 -24.110  0.00  0.00    +0.295 HD
ENDBRANCH  11  12
ENDBRANCH   9  11
ENDBRANCH   8   9
ENDBRANCH   1   8
TORSDOF 5
ENDMDL
MODEL 3
REMARK VINA RESULT:      -7.1      1.369      2.127
REMARK  Name = 4775
REMARK  5 active torsions:
REMARK  status: ('A' for Active; 'I' for Inactive)
REMARK    1  A    between atoms: C_1  and  C_2
REMARK    2  A    between atoms: C_1  and  C_8
REMARK    3  A    between atoms: C_8  and  C_9
REMARK    4  A    between atoms: C_9  and  C_11
REMARK    5  A    between atoms: C_11  and  O_12
REMARK                            x       y       z     vdW  Elec       q    Type
REMARK                         _______ _______ _______ _____ _____    ______ ____
ROOT
ATOM      1  C   UNL     1      34.252 -18.592 -21.558  0.00  0.00    +0.027 C 
ENDROOT
BRANCH   1   2
ATOM      2  C   UNL     1      34.377 -19.834 -20.716  0.00  0.00    -0.022 C 
ATOM      3  C   UNL     1      35.635 -20.354 -20.451  0.00  0.00    -0.004 C 
ATOM      4  C   UNL     1      33.233 -20.438 -20.217  0.00  0.00    -0.004 C 
ATOM      5  C   UNL     1      35.751 -21.504 -19.670  0.00  0.00    -0.000 C 
ATOM      6  C   UNL     1      33.349 -21.589 -19.437  0.00  0.00    -0.000 C 
ATOM      7  C   UNL     1      34.609 -22.122 -19.164  0.00  0.00    -0.000 C 
ENDBRANCH   1   2
BRANCH   1   8
ATOM      8  C   UNL     1      35.142 -17.425 -21.109  0.00  0.00    +0.016 C 
BRANCH   8   9
ATOM      9  C   UNL     1      34.594 -16.044 -21.484  0.00  0.00    +0.110 C 
BRANCH   9  11
ATOM     10  O   UNL     1      33.576 -15.364 -23.588  0.00  0.00    -0.250 OA
ATOM     11  C   UNL     1      34.543 -15.795 -22.976  0.00  0.00    +0.314 C 
BRANCH  11  12
ATOM     12  O   UNL     1      35.702 -16.154 -23.585  0.00  0.00    -0.480 OA
ATOM     13  H   UNL     1      36.068 -17.003 -23.435  0.00  0.00    +0.295 HD
ENDBRANCH  11  12
ENDBRANCH   9  11
ENDBRANCH   8   9
ENDBRANCH   1   8
TORSDOF 5
ENDMDL
MODEL 4
REMARK VINA RESULT:      -6.9      2.106      2.906
REMARK  Name = 4775
REMARK  5 active torsions:
REMARK  status: ('A' for Active; 'I' for Inactive)
REMARK    1  A    between atoms: C_1  and  C_2
REMARK    2  A    between atoms: C_1  and  C_8
REMARK    3  A    between atoms: C_8  and  C_9
REMARK    4  A    between atoms: C_9  and  C_11
REMARK    5  A    between atoms: C_11  and  O_12
REMARK                            x       y       z     vdW  Elec       q    Type
REMARK                         _______ _______ _______ _____ _____    ______ ____
ROOT
ATOM      1  C   UNL     1      35.806 -18.597 -21.742  0.00  0.00    +0.027 C 
ENDROOT
BRANCH   1   2
ATOM      2  C   UNL     1      35.067 -19.638 -20.943  0.00  0.00    -0.022 C 
ATOM      3  C   UNL     1      35.784 -20.614 -20.266  0.00  0.00    -0.004 C 
ATOM      4  C   UNL     1      33.681 -19.605 -20.895  0.00  0.00    -0.004 C 
ATOM      5  C   UNL     1      35.099 -21.578 -19.525  0.00  0.00    -0.000 C 
ATOM      6  C   UNL     1      32.997 -20.569 -20.156  0.00  0.00    -0.000 C 
ATOM      7  C   UNL     1      33.707 -21.556 -19.470  0.00  0.00    -0.000 C 
ENDBRANCH   1   2
BRANCH   1   8
ATOM      8  C   UNL     1      34.918 -17.756 -22.669  0.00  0.00    +0.016 C 
BRANCH   8   9
ATOM      9  C   UNL     1      34.987 -16.250 -22.398  0.00  0.00    +0.110 C 
BRANCH   9  11
ATOM     10  O   UNL     1      34.939 -15.318 -20.150  0.00  0.00    -0.250 OA
ATOM     11  C   UNL     1      34.351 -15.838 -21.088  0.00  0.00    +0.314 C 
BRANCH  11  12
ATOM     12  O   UNL     1      33.032 -16.157 -21.046  0.00  0.00    -0.480 OA
ATOM     13  H   UNL     1      32.688 -16.804 -21.630  0.00  0.00    +0.295 HD
ENDBRANCH  11  12
ENDBRANCH   9  11
ENDBRANCH   8   9
ENDBRANCH   1   8
TORSDOF 5
ENDMDL
MODEL 5
REMARK VINA RESULT:      -6.9      3.432      5.941
REMARK  Name = 4775
REMARK  5 active torsions:
REMARK  status: ('A' for Active; 'I' for Inactive)
REMARK    1  A    between atoms: C_1  and  C_2
REMARK    2  A    between atoms: C_1  and  C_8
REMARK    3  A    between atoms: C_8  and  C_9
REMARK    4  A    between atoms: C_9  and  C_11
REMARK    5  A    between atoms: C_11  and  O_12
REMARK                            x       y       z     vdW  Elec       q    Type
REMARK                         _______ _______ _______ _____ _____    ______ ____
ROOT
ATOM      1  C   UNL     1      35.512 -19.129 -21.311  0.00  0.00    +0.027 C 
ENDROOT
BRANCH   1   2
ATOM      2  C   UNL     1      35.166 -18.454 -22.611  0.00  0.00    -0.022 C 
ATOM      3  C   UNL     1      35.238 -17.071 -22.701  0.00  0.00    -0.004 C 
ATOM      4  C   UNL     1      34.783 -19.223 -23.699  0.00  0.00    -0.004 C 
ATOM      5  C   UNL     1      34.918 -16.445 -23.906  0.00  0.00    -0.000 C 
ATOM      6  C   UNL     1      34.462 -18.597 -24.904  0.00  0.00    -0.000 C 
ATOM      7  C   UNL     1      34.530 -17.207 -25.007  0.00  0.00    -0.000 C 
ENDBRANCH   1   2
BRANCH   1   8
ATOM      8  C   UNL     1      34.397 -20.015 -20.736  0.00  0.00    +0.016 C 
BRANCH   8   9
ATOM      9  C   UNL     1      34.899 -21.118 -19.800  0.00  0.00    +0.110 C 
BRANCH   9  11
ATOM     10  O   UNL     1      33.946 -23.307 -19.325  0.00  0.00    -0.250 OA
ATOM     11  C   UNL     1      33.822 -22.091 -19.373  0.00  0.00    +0.314 C 
BRANCH  11  12
ATOM     12  O   UNL     1      32.656 -21.456 -19.085  0.00  0.00    -0.480 OA
ATOM     13  H   UNL     1      32.027 -21.303 -19.762  0.00  0.00    +0.295 HD
ENDBRANCH  11  12
ENDBRANCH   9  11
ENDBRANCH   8   9
ENDBRANCH   1   8
TORSDOF 5
ENDMDL
MODEL 6
REMARK VINA RESULT:      -6.9      5.207      7.012
REMARK  Name = 4775
REMARK  5 active torsions:
REMARK  status: ('A' for Active; 'I' for Inactive)
REMARK    1  A    between atoms: C_1  and  C_2
REMARK    2  A    between atoms: C_1  and  C_8
REMARK    3  A    between atoms: C_8  and  C_9
REMARK    4  A    between atoms: C_9  and  C_11
REMARK    5  A    between atoms: C_11  and  O_12
REMARK                            x       y       z     vdW  Elec       q    Type
REMARK                         _______ _______ _______ _____ _____    ______ ____
ROOT
ATOM      1  C   UNL     1      36.520 -21.572 -19.014  0.00  0.00    +0.027 C 
ENDROOT
BRANCH   1   2
ATOM      2  C   UNL     1      35.368 -20.935 -19.747  0.00  0.00    -0.022 C 
ATOM      3  C   UNL     1      34.073 -21.352 -19.476  0.00  0.00    -0.004 C 
ATOM      4  C   UNL     1      35.619 -19.942 -20.682  0.00  0.00    -0.004 C 
ATOM      5  C   UNL     1      33.006 -20.763 -20.154  0.00  0.00    -0.000 C 
ATOM      6  C   UNL     1      34.553 -19.353 -21.360  0.00  0.00    -0.000 C 
ATOM      7  C   UNL     1      33.245 -19.764 -21.096  0.00  0.00    -0.000 C 
ENDBRANCH   1   2
BRANCH   1   8
ATOM      8  C   UNL     1      36.187 -22.043 -17.592  0.00  0.00    +0.016 C 
BRANCH   8   9
ATOM      9  C   UNL     1      37.297 -21.771 -16.571  0.00  0.00    +0.110 C 
BRANCH   9  11
ATOM     10  O   UNL     1      36.814 -23.252 -14.700  0.00  0.00    -0.250 OA
ATOM     11  C   UNL     1      37.547 -22.924 -15.623  0.00  0.00    +0.314 C 
BRANCH  11  12
ATOM     12  O   UNL     1      38.726 -23.543 -15.884  0.00  0.00    -0.480 OA
ATOM     13  H   UNL     1      39.535 -23.107 -15.702  0.00  0.00    +0.295 HD
ENDBRANCH  11  12
ENDBRANCH   9  11
ENDBRANCH   8   9
ENDBRANCH   1   8
TORSDOF 5
ENDMDL
MODEL 7
REMARK VINA RESULT:      -6.6      5.103      7.046
REMARK  Name = 4775
REMARK  5 active torsions:
REMARK  status: ('A' for Active; 'I' for Inactive)
REMARK    1  A    between atoms: C_1  and  C_2
REMARK    2  A    between atoms: C_1  and  C_8
REMARK    3  A    between atoms: C_8  and  C_9
REMARK    4  A    between atoms: C_9  and  C_11
REMARK    5  A    between atoms: C_11  and  O_12
REMARK                            x       y       z     vdW  Elec       q    Type
REMARK                         _______ _______ _______ _____ _____    ______ ____
ROOT
ATOM      1  C   UNL     1      34.687 -22.454 -18.444  0.00  0.00    +0.027 C 
ENDROOT
BRANCH   1   2
ATOM      2  C   UNL     1      34.416 -21.366 -19.450  0.00  0.00    -0.022 C 
ATOM      3  C   UNL     1      33.107 -20.986 -19.708  0.00  0.00    -0.004 C 
ATOM      4  C   UNL     1      35.479 -20.761 -20.103  0.00  0.00    -0.004 C 
ATOM      5  C   UNL     1      32.856 -19.978 -20.639  0.00  0.00    -0.000 C 
ATOM      6  C   UNL     1      35.228 -19.754 -21.035  0.00  0.00    -0.000 C 
ATOM      7  C   UNL     1      33.916 -19.363 -21.303  0.00  0.00    -0.000 C 
ENDBRANCH   1   2
BRANCH   1   8
ATOM      8  C   UNL     1      33.432 -23.175 -17.932  0.00  0.00    +0.016 C 
BRANCH   8   9
ATOM      9  C   UNL     1      33.335 -23.247 -16.405  0.00  0.00    +0.110 C 
BRANCH   9  11
ATOM     10  O   UNL     1      35.298 -24.572 -15.841  0.00  0.00    -0.250 OA
ATOM     11  C   UNL     1      34.656 -23.538 -15.725  0.00  0.00    +0.314 C 
BRANCH  11  12
ATOM     12  O   UNL     1      35.040 -22.518 -14.914  0.00  0.00    -0.480 OA
ATOM     13  H   UNL     1      35.298 -22.694 -14.030  0.00  0.00    +0.295 HD
ENDBRANCH  11  12
ENDBRANCH   9  11
ENDBRANCH   8   9
ENDBRANCH   1   8
TORSDOF 5
ENDMDL
MODEL 8
REMARK VINA RESULT:      -6.6      3.589      5.792
REMARK  Name = 4775
REMARK  5 active torsions:
REMARK  status: ('A' for Active; 'I' for Inactive)
REMARK    1  A    between atoms: C_1  and  C_2
REMARK    2  A    between atoms: C_1  and  C_8
REMARK    3  A    between atoms: C_8  and  C_9
REMARK    4  A    between atoms: C_9  and  C_11
REMARK    5  A    between atoms: C_11  and  O_12
REMARK                            x       y       z     vdW  Elec       q    Type
REMARK                         _______ _______ _______ _____ _____    ______ ____
ROOT
ATOM      1  C   UNL     1      35.713 -18.324 -21.168  0.00  0.00    +0.027 C 
ENDROOT
BRANCH   1   2
ATOM      2  C   UNL     1      35.184 -16.981 -21.598  0.00  0.00    -0.022 C 
ATOM      3  C   UNL     1      35.161 -16.657 -22.947  0.00  0.00    -0.004 C 
ATOM      4  C   UNL     1      34.728 -16.089 -20.640  0.00  0.00    -0.004 C 
ATOM      5  C   UNL     1      34.670 -15.414 -23.346  0.00  0.00    -0.000 C 
ATOM      6  C   UNL     1      34.238 -14.845 -21.038  0.00  0.00    -0.000 C 
ATOM      7  C   UNL     1      34.209 -14.508 -22.392  0.00  0.00    -0.000 C 
ENDBRANCH   1   2
BRANCH   1   8
ATOM      8  C   UNL     1      34.782 -19.504 -21.476  0.00  0.00    +0.016 C 
BRANCH   8   9
ATOM      9  C   UNL     1      34.684 -20.532 -20.344  0.00  0.00    +0.110 C 
BRANCH   9  11
ATOM     10  O   UNL     1      32.310 -20.135 -19.977  0.00  0.00    -0.250 OA
ATOM     11  C   UNL     1      33.263 -20.903 -19.980  0.00  0.00    +0.314 C 
BRANCH  11  12
ATOM     12  O   UNL     1      33.163 -22.203 -19.603  0.00  0.00    -0.480 OA
ATOM     13  H   UNL     1      33.250 -22.438 -18.700  0.00  0.00    +0.295 HD
ENDBRANCH  11  12
ENDBRANCH   9  11
ENDBRANCH   8   9
ENDBRANCH   1   8
TORSDOF 5
ENDMDL
MODEL 9
REMARK VINA RESULT:      -6.5      7.356      8.907
REMARK  Name = 4775
REMARK  5 active torsions:
REMARK  status: ('A' for Active; 'I' for Inactive)
REMARK    1  A    between atoms: C_1  and  C_2
REMARK    2  A    between atoms: C_1  and  C_8
REMARK    3  A    between atoms: C_8  and  C_9
REMARK    4  A    between atoms: C_9  and  C_11
REMARK    5  A    between atoms: C_11  and  O_12
REMARK                            x       y       z     vdW  Elec       q    Type
REMARK                         _______ _______ _______ _____ _____    ______ ____
ROOT
ATOM      1  C   UNL     1      30.434 -23.259 -14.553  0.00  0.00    +0.027 C 
ENDROOT
BRANCH   1   2
ATOM      2  C   UNL     1      31.742 -23.236 -15.300  0.00  0.00    -0.022 C 
ATOM      3  C   UNL     1      32.932 -23.335 -14.593  0.00  0.00    -0.004 C 
ATOM      4  C   UNL     1      31.738 -23.117 -16.681  0.00  0.00    -0.004 C 
ATOM      5  C   UNL     1      34.144 -23.314 -15.284  0.00  0.00    -0.000 C 
ATOM      6  C   UNL     1      32.949 -23.095 -17.372  0.00  0.00    -0.000 C 
ATOM      7  C   UNL     1      34.153 -23.194 -16.672  0.00  0.00    -0.000 C 
ENDBRANCH   1   2
BRANCH   1   8
ATOM      8  C   UNL     1      29.213 -23.606 -15.417  0.00  0.00    +0.016 C 
BRANCH   8   9
ATOM      9  C   UNL     1      28.304 -22.411 -15.718  0.00  0.00    +0.110 C 
BRANCH   9  11
ATOM     10  O   UNL     1      27.588 -23.491 -17.779  0.00  0.00    -0.250 OA
ATOM     11  C   UNL     1      27.591 -22.510 -17.049  0.00  0.00    +0.314 C 
BRANCH  11  12
ATOM     12  O   UNL     1      26.974 -21.345 -17.377  0.00  0.00    -0.480 OA
ATOM     13  H   UNL     1      27.407 -20.725 -17.931  0.00  0.00    +0.295 HD
ENDBRANCH  11  12
ENDBRANCH   9  11
ENDBRANCH   8   9
ENDBRANCH   1   8
TORSDOF 5
ENDMDL
