MODEL 1
REMARK VINA RESULT:      -6.5      0.000      0.000
REMARK  Name = 3305
REMARK  7 active torsions:
REMARK  status: ('A' for Active; 'I' for Inactive)
REMARK    1  A    between atoms: C_1  and  P_3
REMARK    2  A    between atoms: C_1  and  P_9
REMARK    3  A    between atoms: C_1  and  O_15
REMARK    4  A    between atoms: P_3  and  O_5
REMARK    5  A    between atoms: P_3  and  O_7
REMARK    6  A    between atoms: P_9  and  O_11
REMARK    7  A    between atoms: P_9  and  O_13
REMARK                            x       y       z     vdW  Elec       q    Type
REMARK                         _______ _______ _______ _____ _____    ______ ____
ROOT
ATOM      1  C   UNL     1      38.238 -25.838 -14.260  0.00  0.00    +0.275 C 
ATOM      2  C   UNL     1      38.256 -25.799 -12.730  0.00  0.00    +0.055 C 
ENDROOT
BRANCH   1   3
ATOM      3  P   UNL     1      39.712 -24.989 -14.920  0.00  0.00    +0.372 P 
ATOM      4  O   UNL     1      40.733 -24.644 -13.877  0.00  0.00    -0.255 OA
BRANCH   3   5
ATOM      5  O   UNL     1      39.101 -23.727 -15.723  0.00  0.00    -0.322 OA
ATOM      6  H   UNL     1      39.429 -22.903 -15.329  0.00  0.00    +0.220 HD
ENDBRANCH   3   5
BRANCH   3   7
ATOM      7  O   UNL     1      40.236 -25.962 -16.100  0.00  0.00    -0.322 OA
ATOM      8  H   UNL     1      41.195 -25.856 -16.204  0.00  0.00    +0.220 HD
ENDBRANCH   3   7
ENDBRANCH   1   3
BRANCH   1   9
ATOM      9  P   UNL     1      36.551 -25.462 -14.859  0.00  0.00    +0.372 P 
ATOM     10  O   UNL     1      36.468 -24.233 -15.715  0.00  0.00    -0.255 OA
BRANCH   9  11
ATOM     11  O   UNL     1      35.665 -25.421 -13.508  0.00  0.00    -0.322 OA
ATOM     12  H   UNL     1      36.247 -25.289 -12.743  0.00  0.00    +0.220 HD
ENDBRANCH   9  11
BRANCH   9  13
ATOM     13  O   UNL     1      36.108 -26.848 -15.561  0.00  0.00    -0.322 OA
ATOM     14  H   UNL     1      36.899 -27.366 -15.779  0.00  0.00    +0.220 HD
ENDBRANCH   9  13
ENDBRANCH   1   9
BRANCH   1  15
ATOM     15  O   UNL     1      38.421 -27.199 -14.648  0.00  0.00    -0.367 OA
ATOM     16  H   UNL     1      37.927 -27.777 -14.044  0.00  0.00    +0.212 HD
ENDBRANCH   1  15
TORSDOF 7
ENDMDL
MODEL 2
REMARK VINA RESULT:      -6.5      1.841      3.206
REMARK  Name = 3305
REMARK  7 active torsions:
REMARK  status: ('A' for Active; 'I' for Inactive)
REMARK    1  A    between atoms: C_1  and  P_3
REMARK    2  A    between atoms: C_1  and  P_9
REMARK    3  A    between atoms: C_1  and  O_15
REMARK    4  A    between atoms: P_3  and  O_5
REMARK    5  A    between atoms: P_3  and  O_7
REMARK    6  A    between atoms: P_9  and  O_11
REMARK    7  A    between atoms: P_9  and  O_13
REMARK                            x       y       z     vdW  Elec       q    Type
REMARK                         _______ _______ _______ _____ _____    ______ ____
ROOT
ATOM      1  C   UNL     1      37.039 -25.508 -12.908  0.00  0.00    +0.275 C 
ATOM      2  C   UNL     1      38.279 -24.738 -12.447  0.00  0.00    +0.055 C 
ENDROOT
BRANCH   1   3
ATOM      3  P   UNL     1      37.312 -26.182 -14.580  0.00  0.00    +0.372 P 
ATOM      4  O   UNL     1      38.627 -26.884 -14.746  0.00  0.00    -0.255 OA
BRANCH   3   5
ATOM      5  O   UNL     1      37.088 -24.909 -15.550  0.00  0.00    -0.322 OA
ATOM      6  H   UNL     1      37.670 -24.184 -15.270  0.00  0.00    +0.220 HD
ENDBRANCH   3   5
BRANCH   3   7
ATOM      7  O   UNL     1      36.006 -27.095 -14.859  0.00  0.00    -0.322 OA
ATOM      8  H   UNL     1      35.475 -27.155 -14.049  0.00  0.00    +0.220 HD
ENDBRANCH   3   7
ENDBRANCH   1   3
BRANCH   1   9
ATOM      9  P   UNL     1      35.537 -24.554 -12.478  0.00  0.00    +0.372 P 
ATOM     10  O   UNL     1      34.976 -24.879 -11.126  0.00  0.00    -0.255 OA
BRANCH   9  11
ATOM     11  O   UNL     1      34.541 -24.826 -13.721  0.00  0.00    -0.322 OA
ATOM     12  H   UNL     1      34.807 -25.640 -14.176  0.00  0.00    +0.220 HD
ENDBRANCH   9  11
BRANCH   9  13
ATOM     13  O   UNL     1      36.014 -23.027 -12.700  0.00  0.00    -0.322 OA
ATOM     14  H   UNL     1      36.221 -22.624 -11.842  0.00  0.00    +0.220 HD
ENDBRANCH   9  13
ENDBRANCH   1   9
BRANCH   1  15
ATOM     15  O   UNL     1      36.931 -26.666 -12.081  0.00  0.00    -0.367 OA
ATOM     16  H   UNL     1      37.812 -27.048 -11.942  0.00  0.00    +0.212 HD
ENDBRANCH   1  15
TORSDOF 7
ENDMDL
MODEL 3
REMARK VINA RESULT:      -6.4      2.349      3.644
REMARK  Name = 3305
REMARK  7 active torsions:
REMARK  status: ('A' for Active; 'I' for Inactive)
REMARK    1  A    between atoms: C_1  and  P_3
REMARK    2  A    between atoms: C_1  and  P_9
REMARK    3  A    between atoms: C_1  and  O_15
REMARK    4  A    between atoms: P_3  and  O_5
REMARK    5  A    between atoms: P_3  and  O_7
REMARK    6  A    between atoms: P_9  and  O_11
REMARK    7  A    between atoms: P_9  and  O_13
REMARK                            x       y       z     vdW  Elec       q    Type
REMARK                         _______ _______ _______ _____ _____    ______ ____
ROOT
ATOM      1  C   UNL     1      37.029 -25.507 -13.318  0.00  0.00    +0.275 C 
ATOM      2  C   UNL     1      38.542 -25.323 -13.455  0.00  0.00    +0.055 C 
ENDROOT
BRANCH   1   3
ATOM      3  P   UNL     1      36.259 -25.576 -14.970  0.00  0.00    +0.372 P 
ATOM      4  O   UNL     1      36.490 -26.868 -15.695  0.00  0.00    -0.255 OA
BRANCH   3   5
ATOM      5  O   UNL     1      36.830 -24.261 -15.715  0.00  0.00    -0.322 OA
ATOM      6  H   UNL     1      36.311 -24.094 -16.519  0.00  0.00    +0.220 HD
ENDBRANCH   3   5
BRANCH   3   7
ATOM      7  O   UNL     1      34.708 -25.206 -14.701  0.00  0.00    -0.322 OA
ATOM      8  H   UNL     1      34.320 -24.836 -15.510  0.00  0.00    +0.220 HD
ENDBRANCH   3   7
ENDBRANCH   1   3
BRANCH   1   9
ATOM      9  P   UNL     1      36.400 -24.406 -11.998  0.00  0.00    +0.372 P 
ATOM     10  O   UNL     1      37.372 -24.180 -10.879  0.00  0.00    -0.255 OA
BRANCH   9  11
ATOM     11  O   UNL     1      34.999 -25.087 -11.566  0.00  0.00    -0.322 OA
ATOM     12  H   UNL     1      34.416 -24.412 -11.185  0.00  0.00    +0.220 HD
ENDBRANCH   9  11
BRANCH   9  13
ATOM     13  O   UNL     1      35.946 -23.092 -12.821  0.00  0.00    -0.322 OA
ATOM     14  H   UNL     1      36.599 -22.903 -13.513  0.00  0.00    +0.220 HD
ENDBRANCH   9  13
ENDBRANCH   1   9
BRANCH   1  15
ATOM     15  O   UNL     1      36.810 -26.811 -12.779  0.00  0.00    -0.367 OA
ATOM     16  H   UNL     1      37.186 -27.475 -13.379  0.00  0.00    +0.212 HD
ENDBRANCH   1  15
TORSDOF 7
ENDMDL
MODEL 4
REMARK VINA RESULT:      -6.1      2.466      3.860
REMARK  Name = 3305
REMARK  7 active torsions:
REMARK  status: ('A' for Active; 'I' for Inactive)
REMARK    1  A    between atoms: C_1  and  P_3
REMARK    2  A    between atoms: C_1  and  P_9
REMARK    3  A    between atoms: C_1  and  O_15
REMARK    4  A    between atoms: P_3  and  O_5
REMARK    5  A    between atoms: P_3  and  O_7
REMARK    6  A    between atoms: P_9  and  O_11
REMARK    7  A    between atoms: P_9  and  O_13
REMARK                            x       y       z     vdW  Elec       q    Type
REMARK                         _______ _______ _______ _____ _____    ______ ____
ROOT
ATOM      1  C   UNL     1      37.723 -24.378 -13.519  0.00  0.00    +0.275 C 
ATOM      2  C   UNL     1      37.445 -23.495 -14.738  0.00  0.00    +0.055 C 
ENDROOT
BRANCH   1   3
ATOM      3  P   UNL     1      37.340 -26.118 -13.911  0.00  0.00    +0.372 P 
ATOM      4  O   UNL     1      38.461 -26.851 -14.586  0.00  0.00    -0.255 OA
BRANCH   3   5
ATOM      5  O   UNL     1      35.970 -26.027 -14.765  0.00  0.00    -0.322 OA
ATOM      6  H   UNL     1      36.098 -25.429 -15.518  0.00  0.00    +0.220 HD
ENDBRANCH   3   5
BRANCH   3   7
ATOM      7  O   UNL     1      36.857 -26.747 -12.502  0.00  0.00    -0.322 OA
ATOM      8  H   UNL     1      36.628 -26.030 -11.890  0.00  0.00    +0.220 HD
ENDBRANCH   3   7
ENDBRANCH   1   3
BRANCH   1   9
ATOM      9  P   UNL     1      37.080 -23.558 -12.015  0.00  0.00    +0.372 P 
ATOM     10  O   UNL     1      37.191 -24.390 -10.772  0.00  0.00    -0.255 OA
BRANCH   9  11
ATOM     11  O   UNL     1      35.577 -23.128 -12.425  0.00  0.00    -0.322 OA
ATOM     12  H   UNL     1      35.526 -23.007 -13.385  0.00  0.00    +0.220 HD
ENDBRANCH   9  11
BRANCH   9  13
ATOM     13  O   UNL     1      37.887 -22.158 -12.005  0.00  0.00    -0.322 OA
ATOM     14  H   UNL     1      38.652 -22.230 -11.413  0.00  0.00    +0.220 HD
ENDBRANCH   9  13
ENDBRANCH   1   9
BRANCH   1  15
ATOM     15  O   UNL     1      39.134 -24.374 -13.309  0.00  0.00    -0.367 OA
ATOM     16  H   UNL     1      39.321 -24.471 -12.362  0.00  0.00    +0.212 HD
ENDBRANCH   1  15
TORSDOF 7
ENDMDL
MODEL 5
REMARK VINA RESULT:      -6.1      2.206      2.952
REMARK  Name = 3305
REMARK  7 active torsions:
REMARK  status: ('A' for Active; 'I' for Inactive)
REMARK    1  A    between atoms: C_1  and  P_3
REMARK    2  A    between atoms: C_1  and  P_9
REMARK    3  A    between atoms: C_1  and  O_15
REMARK    4  A    between atoms: P_3  and  O_5
REMARK    5  A    between atoms: P_3  and  O_7
REMARK    6  A    between atoms: P_9  and  O_11
REMARK    7  A    between atoms: P_9  and  O_13
REMARK                            x       y       z     vdW  Elec       q    Type
REMARK                         _______ _______ _______ _____ _____    ______ ____
ROOT
ATOM      1  C   UNL     1      37.035 -24.491 -13.739  0.00  0.00    +0.275 C 
ATOM      2  C   UNL     1      35.856 -24.333 -14.702  0.00  0.00    +0.055 C 
ENDROOT
BRANCH   1   3
ATOM      3  P   UNL     1      38.401 -25.371 -14.567  0.00  0.00    +0.372 P 
ATOM      4  O   UNL     1      39.310 -26.106 -13.628  0.00  0.00    -0.255 OA
BRANCH   3   5
ATOM      5  O   UNL     1      39.115 -24.225 -15.455  0.00  0.00    -0.322 OA
ATOM      6  H   UNL     1      39.025 -23.368 -15.009  0.00  0.00    +0.220 HD
ENDBRANCH   3   5
BRANCH   3   7
ATOM      7  O   UNL     1      37.666 -26.293 -15.674  0.00  0.00    -0.322 OA
ATOM      8  H   UNL     1      37.426 -27.145 -15.277  0.00  0.00    +0.220 HD
ENDBRANCH   3   7
ENDBRANCH   1   3
BRANCH   1   9
ATOM      9  P   UNL     1      36.413 -24.993 -12.093  0.00  0.00    +0.372 P 
ATOM     10  O   UNL     1      34.949 -24.738 -11.892  0.00  0.00    -0.255 OA
BRANCH   9  11
ATOM     11  O   UNL     1      37.394 -24.227 -11.062  0.00  0.00    -0.322 OA
ATOM     12  H   UNL     1      38.314 -24.460 -11.258  0.00  0.00    +0.220 HD
ENDBRANCH   9  11
BRANCH   9  13
ATOM     13  O   UNL     1      36.885 -26.535 -11.992  0.00  0.00    -0.322 OA
ATOM     14  H   UNL     1      36.585 -26.910 -11.150  0.00  0.00    +0.220 HD
ENDBRANCH   9  13
ENDBRANCH   1   9
BRANCH   1  15
ATOM     15  O   UNL     1      37.560 -23.185 -13.499  0.00  0.00    -0.367 OA
ATOM     16  H   UNL     1      38.174 -22.948 -14.211  0.00  0.00    +0.212 HD
ENDBRANCH   1  15
TORSDOF 7
ENDMDL
MODEL 6
REMARK VINA RESULT:      -6.0      2.155      3.064
REMARK  Name = 3305
REMARK  7 active torsions:
REMARK  status: ('A' for Active; 'I' for Inactive)
REMARK    1  A    between atoms: C_1  and  P_3
REMARK    2  A    between atoms: C_1  and  P_9
REMARK    3  A    between atoms: C_1  and  O_15
REMARK    4  A    between atoms: P_3  and  O_5
REMARK    5  A    between atoms: P_3  and  O_7
REMARK    6  A    between atoms: P_9  and  O_11
REMARK    7  A    between atoms: P_9  and  O_13
REMARK                            x       y       z     vdW  Elec       q    Type
REMARK                         _______ _______ _______ _____ _____    ______ ____
ROOT
ATOM      1  C   UNL     1      37.116 -24.493 -13.818  0.00  0.00    +0.275 C 
ATOM      2  C   UNL     1      35.950 -24.619 -14.802  0.00  0.00    +0.055 C 
ENDROOT
BRANCH   1   3
ATOM      3  P   UNL     1      38.615 -25.248 -14.532  0.00  0.00    +0.372 P 
ATOM      4  O   UNL     1      39.520 -24.271 -15.221  0.00  0.00    -0.255 OA
BRANCH   3   5
ATOM      5  O   UNL     1      38.040 -26.429 -15.473  0.00  0.00    -0.322 OA
ATOM      6  H   UNL     1      38.642 -27.189 -15.442  0.00  0.00    +0.220 HD
ENDBRANCH   3   5
BRANCH   3   7
ATOM      7  O   UNL     1      39.283 -26.050 -13.296  0.00  0.00    -0.322 OA
ATOM      8  H   UNL     1      40.061 -26.537 -13.611  0.00  0.00    +0.220 HD
ENDBRANCH   3   7
ENDBRANCH   1   3
BRANCH   1   9
ATOM      9  P   UNL     1      36.535 -24.895 -12.131  0.00  0.00    +0.372 P 
ATOM     10  O   UNL     1      35.145 -24.416 -11.835  0.00  0.00    -0.255 OA
BRANCH   9  11
ATOM     11  O   UNL     1      37.689 -24.293 -11.173  0.00  0.00    -0.322 OA
ATOM     12  H   UNL     1      37.789 -24.859 -10.392  0.00  0.00    +0.220 HD
ENDBRANCH   9  11
BRANCH   9  13
ATOM     13  O   UNL     1      36.767 -26.492 -12.048  0.00  0.00    -0.322 OA
ATOM     14  H   UNL     1      37.381 -26.765 -12.748  0.00  0.00    +0.220 HD
ENDBRANCH   9  13
ENDBRANCH   1   9
BRANCH   1  15
ATOM     15  O   UNL     1      37.439 -23.106 -13.725  0.00  0.00    -0.367 OA
ATOM     16  H   UNL     1      38.158 -22.983 -13.085  0.00  0.00    +0.212 HD
ENDBRANCH   1  15
TORSDOF 7
ENDMDL
MODEL 7
REMARK VINA RESULT:      -6.0      2.267      3.620
REMARK  Name = 3305
REMARK  7 active torsions:
REMARK  status: ('A' for Active; 'I' for Inactive)
REMARK    1  A    between atoms: C_1  and  P_3
REMARK    2  A    between atoms: C_1  and  P_9
REMARK    3  A    between atoms: C_1  and  O_15
REMARK    4  A    between atoms: P_3  and  O_5
REMARK    5  A    between atoms: P_3  and  O_7
REMARK    6  A    between atoms: P_9  and  O_11
REMARK    7  A    between atoms: P_9  and  O_13
REMARK                            x       y       z     vdW  Elec       q    Type
REMARK                         _______ _______ _______ _____ _____    ______ ____
ROOT
ATOM      1  C   UNL     1      37.647 -24.456 -14.024  0.00  0.00    +0.275 C 
ATOM      2  C   UNL     1      37.032 -23.503 -15.052  0.00  0.00    +0.055 C 
ENDROOT
BRANCH   1   3
ATOM      3  P   UNL     1      37.205 -26.178 -14.430  0.00  0.00    +0.372 P 
ATOM      4  O   UNL     1      36.237 -26.306 -15.568  0.00  0.00    -0.255 OA
BRANCH   3   5
ATOM      5  O   UNL     1      36.692 -26.786 -13.024  0.00  0.00    -0.322 OA
ATOM      6  H   UNL     1      37.457 -27.011 -12.471  0.00  0.00    +0.220 HD
ENDBRANCH   3   5
BRANCH   3   7
ATOM      7  O   UNL     1      38.629 -26.912 -14.654  0.00  0.00    -0.322 OA
ATOM      8  H   UNL     1      39.339 -26.354 -14.300  0.00  0.00    +0.220 HD
ENDBRANCH   3   7
ENDBRANCH   1   3
BRANCH   1   9
ATOM      9  P   UNL     1      37.423 -23.765 -12.344  0.00  0.00    +0.372 P 
ATOM     10  O   UNL     1      38.096 -22.442 -12.135  0.00  0.00    -0.255 OA
BRANCH   9  11
ATOM     11  O   UNL     1      37.923 -24.955 -11.371  0.00  0.00    -0.322 OA
ATOM     12  H   UNL     1      37.153 -25.419 -11.006  0.00  0.00    +0.220 HD
ENDBRANCH   9  11
BRANCH   9  13
ATOM     13  O   UNL     1      35.817 -23.780 -12.168  0.00  0.00    -0.322 OA
ATOM     14  H   UNL     1      35.570 -23.231 -11.408  0.00  0.00    +0.220 HD
ENDBRANCH   9  13
ENDBRANCH   1   9
BRANCH   1  15
ATOM     15  O   UNL     1      39.063 -24.410 -14.203  0.00  0.00    -0.367 OA
ATOM     16  H   UNL     1      39.406 -23.573 -13.854  0.00  0.00    +0.212 HD
ENDBRANCH   1  15
TORSDOF 7
ENDMDL
MODEL 8
REMARK VINA RESULT:      -5.8      1.689      3.274
REMARK  Name = 3305
REMARK  7 active torsions:
REMARK  status: ('A' for Active; 'I' for Inactive)
REMARK    1  A    between atoms: C_1  and  P_3
REMARK    2  A    between atoms: C_1  and  P_9
REMARK    3  A    between atoms: C_1  and  O_15
REMARK    4  A    between atoms: P_3  and  O_5
REMARK    5  A    between atoms: P_3  and  O_7
REMARK    6  A    between atoms: P_9  and  O_11
REMARK    7  A    between atoms: P_9  and  O_13
REMARK                            x       y       z     vdW  Elec       q    Type
REMARK                         _______ _______ _______ _____ _____    ______ ____
ROOT
ATOM      1  C   UNL     1      37.505 -24.581 -14.491  0.00  0.00    +0.275 C 
ATOM      2  C   UNL     1      37.856 -24.252 -13.038  0.00  0.00    +0.055 C 
ENDROOT
BRANCH   1   3
ATOM      3  P   UNL     1      36.264 -23.398 -15.113  0.00  0.00    +0.372 P 
ATOM      4  O   UNL     1      36.851 -22.225 -15.840  0.00  0.00    -0.255 OA
BRANCH   3   5
ATOM      5  O   UNL     1      35.397 -23.025 -13.802  0.00  0.00    -0.322 OA
ATOM      6  H   UNL     1      34.522 -23.441 -13.864  0.00  0.00    +0.220 HD
ENDBRANCH   3   5
BRANCH   3   7
ATOM      7  O   UNL     1      35.249 -24.308 -15.984  0.00  0.00    -0.322 OA
ATOM      8  H   UNL     1      34.700 -24.840 -15.386  0.00  0.00    +0.220 HD
ENDBRANCH   3   7
ENDBRANCH   1   3
BRANCH   1   9
ATOM      9  P   UNL     1      37.300 -26.390 -14.673  0.00  0.00    +0.372 P 
ATOM     10  O   UNL     1      36.428 -26.791 -15.825  0.00  0.00    -0.255 OA
BRANCH   9  11
ATOM     11  O   UNL     1      36.782 -26.865 -13.218  0.00  0.00    -0.322 OA
ATOM     12  H   UNL     1      36.603 -26.087 -12.669  0.00  0.00    +0.220 HD
ENDBRANCH   9  11
BRANCH   9  13
ATOM     13  O   UNL     1      38.827 -26.915 -14.723  0.00  0.00    -0.322 OA
ATOM     14  H   UNL     1      39.247 -26.770 -13.860  0.00  0.00    +0.220 HD
ENDBRANCH   9  13
ENDBRANCH   1   9
BRANCH   1  15
ATOM     15  O   UNL     1      38.666 -24.308 -15.276  0.00  0.00    -0.367 OA
ATOM     16  H   UNL     1      39.146 -25.135 -15.441  0.00  0.00    +0.212 HD
ENDBRANCH   1  15
TORSDOF 7
ENDMDL
MODEL 9
REMARK VINA RESULT:      -5.8      2.189      3.918
REMARK  Name = 3305
REMARK  7 active torsions:
REMARK  status: ('A' for Active; 'I' for Inactive)
REMARK    1  A    between atoms: C_1  and  P_3
REMARK    2  A    between atoms: C_1  and  P_9
REMARK    3  A    between atoms: C_1  and  O_15
REMARK    4  A    between atoms: P_3  and  O_5
REMARK    5  A    between atoms: P_3  and  O_7
REMARK    6  A    between atoms: P_9  and  O_11
REMARK    7  A    between atoms: P_9  and  O_13
REMARK                            x       y       z     vdW  Elec       q    Type
REMARK                         _______ _______ _______ _____ _____    ______ ____
ROOT
ATOM      1  C   UNL     1      36.918 -25.208 -13.530  0.00  0.00    +0.275 C 
ATOM      2  C   UNL     1      35.833 -25.139 -14.608  0.00  0.00    +0.055 C 
ENDROOT
BRANCH   1   3
ATOM      3  P   UNL     1      36.572 -23.986 -12.222  0.00  0.00    +0.372 P 
ATOM      4  O   UNL     1      35.111 -23.743 -11.986  0.00  0.00    -0.255 OA
BRANCH   3   5
ATOM      5  O   UNL     1      37.417 -22.685 -12.677  0.00  0.00    -0.322 OA
ATOM      6  H   UNL     1      37.588 -22.124 -11.904  0.00  0.00    +0.220 HD
ENDBRANCH   3   5
BRANCH   3   7
ATOM      7  O   UNL     1      37.394 -24.532 -10.940  0.00  0.00    -0.322 OA
ATOM      8  H   UNL     1      38.286 -24.151 -10.942  0.00  0.00    +0.220 HD
ENDBRANCH   3   7
ENDBRANCH   1   3
BRANCH   1   9
ATOM      9  P   UNL     1      38.560 -25.340 -14.327  0.00  0.00    +0.372 P 
ATOM     10  O   UNL     1      38.869 -26.707 -14.862  0.00  0.00    -0.255 OA
BRANCH   9  11
ATOM     11  O   UNL     1      39.580 -24.795 -13.198  0.00  0.00    -0.322 OA
ATOM     12  H   UNL     1      40.269 -25.457 -13.038  0.00  0.00    +0.220 HD
ENDBRANCH   9  11
BRANCH   9  13
ATOM     13  O   UNL     1      38.522 -24.145 -15.413  0.00  0.00    -0.322 OA
ATOM     14  H   UNL     1      38.802 -24.485 -16.278  0.00  0.00    +0.220 HD
ENDBRANCH   9  13
ENDBRANCH   1   9
BRANCH   1  15
ATOM     15  O   UNL     1      36.778 -26.467 -12.873  0.00  0.00    -0.367 OA
ATOM     16  H   UNL     1      36.235 -26.358 -12.076  0.00  0.00    +0.212 HD
ENDBRANCH   1  15
TORSDOF 7
ENDMDL
