MODEL 1
REMARK VINA RESULT:      -4.9      0.000      0.000
REMARK  Name = 58
REMARK  3 active torsions:
REMARK  status: ('A' for Active; 'I' for Inactive)
REMARK    1  A    between atoms: C_2  and  C_4
REMARK    2  A    between atoms: C_2  and  C_7
REMARK    3  A    between atoms: C_4  and  O_5
REMARK                            x       y       z     vdW  Elec       q    Type
REMARK                         _______ _______ _______ _____ _____    ______ ____
ROOT
ATOM      1  O   UNL     1      27.914 -23.193 -18.005  0.00  0.00    -0.284 OA
ATOM      2  C   UNL     1      27.632 -22.527 -17.020  0.00  0.00    +0.248 C 
ENDROOT
BRANCH   2   4
ATOM      3  O   UNL     1      26.410 -20.717 -17.972  0.00  0.00    -0.242 OA
ATOM      4  C   UNL     1      26.458 -21.595 -17.134  0.00  0.00    +0.373 C 
BRANCH   4   5
ATOM      5  O   UNL     1      25.569 -21.860 -16.169  0.00  0.00    -0.475 OA
ATOM      6  H   UNL     1      25.211 -21.162 -15.655  0.00  0.00    +0.295 HD
ENDBRANCH   4   5
ENDBRANCH   2   4
BRANCH   2   7
ATOM      7  C   UNL     1      28.350 -22.556 -15.692  0.00  0.00    +0.076 C 
ATOM      8  C   UNL     1      28.961 -23.916 -15.407  0.00  0.00    +0.009 C 
ENDBRANCH   2   7
TORSDOF 3
ENDMDL
MODEL 2
REMARK VINA RESULT:      -4.9     11.886     12.967
REMARK  Name = 58
REMARK  3 active torsions:
REMARK  status: ('A' for Active; 'I' for Inactive)
REMARK    1  A    between atoms: C_2  and  C_4
REMARK    2  A    between atoms: C_2  and  C_7
REMARK    3  A    between atoms: C_4  and  O_5
REMARK                            x       y       z     vdW  Elec       q    Type
REMARK                         _______ _______ _______ _____ _____    ______ ____
ROOT
ATOM      1  O   UNL     1      38.549 -26.982 -14.764  0.00  0.00    -0.284 OA
ATOM      2  C   UNL     1      39.060 -26.012 -14.224  0.00  0.00    +0.248 C 
ENDROOT
BRANCH   2   4
ATOM      3  O   UNL     1      40.956 -24.575 -14.333  0.00  0.00    -0.242 OA
ATOM      4  C   UNL     1      40.285 -25.430 -14.873  0.00  0.00    +0.373 C 
BRANCH   4   5
ATOM      5  O   UNL     1      40.447 -25.954 -16.094  0.00  0.00    -0.475 OA
ATOM      6  H   UNL     1      41.204 -25.735 -16.602  0.00  0.00    +0.295 HD
ENDBRANCH   4   5
ENDBRANCH   2   4
BRANCH   2   7
ATOM      7  C   UNL     1      38.571 -25.334 -12.967  0.00  0.00    +0.076 C 
ATOM      8  C   UNL     1      37.212 -25.852 -12.534  0.00  0.00    +0.009 C 
ENDBRANCH   2   7
TORSDOF 3
ENDMDL
MODEL 3
REMARK VINA RESULT:      -4.7     15.378     15.981
REMARK  Name = 58
REMARK  3 active torsions:
REMARK  status: ('A' for Active; 'I' for Inactive)
REMARK    1  A    between atoms: C_2  and  C_4
REMARK    2  A    between atoms: C_2  and  C_7
REMARK    3  A    between atoms: C_4  and  O_5
REMARK                            x       y       z     vdW  Elec       q    Type
REMARK                         _______ _______ _______ _____ _____    ______ ____
ROOT
ATOM      1  O   UNL     1      40.720 -13.880 -14.541  0.00  0.00    -0.284 OA
ATOM      2  C   UNL     1      41.215 -14.438 -15.509  0.00  0.00    +0.248 C 
ENDROOT
BRANCH   2   4
ATOM      3  O   UNL     1      42.239 -16.584 -15.639  0.00  0.00    -0.242 OA
ATOM      4  C   UNL     1      41.217 -15.941 -15.507  0.00  0.00    +0.373 C 
BRANCH   4   5
ATOM      5  O   UNL     1      39.965 -16.401 -15.401  0.00  0.00    -0.475 OA
ATOM      6  H   UNL     1      39.785 -17.160 -14.881  0.00  0.00    +0.295 HD
ENDBRANCH   4   5
ENDBRANCH   2   4
BRANCH   2   7
ATOM      7  C   UNL     1      41.819 -13.760 -16.714  0.00  0.00    +0.076 C 
ATOM      8  C   UNL     1      41.184 -14.234 -18.009  0.00  0.00    +0.009 C 
ENDBRANCH   2   7
TORSDOF 3
ENDMDL
MODEL 4
REMARK VINA RESULT:      -4.7     10.014     10.995
REMARK  Name = 58
REMARK  3 active torsions:
REMARK  status: ('A' for Active; 'I' for Inactive)
REMARK    1  A    between atoms: C_2  and  C_4
REMARK    2  A    between atoms: C_2  and  C_7
REMARK    3  A    between atoms: C_4  and  O_5
REMARK                            x       y       z     vdW  Elec       q    Type
REMARK                         _______ _______ _______ _____ _____    ______ ____
ROOT
ATOM      1  O   UNL     1      37.300 -22.835 -10.971  0.00  0.00    -0.284 OA
ATOM      2  C   UNL     1      36.807 -23.771 -11.582  0.00  0.00    +0.248 C 
ENDROOT
BRANCH   2   4
ATOM      3  O   UNL     1      35.446 -24.502  -9.770  0.00  0.00    -0.242 OA
ATOM      4  C   UNL     1      35.603 -24.433 -10.972  0.00  0.00    +0.373 C 
BRANCH   4   5
ATOM      5  O   UNL     1      34.827 -24.947 -11.934  0.00  0.00    -0.475 OA
ATOM      6  H   UNL     1      35.213 -25.420 -12.646  0.00  0.00    +0.295 HD
ENDBRANCH   4   5
ENDBRANCH   2   4
BRANCH   2   7
ATOM      7  C   UNL     1      37.289 -24.322 -12.902  0.00  0.00    +0.076 C 
ATOM      8  C   UNL     1      38.268 -25.467 -12.715  0.00  0.00    +0.009 C 
ENDBRANCH   2   7
TORSDOF 3
ENDMDL
MODEL 5
REMARK VINA RESULT:      -4.6      1.467      2.201
REMARK  Name = 58
REMARK  3 active torsions:
REMARK  status: ('A' for Active; 'I' for Inactive)
REMARK    1  A    between atoms: C_2  and  C_4
REMARK    2  A    between atoms: C_2  and  C_7
REMARK    3  A    between atoms: C_4  and  O_5
REMARK                            x       y       z     vdW  Elec       q    Type
REMARK                         _______ _______ _______ _____ _____    ______ ____
ROOT
ATOM      1  O   UNL     1      30.296 -22.333 -17.151  0.00  0.00    -0.284 OA
ATOM      2  C   UNL     1      29.397 -22.822 -16.484  0.00  0.00    +0.248 C 
ENDROOT
BRANCH   2   4
ATOM      3  O   UNL     1      27.584 -23.811 -17.671  0.00  0.00    -0.242 OA
ATOM      4  C   UNL     1      28.021 -22.838 -17.091  0.00  0.00    +0.373 C 
BRANCH   4   5
ATOM      5  O   UNL     1      27.438 -21.644 -16.933  0.00  0.00    -0.475 OA
ATOM      6  H   UNL     1      26.865 -21.494 -16.206  0.00  0.00    +0.295 HD
ENDBRANCH   4   5
ENDBRANCH   2   4
BRANCH   2   7
ATOM      7  C   UNL     1      29.537 -23.422 -15.106  0.00  0.00    +0.076 C 
ATOM      8  C   UNL     1      29.683 -24.932 -15.156  0.00  0.00    +0.009 C 
ENDBRANCH   2   7
TORSDOF 3
ENDMDL
MODEL 6
REMARK VINA RESULT:      -4.5      1.944      2.852
REMARK  Name = 58
REMARK  3 active torsions:
REMARK  status: ('A' for Active; 'I' for Inactive)
REMARK    1  A    between atoms: C_2  and  C_4
REMARK    2  A    between atoms: C_2  and  C_7
REMARK    3  A    between atoms: C_4  and  O_5
REMARK                            x       y       z     vdW  Elec       q    Type
REMARK                         _______ _______ _______ _____ _____    ______ ____
ROOT
ATOM      1  O   UNL     1      28.855 -24.663 -15.180  0.00  0.00    -0.284 OA
ATOM      2  C   UNL     1      29.280 -23.834 -15.971  0.00  0.00    +0.248 C 
ENDROOT
BRANCH   2   4
ATOM      3  O   UNL     1      27.592 -24.014 -17.642  0.00  0.00    -0.242 OA
ATOM      4  C   UNL     1      28.310 -23.290 -16.983  0.00  0.00    +0.373 C 
BRANCH   4   5
ATOM      5  O   UNL     1      28.425 -21.958 -17.056  0.00  0.00    -0.475 OA
ATOM      6  H   UNL     1      27.759 -21.452 -17.478  0.00  0.00    +0.295 HD
ENDBRANCH   4   5
ENDBRANCH   2   4
BRANCH   2   7
ATOM      7  C   UNL     1      30.689 -23.297 -16.025  0.00  0.00    +0.076 C 
ATOM      8  C   UNL     1      31.153 -22.784 -14.673  0.00  0.00    +0.009 C 
ENDBRANCH   2   7
TORSDOF 3
ENDMDL
MODEL 7
REMARK VINA RESULT:      -4.4     11.613     11.981
REMARK  Name = 58
REMARK  3 active torsions:
REMARK  status: ('A' for Active; 'I' for Inactive)
REMARK    1  A    between atoms: C_2  and  C_4
REMARK    2  A    between atoms: C_2  and  C_7
REMARK    3  A    between atoms: C_4  and  O_5
REMARK                            x       y       z     vdW  Elec       q    Type
REMARK                         _______ _______ _______ _____ _____    ______ ____
ROOT
ATOM      1  O   UNL     1      37.192 -26.227 -11.978  0.00  0.00    -0.284 OA
ATOM      2  C   UNL     1      37.686 -25.208 -12.437  0.00  0.00    +0.248 C 
ENDROOT
BRANCH   2   4
ATOM      3  O   UNL     1      38.503 -23.101 -11.684  0.00  0.00    -0.242 OA
ATOM      4  C   UNL     1      37.681 -23.987 -11.560  0.00  0.00    +0.373 C 
BRANCH   4   5
ATOM      5  O   UNL     1      36.709 -24.084 -10.646  0.00  0.00    -0.475 OA
ATOM      6  H   UNL     1      36.341 -24.921 -10.438  0.00  0.00    +0.295 HD
ENDBRANCH   4   5
ENDBRANCH   2   4
BRANCH   2   7
ATOM      7  C   UNL     1      38.311 -25.059 -13.803  0.00  0.00    +0.076 C 
ATOM      8  C   UNL     1      39.724 -25.612 -13.844  0.00  0.00    +0.009 C 
ENDBRANCH   2   7
TORSDOF 3
ENDMDL
MODEL 8
REMARK VINA RESULT:      -4.4      7.045      8.067
REMARK  Name = 58
REMARK  3 active torsions:
REMARK  status: ('A' for Active; 'I' for Inactive)
REMARK    1  A    between atoms: C_2  and  C_4
REMARK    2  A    between atoms: C_2  and  C_7
REMARK    3  A    between atoms: C_4  and  O_5
REMARK                            x       y       z     vdW  Elec       q    Type
REMARK                         _______ _______ _______ _____ _____    ______ ____
ROOT
ATOM      1  O   UNL     1      32.606 -21.067 -19.364  0.00  0.00    -0.284 OA
ATOM      2  C   UNL     1      33.792 -21.227 -19.610  0.00  0.00    +0.248 C 
ENDROOT
BRANCH   2   4
ATOM      3  O   UNL     1      35.426 -22.343 -18.285  0.00  0.00    -0.242 OA
ATOM      4  C   UNL     1      34.460 -22.435 -19.015  0.00  0.00    +0.373 C 
BRANCH   4   5
ATOM      5  O   UNL     1      33.868 -23.550 -19.459  0.00  0.00    -0.475 OA
ATOM      6  H   UNL     1      33.053 -23.498 -19.921  0.00  0.00    +0.295 HD
ENDBRANCH   4   5
ENDBRANCH   2   4
BRANCH   2   7
ATOM      7  C   UNL     1      34.652 -20.329 -20.466  0.00  0.00    +0.076 C 
ATOM      8  C   UNL     1      33.835 -19.252 -21.157  0.00  0.00    +0.009 C 
ENDBRANCH   2   7
TORSDOF 3
ENDMDL
MODEL 9
REMARK VINA RESULT:      -4.3     11.006     11.506
REMARK  Name = 58
REMARK  3 active torsions:
REMARK  status: ('A' for Active; 'I' for Inactive)
REMARK    1  A    between atoms: C_2  and  C_4
REMARK    2  A    between atoms: C_2  and  C_7
REMARK    3  A    between atoms: C_4  and  O_5
REMARK                            x       y       z     vdW  Elec       q    Type
REMARK                         _______ _______ _______ _____ _____    ______ ____
ROOT
ATOM      1  O   UNL     1      34.236 -19.079 -24.899  0.00  0.00    -0.284 OA
ATOM      2  C   UNL     1      34.833 -18.279 -24.194  0.00  0.00    +0.248 C 
ENDROOT
BRANCH   2   4
ATOM      3  O   UNL     1      34.629 -16.566 -25.836  0.00  0.00    -0.242 OA
ATOM      4  C   UNL     1      34.964 -16.873 -24.709  0.00  0.00    +0.373 C 
BRANCH   4   5
ATOM      5  O   UNL     1      35.534 -16.097 -23.780  0.00  0.00    -0.475 OA
ATOM      6  H   UNL     1      35.002 -15.649 -23.152  0.00  0.00    +0.295 HD
ENDBRANCH   4   5
ENDBRANCH   2   4
BRANCH   2   7
ATOM      7  C   UNL     1      35.446 -18.567 -22.844  0.00  0.00    +0.076 C 
ATOM      8  C   UNL     1      34.519 -19.385 -21.963  0.00  0.00    +0.009 C 
ENDBRANCH   2   7
TORSDOF 3
ENDMDL
