MODEL 1
REMARK VINA RESULT:      -9.2      0.000      0.000
REMARK  Name = 448326
REMARK  7 active torsions:
REMARK  status: ('A' for Active; 'I' for Inactive)
REMARK    1  A    between atoms: C_2  and  N_11
REMARK    2  A    between atoms: C_3  and  O_22
REMARK    3  A    between atoms: C_12  and  C_14
REMARK    4  A    between atoms: C_19  and  O_20
REMARK    5  A    between atoms: O_22  and  C_24
REMARK    6  A    between atoms: C_24  and  C_25
REMARK    7  A    between atoms: C_30  and  O_31
REMARK                            x       y       z     vdW  Elec       q    Type
REMARK                         _______ _______ _______ _____ _____    ______ ____
ROOT
ATOM      1  N   UNL     1      33.476 -12.076 -26.362  0.00  0.00    +0.385 N 
ATOM      2  C   UNL     1      34.200 -11.677 -23.968  0.00  0.00    +0.091 C 
ATOM      3  C   UNL     1      33.632 -12.990 -23.400  0.00  0.00    +0.185 C 
ATOM      4  C   UNL     1      32.266 -13.392 -23.961  0.00  0.00    +0.043 C 
ATOM      5  C   UNL     1      34.556 -11.686 -25.460  0.00  0.00    -0.058 C 
ATOM      6  C   UNL     1      32.237 -14.014 -25.358  0.00  0.00    -0.020 C 
ATOM      7  C   UNL     1      33.261 -13.517 -26.373  0.00  0.00    -0.082 C 
ATOM      8  H   UNL     1      33.710 -11.771 -27.306  0.00  0.00    -0.084 HD
ATOM      9  H   UNL     1      32.617 -11.635 -26.031  0.00  0.00    -0.084 HD
ENDROOT
BRANCH   2  11
ATOM     10  O   UNL     1      35.002  -8.936 -23.708  0.00  0.00    -0.270 OA
ATOM     11  N   UNL     1      33.344 -10.556 -23.647  0.00  0.00    -0.301 N 
ATOM     12  C   UNL     1      33.830  -9.266 -23.544  0.00  0.00    +0.246 C 
ATOM     13  H   UNL     1      32.385 -10.717 -23.497  0.00  0.00    +0.150 HD
BRANCH  12  14
ATOM     14  C   UNL     1      32.828  -8.231 -23.182  0.00  0.00    +0.054 C 
ATOM     15  C   UNL     1      31.641  -8.181 -23.879  0.00  0.00    +0.008 C 
ATOM     16  C   UNL     1      33.120  -7.351 -22.160  0.00  0.00    +0.008 C 
ATOM     17  C   UNL     1      30.699  -7.208 -23.540  0.00  0.00    +0.037 C 
ATOM     18  C   UNL     1      32.180  -6.378 -21.820  0.00  0.00    +0.037 C 
ATOM     19  C   UNL     1      30.969  -6.307 -22.510  0.00  0.00    +0.134 C 
BRANCH  19  20
ATOM     20  O   UNL     1      30.053  -5.357 -22.181  0.00  0.00    -0.506 OA
ATOM     21  H   UNL     1      30.088  -4.511 -22.583  0.00  0.00    +0.292 HD
ENDBRANCH  19  20
ENDBRANCH  12  14
ENDBRANCH   2  11
BRANCH   3  22
ATOM     22  O   UNL     1      34.581 -14.037 -23.577  0.00  0.00    -0.448 OA
BRANCH  22  24
ATOM     23  O   UNL     1      34.596 -14.751 -21.389  0.00  0.00    -0.245 OA
ATOM     24  C   UNL     1      34.617 -14.967 -22.591  0.00  0.00    +0.341 C 
BRANCH  24  25
ATOM     25  C   UNL     1      34.693 -16.332 -23.172  0.00  0.00    +0.076 C 
ATOM     26  C   UNL     1      34.898 -17.405 -22.329  0.00  0.00    +0.010 C 
ATOM     27  C   UNL     1      34.554 -16.484 -24.536  0.00  0.00    +0.010 C 
ATOM     28  C   UNL     1      34.968 -18.687 -22.874  0.00  0.00    +0.037 C 
ATOM     29  C   UNL     1      34.624 -17.766 -25.081  0.00  0.00    +0.037 C 
ATOM     30  C   UNL     1      34.832 -18.868 -24.250  0.00  0.00    +0.134 C 
BRANCH  30  31
ATOM     31  O   UNL     1      34.902 -20.118 -24.782  0.00  0.00    -0.506 OA
ATOM     32  H   UNL     1      34.120 -20.622 -24.900  0.00  0.00    +0.292 HD
ENDBRANCH  30  31
ENDBRANCH  24  25
ENDBRANCH  22  24
ENDBRANCH   3  22
TORSDOF 7
ENDMDL
MODEL 2
REMARK VINA RESULT:      -8.9      9.444     13.779
REMARK  Name = 448326
REMARK  7 active torsions:
REMARK  status: ('A' for Active; 'I' for Inactive)
REMARK    1  A    between atoms: C_2  and  N_11
REMARK    2  A    between atoms: C_3  and  O_22
REMARK    3  A    between atoms: C_12  and  C_14
REMARK    4  A    between atoms: C_19  and  O_20
REMARK    5  A    between atoms: O_22  and  C_24
REMARK    6  A    between atoms: C_24  and  C_25
REMARK    7  A    between atoms: C_30  and  O_31
REMARK                            x       y       z     vdW  Elec       q    Type
REMARK                         _______ _______ _______ _____ _____    ______ ____
ROOT
ATOM      1  N   UNL     1      31.640 -23.064 -15.533  0.00  0.00    +0.385 N 
ATOM      2  C   UNL     1      33.555 -23.808 -17.015  0.00  0.00    +0.091 C 
ATOM      3  C   UNL     1      34.615 -23.870 -15.901  0.00  0.00    +0.185 C 
ATOM      4  C   UNL     1      34.543 -22.726 -14.885  0.00  0.00    +0.043 C 
ATOM      5  C   UNL     1      32.097 -23.985 -16.570  0.00  0.00    -0.058 C 
ATOM      6  C   UNL     1      33.452 -22.806 -13.816  0.00  0.00    -0.020 C 
ATOM      7  C   UNL     1      32.121 -23.439 -14.211  0.00  0.00    -0.082 C 
ATOM      8  H   UNL     1      30.620 -23.060 -15.524  0.00  0.00    -0.084 HD
ATOM      9  H   UNL     1      32.013 -22.139 -15.750  0.00  0.00    -0.084 HD
ENDROOT
BRANCH   2  11
ATOM     10  O   UNL     1      34.142 -23.701 -19.820  0.00  0.00    -0.270 OA
ATOM     11  N   UNL     1      33.710 -22.614 -17.817  0.00  0.00    -0.301 N 
ATOM     12  C   UNL     1      33.994 -22.669 -19.169  0.00  0.00    +0.246 C 
ATOM     13  H   UNL     1      33.610 -21.735 -17.387  0.00  0.00    +0.150 HD
BRANCH  12  14
ATOM     14  C   UNL     1      34.149 -21.355 -19.845  0.00  0.00    +0.054 C 
ATOM     15  C   UNL     1      33.019 -20.625 -20.145  0.00  0.00    +0.008 C 
ATOM     16  C   UNL     1      35.418 -20.910 -20.152  0.00  0.00    +0.008 C 
ATOM     17  C   UNL     1      33.163 -19.391 -20.781  0.00  0.00    +0.037 C 
ATOM     18  C   UNL     1      35.563 -19.677 -20.788  0.00  0.00    +0.037 C 
ATOM     19  C   UNL     1      34.435 -18.917 -21.102  0.00  0.00    +0.134 C 
BRANCH  19  20
ATOM     20  O   UNL     1      34.576 -17.715 -21.724  0.00  0.00    -0.506 OA
ATOM     21  H   UNL     1      34.724 -17.680 -22.648  0.00  0.00    +0.292 HD
ENDBRANCH  19  20
ENDBRANCH  12  14
ENDBRANCH   2  11
BRANCH   3  22
ATOM     22  O   UNL     1      34.548 -25.133 -15.247  0.00  0.00    -0.448 OA
BRANCH  22  24
ATOM     23  O   UNL     1      36.018 -26.812 -15.811  0.00  0.00    -0.245 OA
ATOM     24  C   UNL     1      35.717 -25.816 -15.170  0.00  0.00    +0.341 C 
BRANCH  24  25
ATOM     25  C   UNL     1      36.619 -25.185 -14.175  0.00  0.00    +0.076 C 
ATOM     26  C   UNL     1      37.877 -24.783 -14.575  0.00  0.00    +0.010 C 
ATOM     27  C   UNL     1      36.172 -25.019 -12.880  0.00  0.00    +0.010 C 
ATOM     28  C   UNL     1      38.725 -24.190 -13.640  0.00  0.00    +0.037 C 
ATOM     29  C   UNL     1      37.020 -24.426 -11.945  0.00  0.00    +0.037 C 
ATOM     30  C   UNL     1      38.296 -24.011 -12.325  0.00  0.00    +0.134 C 
BRANCH  30  31
ATOM     31  O   UNL     1      39.124 -23.434 -11.412  0.00  0.00    -0.506 OA
ATOM     32  H   UNL     1      39.308 -22.516 -11.461  0.00  0.00    +0.292 HD
ENDBRANCH  30  31
ENDBRANCH  24  25
ENDBRANCH  22  24
ENDBRANCH   3  22
TORSDOF 7
ENDMDL
MODEL 3
REMARK VINA RESULT:      -8.8      9.626     13.766
REMARK  Name = 448326
REMARK  7 active torsions:
REMARK  status: ('A' for Active; 'I' for Inactive)
REMARK    1  A    between atoms: C_2  and  N_11
REMARK    2  A    between atoms: C_3  and  O_22
REMARK    3  A    between atoms: C_12  and  C_14
REMARK    4  A    between atoms: C_19  and  O_20
REMARK    5  A    between atoms: O_22  and  C_24
REMARK    6  A    between atoms: C_24  and  C_25
REMARK    7  A    between atoms: C_30  and  O_31
REMARK                            x       y       z     vdW  Elec       q    Type
REMARK                         _______ _______ _______ _____ _____    ______ ____
ROOT
ATOM      1  N   UNL     1      31.069 -23.783 -16.247  0.00  0.00    +0.385 N 
ATOM      2  C   UNL     1      33.581 -23.738 -16.571  0.00  0.00    +0.091 C 
ATOM      3  C   UNL     1      33.929 -23.341 -15.125  0.00  0.00    +0.185 C 
ATOM      4  C   UNL     1      32.998 -22.295 -14.506  0.00  0.00    +0.043 C 
ATOM      5  C   UNL     1      32.247 -24.472 -16.766  0.00  0.00    -0.058 C 
ATOM      6  C   UNL     1      31.630 -22.776 -14.017  0.00  0.00    -0.020 C 
ATOM      7  C   UNL     1      30.956 -23.899 -14.799  0.00  0.00    -0.082 C 
ATOM      8  H   UNL     1      30.237 -24.188 -16.675  0.00  0.00    -0.084 HD
ATOM      9  H   UNL     1      31.160 -22.792 -16.474  0.00  0.00    -0.084 HD
ENDROOT
BRANCH   2  11
ATOM     10  O   UNL     1      34.047 -23.827 -19.399  0.00  0.00    -0.270 OA
ATOM     11  N   UNL     1      33.683 -22.604 -17.463  0.00  0.00    -0.301 N 
ATOM     12  C   UNL     1      33.911 -22.753 -18.818  0.00  0.00    +0.246 C 
ATOM     13  H   UNL     1      33.587 -21.697 -17.093  0.00  0.00    +0.150 HD
BRANCH  12  14
ATOM     14  C   UNL     1      34.015 -21.490 -19.593  0.00  0.00    +0.054 C 
ATOM     15  C   UNL     1      32.861 -20.805 -19.909  0.00  0.00    +0.008 C 
ATOM     16  C   UNL     1      35.265 -21.044 -19.973  0.00  0.00    +0.008 C 
ATOM     17  C   UNL     1      32.959 -19.619 -20.638  0.00  0.00    +0.037 C 
ATOM     18  C   UNL     1      35.363 -19.858 -20.701  0.00  0.00    +0.037 C 
ATOM     19  C   UNL     1      34.210 -19.145 -21.033  0.00  0.00    +0.134 C 
BRANCH  19  20
ATOM     20  O   UNL     1      34.306 -17.990 -21.745  0.00  0.00    -0.506 OA
ATOM     21  H   UNL     1      33.699 -17.815 -22.438  0.00  0.00    +0.292 HD
ENDBRANCH  19  20
ENDBRANCH  12  14
ENDBRANCH   2  11
BRANCH   3  22
ATOM     22  O   UNL     1      33.993 -24.507 -14.311  0.00  0.00    -0.448 OA
BRANCH  22  24
ATOM     23  O   UNL     1      34.612 -23.996 -12.155  0.00  0.00    -0.245 OA
ATOM     24  C   UNL     1      34.852 -24.445 -13.265  0.00  0.00    +0.341 C 
BRANCH  24  25
ATOM     25  C   UNL     1      36.172 -25.008 -13.647  0.00  0.00    +0.076 C 
ATOM     26  C   UNL     1      36.244 -25.866 -14.726  0.00  0.00    +0.010 C 
ATOM     27  C   UNL     1      37.285 -24.657 -12.911  0.00  0.00    +0.010 C 
ATOM     28  C   UNL     1      37.484 -26.394 -15.085  0.00  0.00    +0.037 C 
ATOM     29  C   UNL     1      38.525 -25.186 -13.270  0.00  0.00    +0.037 C 
ATOM     30  C   UNL     1      38.624 -26.055 -14.357  0.00  0.00    +0.134 C 
BRANCH  30  31
ATOM     31  O   UNL     1      39.833 -26.572 -14.707  0.00  0.00    -0.506 OA
ATOM     32  H   UNL     1      39.931 -27.028 -15.520  0.00  0.00    +0.292 HD
ENDBRANCH  30  31
ENDBRANCH  24  25
ENDBRANCH  22  24
ENDBRANCH   3  22
TORSDOF 7
ENDMDL
MODEL 4
REMARK VINA RESULT:      -8.7      2.400      4.216
REMARK  Name = 448326
REMARK  7 active torsions:
REMARK  status: ('A' for Active; 'I' for Inactive)
REMARK    1  A    between atoms: C_2  and  N_11
REMARK    2  A    between atoms: C_3  and  O_22
REMARK    3  A    between atoms: C_12  and  C_14
REMARK    4  A    between atoms: C_19  and  O_20
REMARK    5  A    between atoms: O_22  and  C_24
REMARK    6  A    between atoms: C_24  and  C_25
REMARK    7  A    between atoms: C_30  and  O_31
REMARK                            x       y       z     vdW  Elec       q    Type
REMARK                         _______ _______ _______ _____ _____    ______ ____
ROOT
ATOM      1  N   UNL     1      32.452 -14.437 -20.465  0.00  0.00    +0.385 N 
ATOM      2  C   UNL     1      32.944 -14.347 -22.948  0.00  0.00    +0.091 C 
ATOM      3  C   UNL     1      34.201 -15.233 -22.902  0.00  0.00    +0.185 C 
ATOM      4  C   UNL     1      35.123 -14.976 -21.706  0.00  0.00    +0.043 C 
ATOM      5  C   UNL     1      31.925 -14.562 -21.821  0.00  0.00    -0.058 C 
ATOM      6  C   UNL     1      34.696 -15.555 -20.356  0.00  0.00    -0.020 C 
ATOM      7  C   UNL     1      33.202 -15.616 -20.054  0.00  0.00    -0.082 C 
ATOM      8  H   UNL     1      31.673 -14.302 -19.821  0.00  0.00    -0.084 HD
ATOM      9  H   UNL     1      33.090 -13.640 -20.449  0.00  0.00    -0.084 HD
ENDROOT
BRANCH   2  11
ATOM     10  O   UNL     1      33.405 -12.905 -25.384  0.00  0.00    -0.270 OA
ATOM     11  N   UNL     1      33.295 -12.948 -23.068  0.00  0.00    -0.301 N 
ATOM     12  C   UNL     1      33.497 -12.344 -24.294  0.00  0.00    +0.246 C 
ATOM     13  H   UNL     1      33.393 -12.410 -22.250  0.00  0.00    +0.150 HD
BRANCH  12  14
ATOM     14  C   UNL     1      33.877 -10.909 -24.247  0.00  0.00    +0.054 C 
ATOM     15  C   UNL     1      33.183 -10.064 -23.408  0.00  0.00    +0.008 C 
ATOM     16  C   UNL     1      34.912 -10.467 -25.045  0.00  0.00    +0.008 C 
ATOM     17  C   UNL     1      33.539  -8.715 -23.363  0.00  0.00    +0.037 C 
ATOM     18  C   UNL     1      35.269  -9.120 -25.002  0.00  0.00    +0.037 C 
ATOM     19  C   UNL     1      34.582  -8.243 -24.160  0.00  0.00    +0.134 C 
BRANCH  19  20
ATOM     20  O   UNL     1      34.928  -6.929 -24.118  0.00  0.00    -0.506 OA
ATOM     21  H   UNL     1      34.431  -6.297 -24.600  0.00  0.00    +0.292 HD
ENDBRANCH  19  20
ENDBRANCH  12  14
ENDBRANCH   2  11
BRANCH   3  22
ATOM     22  O   UNL     1      33.823 -16.604 -22.964  0.00  0.00    -0.448 OA
BRANCH  22  24
ATOM     23  O   UNL     1      35.313 -17.484 -24.481  0.00  0.00    -0.245 OA
ATOM     24  C   UNL     1      34.789 -17.461 -23.378  0.00  0.00    +0.341 C 
BRANCH  24  25
ATOM     25  C   UNL     1      35.144 -18.405 -22.288  0.00  0.00    +0.076 C 
ATOM     26  C   UNL     1      36.457 -18.478 -21.871  0.00  0.00    +0.010 C 
ATOM     27  C   UNL     1      34.149 -19.178 -21.727  0.00  0.00    +0.010 C 
ATOM     28  C   UNL     1      36.790 -19.364 -20.846  0.00  0.00    +0.037 C 
ATOM     29  C   UNL     1      34.482 -20.065 -20.702  0.00  0.00    +0.037 C 
ATOM     30  C   UNL     1      35.803 -20.158 -20.262  0.00  0.00    +0.134 C 
BRANCH  30  31
ATOM     31  O   UNL     1      36.128 -21.023 -19.264  0.00  0.00    -0.506 OA
ATOM     32  H   UNL     1      36.653 -20.733 -18.544  0.00  0.00    +0.292 HD
ENDBRANCH  30  31
ENDBRANCH  24  25
ENDBRANCH  22  24
ENDBRANCH   3  22
TORSDOF 7
ENDMDL
MODEL 5
REMARK VINA RESULT:      -8.7      2.404      4.208
REMARK  Name = 448326
REMARK  7 active torsions:
REMARK  status: ('A' for Active; 'I' for Inactive)
REMARK    1  A    between atoms: C_2  and  N_11
REMARK    2  A    between atoms: C_3  and  O_22
REMARK    3  A    between atoms: C_12  and  C_14
REMARK    4  A    between atoms: C_19  and  O_20
REMARK    5  A    between atoms: O_22  and  C_24
REMARK    6  A    between atoms: C_24  and  C_25
REMARK    7  A    between atoms: C_30  and  O_31
REMARK                            x       y       z     vdW  Elec       q    Type
REMARK                         _______ _______ _______ _____ _____    ______ ____
ROOT
ATOM      1  N   UNL     1      32.464 -14.443 -20.450  0.00  0.00    +0.385 N 
ATOM      2  C   UNL     1      32.937 -14.353 -22.937  0.00  0.00    +0.091 C 
ATOM      3  C   UNL     1      34.196 -15.238 -22.899  0.00  0.00    +0.185 C 
ATOM      4  C   UNL     1      35.126 -14.979 -21.710  0.00  0.00    +0.043 C 
ATOM      5  C   UNL     1      31.927 -14.569 -21.802  0.00  0.00    -0.058 C 
ATOM      6  C   UNL     1      34.710 -15.558 -20.356  0.00  0.00    -0.020 C 
ATOM      7  C   UNL     1      33.218 -15.620 -20.043  0.00  0.00    -0.082 C 
ATOM      8  H   UNL     1      31.689 -14.308 -19.800  0.00  0.00    -0.084 HD
ATOM      9  H   UNL     1      33.100 -13.645 -20.439  0.00  0.00    -0.084 HD
ENDROOT
BRANCH   2  11
ATOM     10  O   UNL     1      33.399 -12.918 -25.376  0.00  0.00    -0.270 OA
ATOM     11  N   UNL     1      33.285 -12.954 -23.060  0.00  0.00    -0.301 N 
ATOM     12  C   UNL     1      33.488 -12.353 -24.288  0.00  0.00    +0.246 C 
ATOM     13  H   UNL     1      33.381 -12.413 -22.243  0.00  0.00    +0.150 HD
BRANCH  12  14
ATOM     14  C   UNL     1      33.865 -10.917 -24.244  0.00  0.00    +0.054 C 
ATOM     15  C   UNL     1      34.907 -10.478 -25.033  0.00  0.00    +0.008 C 
ATOM     16  C   UNL     1      33.161 -10.069 -23.414  0.00  0.00    +0.008 C 
ATOM     17  C   UNL     1      35.262  -9.129 -24.992  0.00  0.00    +0.037 C 
ATOM     18  C   UNL     1      33.515  -8.721 -23.372  0.00  0.00    +0.037 C 
ATOM     19  C   UNL     1      34.565  -8.250 -24.161  0.00  0.00    +0.134 C 
BRANCH  19  20
ATOM     20  O   UNL     1      34.913  -6.936 -24.119  0.00  0.00    -0.506 OA
ATOM     21  H   UNL     1      34.750  -6.433 -23.346  0.00  0.00    +0.292 HD
ENDBRANCH  19  20
ENDBRANCH  12  14
ENDBRANCH   2  11
BRANCH   3  22
ATOM     22  O   UNL     1      33.819 -16.609 -22.957  0.00  0.00    -0.448 OA
BRANCH  22  24
ATOM     23  O   UNL     1      35.308 -17.491 -24.474  0.00  0.00    -0.245 OA
ATOM     24  C   UNL     1      34.786 -17.466 -23.371  0.00  0.00    +0.341 C 
BRANCH  24  25
ATOM     25  C   UNL     1      35.143 -18.407 -22.279  0.00  0.00    +0.076 C 
ATOM     26  C   UNL     1      34.149 -19.178 -21.712  0.00  0.00    +0.010 C 
ATOM     27  C   UNL     1      36.457 -18.481 -21.866  0.00  0.00    +0.010 C 
ATOM     28  C   UNL     1      34.485 -20.063 -20.686  0.00  0.00    +0.037 C 
ATOM     29  C   UNL     1      36.793 -19.365 -20.841  0.00  0.00    +0.037 C 
ATOM     30  C   UNL     1      35.806 -20.156 -20.251  0.00  0.00    +0.134 C 
BRANCH  30  31
ATOM     31  O   UNL     1      36.133 -21.017 -19.250  0.00  0.00    -0.506 OA
ATOM     32  H   UNL     1      36.873 -20.840 -18.702  0.00  0.00    +0.292 HD
ENDBRANCH  30  31
ENDBRANCH  24  25
ENDBRANCH  22  24
ENDBRANCH   3  22
TORSDOF 7
ENDMDL
MODEL 6
REMARK VINA RESULT:      -8.6      9.332     13.555
REMARK  Name = 448326
REMARK  7 active torsions:
REMARK  status: ('A' for Active; 'I' for Inactive)
REMARK    1  A    between atoms: C_2  and  N_11
REMARK    2  A    between atoms: C_3  and  O_22
REMARK    3  A    between atoms: C_12  and  C_14
REMARK    4  A    between atoms: C_19  and  O_20
REMARK    5  A    between atoms: O_22  and  C_24
REMARK    6  A    between atoms: C_24  and  C_25
REMARK    7  A    between atoms: C_30  and  O_31
REMARK                            x       y       z     vdW  Elec       q    Type
REMARK                         _______ _______ _______ _____ _____    ______ ____
ROOT
ATOM      1  N   UNL     1      31.068 -23.055 -15.968  0.00  0.00    +0.385 N 
ATOM      2  C   UNL     1      33.173 -23.642 -17.251  0.00  0.00    +0.091 C 
ATOM      3  C   UNL     1      34.121 -23.611 -16.039  0.00  0.00    +0.185 C 
ATOM      4  C   UNL     1      33.857 -22.474 -15.048  0.00  0.00    +0.043 C 
ATOM      5  C   UNL     1      31.698 -23.939 -16.946  0.00  0.00    -0.058 C 
ATOM      6  C   UNL     1      32.678 -22.641 -14.088  0.00  0.00    -0.020 C 
ATOM      7  C   UNL     1      31.449 -23.385 -14.601  0.00  0.00    -0.082 C 
ATOM      8  H   UNL     1      30.056 -23.137 -16.056  0.00  0.00    -0.084 HD
ATOM      9  H   UNL     1      31.382 -22.103 -16.159  0.00  0.00    -0.084 HD
ENDROOT
BRANCH   2  11
ATOM     10  O   UNL     1      34.587 -23.388 -19.732  0.00  0.00    -0.270 OA
ATOM     11  N   UNL     1      33.305 -22.442 -18.048  0.00  0.00    -0.301 N 
ATOM     12  C   UNL     1      34.011 -22.423 -19.236  0.00  0.00    +0.246 C 
ATOM     13  H   UNL     1      32.877 -21.613 -17.735  0.00  0.00    +0.150 HD
BRANCH  12  14
ATOM     14  C   UNL     1      34.076 -21.107 -19.922  0.00  0.00    +0.054 C 
ATOM     15  C   UNL     1      32.901 -20.433 -20.179  0.00  0.00    +0.008 C 
ATOM     16  C   UNL     1      35.309 -20.604 -20.283  0.00  0.00    +0.008 C 
ATOM     17  C   UNL     1      32.960 -19.197 -20.824  0.00  0.00    +0.037 C 
ATOM     18  C   UNL     1      35.369 -19.369 -20.928  0.00  0.00    +0.037 C 
ATOM     19  C   UNL     1      34.195 -18.665 -21.199  0.00  0.00    +0.134 C 
BRANCH  19  20
ATOM     20  O   UNL     1      34.253 -17.461 -21.830  0.00  0.00    -0.506 OA
ATOM     21  H   UNL     1      33.564 -17.202 -22.410  0.00  0.00    +0.292 HD
ENDBRANCH  19  20
ENDBRANCH  12  14
ENDBRANCH   2  11
BRANCH   3  22
ATOM     22  O   UNL     1      34.096 -24.873 -15.380  0.00  0.00    -0.448 OA
BRANCH  22  24
ATOM     23  O   UNL     1      35.919 -26.263 -15.587  0.00  0.00    -0.245 OA
ATOM     24  C   UNL     1      35.306 -25.371 -15.022  0.00  0.00    +0.341 C 
BRANCH  24  25
ATOM     25  C   UNL     1      35.812 -24.675 -13.812  0.00  0.00    +0.076 C 
ATOM     26  C   UNL     1      35.104 -24.787 -12.633  0.00  0.00    +0.010 C 
ATOM     27  C   UNL     1      36.976 -23.939 -13.903  0.00  0.00    +0.010 C 
ATOM     28  C   UNL     1      35.580 -24.134 -11.496  0.00  0.00    +0.037 C 
ATOM     29  C   UNL     1      37.452 -23.286 -12.766  0.00  0.00    +0.037 C 
ATOM     30  C   UNL     1      36.753 -23.384 -11.562  0.00  0.00    +0.134 C 
BRANCH  30  31
ATOM     31  O   UNL     1      37.217 -22.746 -10.453  0.00  0.00    -0.506 OA
ATOM     32  H   UNL     1      38.097 -22.424 -10.431  0.00  0.00    +0.292 HD
ENDBRANCH  30  31
ENDBRANCH  24  25
ENDBRANCH  22  24
ENDBRANCH   3  22
TORSDOF 7
ENDMDL
MODEL 7
REMARK VINA RESULT:      -8.3      4.459      7.000
REMARK  Name = 448326
REMARK  7 active torsions:
REMARK  status: ('A' for Active; 'I' for Inactive)
REMARK    1  A    between atoms: C_2  and  N_11
REMARK    2  A    between atoms: C_3  and  O_22
REMARK    3  A    between atoms: C_12  and  C_14
REMARK    4  A    between atoms: C_19  and  O_20
REMARK    5  A    between atoms: O_22  and  C_24
REMARK    6  A    between atoms: C_24  and  C_25
REMARK    7  A    between atoms: C_30  and  O_31
REMARK                            x       y       z     vdW  Elec       q    Type
REMARK                         _______ _______ _______ _____ _____    ______ ____
ROOT
ATOM      1  N   UNL     1      36.345 -17.877 -22.874  0.00  0.00    +0.385 N 
ATOM      2  C   UNL     1      34.580 -17.984 -21.060  0.00  0.00    +0.091 C 
ATOM      3  C   UNL     1      33.856 -19.229 -21.604  0.00  0.00    +0.185 C 
ATOM      4  C   UNL     1      33.705 -19.267 -23.127  0.00  0.00    +0.043 C 
ATOM      5  C   UNL     1      36.059 -17.844 -21.442  0.00  0.00    -0.058 C 
ATOM      6  C   UNL     1      34.938 -19.659 -23.944  0.00  0.00    -0.020 C 
ATOM      7  C   UNL     1      36.302 -19.229 -23.413  0.00  0.00    -0.082 C 
ATOM      8  H   UNL     1      37.274 -17.489 -23.033  0.00  0.00    -0.084 HD
ATOM      9  H   UNL     1      35.626 -17.329 -23.349  0.00  0.00    -0.084 HD
ENDROOT
BRANCH   2  11
ATOM     10  O   UNL     1      34.964 -15.402 -19.875  0.00  0.00    -0.270 OA
ATOM     11  N   UNL     1      33.848 -16.776 -21.371  0.00  0.00    -0.301 N 
ATOM     12  C   UNL     1      34.110 -15.575 -20.741  0.00  0.00    +0.246 C 
ATOM     13  H   UNL     1      33.140 -16.811 -22.055  0.00  0.00    +0.150 HD
BRANCH  12  14
ATOM     14  C   UNL     1      33.253 -14.434 -21.154  0.00  0.00    +0.054 C 
ATOM     15  C   UNL     1      33.086 -14.180 -22.499  0.00  0.00    +0.008 C 
ATOM     16  C   UNL     1      32.654 -13.663 -20.179  0.00  0.00    +0.008 C 
ATOM     17  C   UNL     1      32.283 -13.108 -22.888  0.00  0.00    +0.037 C 
ATOM     18  C   UNL     1      31.851 -12.591 -20.567  0.00  0.00    +0.037 C 
ATOM     19  C   UNL     1      31.664 -12.314 -21.922  0.00  0.00    +0.134 C 
BRANCH  19  20
ATOM     20  O   UNL     1      30.882 -11.267 -22.301  0.00  0.00    -0.506 OA
ATOM     21  H   UNL     1      29.988 -11.225 -22.023  0.00  0.00    +0.292 HD
ENDBRANCH  19  20
ENDBRANCH  12  14
ENDBRANCH   2  11
BRANCH   3  22
ATOM     22  O   UNL     1      34.504 -20.405 -21.130  0.00  0.00    -0.448 OA
BRANCH  22  24
ATOM     23  O   UNL     1      32.604 -21.448 -20.354  0.00  0.00    -0.245 OA
ATOM     24  C   UNL     1      33.787 -21.158 -20.259  0.00  0.00    +0.341 C 
BRANCH  24  25
ATOM     25  C   UNL     1      34.646 -21.603 -19.133  0.00  0.00    +0.076 C 
ATOM     26  C   UNL     1      35.964 -21.195 -19.098  0.00  0.00    +0.010 C 
ATOM     27  C   UNL     1      34.100 -22.409 -18.156  0.00  0.00    +0.010 C 
ATOM     28  C   UNL     1      36.771 -21.613 -18.039  0.00  0.00    +0.037 C 
ATOM     29  C   UNL     1      34.907 -22.827 -17.097  0.00  0.00    +0.037 C 
ATOM     30  C   UNL     1      36.242 -22.429 -17.039  0.00  0.00    +0.134 C 
BRANCH  30  31
ATOM     31  O   UNL     1      37.030 -22.837 -16.008  0.00  0.00    -0.506 OA
ATOM     32  H   UNL     1      37.924 -23.071 -16.165  0.00  0.00    +0.292 HD
ENDBRANCH  30  31
ENDBRANCH  24  25
ENDBRANCH  22  24
ENDBRANCH   3  22
TORSDOF 7
ENDMDL
MODEL 8
REMARK VINA RESULT:      -8.0      4.728     10.627
REMARK  Name = 448326
REMARK  7 active torsions:
REMARK  status: ('A' for Active; 'I' for Inactive)
REMARK    1  A    between atoms: C_2  and  N_11
REMARK    2  A    between atoms: C_3  and  O_22
REMARK    3  A    between atoms: C_12  and  C_14
REMARK    4  A    between atoms: C_19  and  O_20
REMARK    5  A    between atoms: O_22  and  C_24
REMARK    6  A    between atoms: C_24  and  C_25
REMARK    7  A    between atoms: C_30  and  O_31
REMARK                            x       y       z     vdW  Elec       q    Type
REMARK                         _______ _______ _______ _____ _____    ______ ____
ROOT
ATOM      1  N   UNL     1      35.028 -19.481 -23.252  0.00  0.00    +0.385 N 
ATOM      2  C   UNL     1      33.620 -18.947 -21.215  0.00  0.00    +0.091 C 
ATOM      3  C   UNL     1      34.046 -17.473 -21.099  0.00  0.00    +0.185 C 
ATOM      4  C   UNL     1      35.532 -17.213 -21.364  0.00  0.00    +0.043 C 
ATOM      5  C   UNL     1      33.717 -19.569 -22.615  0.00  0.00    -0.058 C 
ATOM      6  C   UNL     1      35.993 -17.204 -22.823  0.00  0.00    -0.020 C 
ATOM      7  C   UNL     1      35.292 -18.154 -23.790  0.00  0.00    -0.082 C 
ATOM      8  H   UNL     1      35.069 -20.159 -24.013  0.00  0.00    -0.084 HD
ATOM      9  H   UNL     1      35.735 -19.677 -22.542  0.00  0.00    -0.084 HD
ENDROOT
BRANCH   2  11
ATOM     10  O   UNL     1      32.722 -21.463 -20.174  0.00  0.00    -0.270 OA
ATOM     11  N   UNL     1      34.301 -19.766 -20.237  0.00  0.00    -0.301 N 
ATOM     12  C   UNL     1      33.782 -20.969 -19.797  0.00  0.00    +0.246 C 
ATOM     13  H   UNL     1      35.161 -19.457 -19.872  0.00  0.00    +0.150 HD
BRANCH  12  14
ATOM     14  C   UNL     1      34.589 -21.678 -18.771  0.00  0.00    +0.054 C 
ATOM     15  C   UNL     1      33.957 -22.558 -17.918  0.00  0.00    +0.008 C 
ATOM     16  C   UNL     1      35.945 -21.432 -18.703  0.00  0.00    +0.008 C 
ATOM     17  C   UNL     1      34.714 -23.224 -16.954  0.00  0.00    +0.037 C 
ATOM     18  C   UNL     1      36.702 -22.097 -17.739  0.00  0.00    +0.037 C 
ATOM     19  C   UNL     1      36.087 -22.994 -16.864  0.00  0.00    +0.134 C 
BRANCH  19  20
ATOM     20  O   UNL     1      36.825 -23.641 -15.923  0.00  0.00    -0.506 OA
ATOM     21  H   UNL     1      37.477 -24.262 -16.183  0.00  0.00    +0.292 HD
ENDBRANCH  19  20
ENDBRANCH  12  14
ENDBRANCH   2  11
BRANCH   3  22
ATOM     22  O   UNL     1      33.233 -16.671 -21.949  0.00  0.00    -0.448 OA
BRANCH  22  24
ATOM     23  O   UNL     1      31.978 -15.650 -20.312  0.00  0.00    -0.245 OA
ATOM     24  C   UNL     1      32.618 -15.620 -21.352  0.00  0.00    +0.341 C 
BRANCH  24  25
ATOM     25  C   UNL     1      32.824 -14.383 -22.146  0.00  0.00    +0.076 C 
ATOM     26  C   UNL     1      33.659 -14.425 -23.243  0.00  0.00    +0.010 C 
ATOM     27  C   UNL     1      32.172 -13.228 -21.762  0.00  0.00    +0.010 C 
ATOM     28  C   UNL     1      33.852 -13.262 -23.990  0.00  0.00    +0.037 C 
ATOM     29  C   UNL     1      32.365 -12.066 -22.508  0.00  0.00    +0.037 C 
ATOM     30  C   UNL     1      33.205 -12.083 -23.622  0.00  0.00    +0.134 C 
BRANCH  30  31
ATOM     31  O   UNL     1      33.394 -10.948 -24.349  0.00  0.00    -0.506 OA
ATOM     32  H   UNL     1      32.655 -10.464 -24.663  0.00  0.00    +0.292 HD
ENDBRANCH  30  31
ENDBRANCH  24  25
ENDBRANCH  22  24
ENDBRANCH   3  22
TORSDOF 7
ENDMDL
MODEL 9
REMARK VINA RESULT:      -7.9      1.721      2.268
REMARK  Name = 448326
REMARK  7 active torsions:
REMARK  status: ('A' for Active; 'I' for Inactive)
REMARK    1  A    between atoms: C_2  and  N_11
REMARK    2  A    between atoms: C_3  and  O_22
REMARK    3  A    between atoms: C_12  and  C_14
REMARK    4  A    between atoms: C_19  and  O_20
REMARK    5  A    between atoms: O_22  and  C_24
REMARK    6  A    between atoms: C_24  and  C_25
REMARK    7  A    between atoms: C_30  and  O_31
REMARK                            x       y       z     vdW  Elec       q    Type
REMARK                         _______ _______ _______ _____ _____    ______ ____
ROOT
ATOM      1  N   UNL     1      35.282 -10.422 -26.331  0.00  0.00    +0.385 N 
ATOM      2  C   UNL     1      34.348 -10.226 -23.984  0.00  0.00    +0.091 C 
ATOM      3  C   UNL     1      33.460 -11.481 -24.052  0.00  0.00    +0.185 C 
ATOM      4  C   UNL     1      32.735 -11.681 -25.386  0.00  0.00    +0.043 C 
ATOM      5  C   UNL     1      35.569 -10.212 -24.914  0.00  0.00    -0.058 C 
ATOM      6  C   UNL     1      33.556 -12.231 -26.554  0.00  0.00    -0.020 C 
ATOM      7  C   UNL     1      35.023 -11.822 -26.640  0.00  0.00    -0.082 C 
ATOM      8  H   UNL     1      36.082 -10.106 -26.878  0.00  0.00    -0.084 HD
ATOM      9  H   UNL     1      34.441  -9.891 -26.562  0.00  0.00    -0.084 HD
ENDROOT
BRANCH   2  11
ATOM     10  O   UNL     1      34.986  -7.626 -22.958  0.00  0.00    -0.270 OA
ATOM     11  N   UNL     1      33.563  -9.021 -24.142  0.00  0.00    -0.301 N 
ATOM     12  C   UNL     1      33.959  -7.811 -23.606  0.00  0.00    +0.246 C 
ATOM     13  H   UNL     1      32.720  -9.065 -24.648  0.00  0.00    +0.150 HD
BRANCH  12  14
ATOM     14  C   UNL     1      33.030  -6.674 -23.835  0.00  0.00    +0.054 C 
ATOM     15  C   UNL     1      32.105  -6.365 -22.861  0.00  0.00    +0.008 C 
ATOM     16  C   UNL     1      33.123  -5.966 -25.016  0.00  0.00    +0.008 C 
ATOM     17  C   UNL     1      31.232  -5.297 -23.075  0.00  0.00    +0.037 C 
ATOM     18  C   UNL     1      32.250  -4.899 -25.230  0.00  0.00    +0.037 C 
ATOM     19  C   UNL     1      31.305  -4.564 -24.260  0.00  0.00    +0.134 C 
BRANCH  19  20
ATOM     20  O   UNL     1      30.452  -3.525 -24.470  0.00  0.00    -0.506 OA
ATOM     21  H   UNL     1      30.549  -2.733 -23.979  0.00  0.00    +0.292 HD
ENDBRANCH  19  20
ENDBRANCH  12  14
ENDBRANCH   2  11
BRANCH   3  22
ATOM     22  O   UNL     1      34.230 -12.631 -23.717  0.00  0.00    -0.448 OA
BRANCH  22  24
ATOM     23  O   UNL     1      32.801 -13.295 -22.039  0.00  0.00    -0.245 OA
ATOM     24  C   UNL     1      33.612 -13.537 -22.919  0.00  0.00    +0.341 C 
BRANCH  24  25
ATOM     25  C   UNL     1      34.062 -14.912 -23.256  0.00  0.00    +0.076 C 
ATOM     26  C   UNL     1      33.896 -15.371 -24.546  0.00  0.00    +0.010 C 
ATOM     27  C   UNL     1      34.633 -15.687 -22.267  0.00  0.00    +0.010 C 
ATOM     28  C   UNL     1      34.320 -16.662 -24.862  0.00  0.00    +0.037 C 
ATOM     29  C   UNL     1      35.056 -16.978 -22.583  0.00  0.00    +0.037 C 
ATOM     30  C   UNL     1      34.899 -17.465 -23.881  0.00  0.00    +0.134 C 
BRANCH  30  31
ATOM     31  O   UNL     1      35.311 -18.725 -24.189  0.00  0.00    -0.506 OA
ATOM     32  H   UNL     1      35.230 -19.413 -23.557  0.00  0.00    +0.292 HD
ENDBRANCH  30  31
ENDBRANCH  24  25
ENDBRANCH  22  24
ENDBRANCH   3  22
TORSDOF 7
ENDMDL
