MODEL 1
REMARK VINA RESULT:      -9.2      0.000      0.000
REMARK  Name = 4932
REMARK  12 active torsions:
REMARK  status: ('A' for Active; 'I' for Inactive)
REMARK    1  A    between atoms: C_1  and  C_8
REMARK    2  A    between atoms: C_2  and  O_17
REMARK    3  A    between atoms: C_8  and  C_9
REMARK    4  A    between atoms: C_9  and  C_10
REMARK    5  A    between atoms: C_10  and  C_11
REMARK    6  A    between atoms: O_17  and  C_18
REMARK    7  A    between atoms: C_18  and  C_19
REMARK    8  A    between atoms: C_19  and  O_20
REMARK    9  A    between atoms: C_19  and  C_22
REMARK   10  A    between atoms: C_22  and  N_23
REMARK   11  A    between atoms: N_23  and  C_26
REMARK   12  A    between atoms: C_26  and  C_27
REMARK                            x       y       z     vdW  Elec       q    Type
REMARK                         _______ _______ _______ _____ _____    ______ ____
ROOT
ATOM      1  C   UNL     1      33.296 -23.241 -17.119  0.00  0.00    +0.069 C 
ATOM      2  C   UNL     1      34.072 -23.580 -16.011  0.00  0.00    +0.141 C 
ATOM      3  C   UNL     1      31.941 -22.945 -16.958  0.00  0.00    +0.006 C 
ATOM      4  C   UNL     1      33.495 -23.623 -14.742  0.00  0.00    +0.037 C 
ATOM      5  C   UNL     1      31.365 -22.989 -15.689  0.00  0.00    +0.000 C 
ATOM      6  C   UNL     1      32.141 -23.329 -14.581  0.00  0.00    +0.003 C 
ENDROOT
BRANCH   1   8
ATOM      7  O   UNL     1      33.809 -24.173 -19.215  0.00  0.00    -0.291 OA
ATOM      8  C   UNL     1      33.878 -23.190 -18.453  0.00  0.00    +0.176 C 
BRANCH   8   9
ATOM      9  C   UNL     1      34.587 -21.911 -18.932  0.00  0.00    +0.074 C 
BRANCH   9  10
ATOM     10  C   UNL     1      33.714 -21.032 -19.830  0.00  0.00    +0.034 C 
BRANCH  10  11
ATOM     11  C   UNL     1      34.542 -20.090 -20.665  0.00  0.00    -0.022 C 
ATOM     12  C   UNL     1      35.907 -19.954 -20.414  0.00  0.00    -0.004 C 
ATOM     13  C   UNL     1      33.945 -19.355 -21.688  0.00  0.00    -0.004 C 
ATOM     14  C   UNL     1      36.675 -19.082 -21.187  0.00  0.00    -0.000 C 
ATOM     15  C   UNL     1      34.712 -18.484 -22.462  0.00  0.00    -0.000 C 
ATOM     16  C   UNL     1      36.077 -18.348 -22.211  0.00  0.00    -0.000 C 
ENDBRANCH  10  11
ENDBRANCH   9  10
ENDBRANCH   8   9
ENDBRANCH   1   8
BRANCH   2  17
ATOM     17  O   UNL     1      35.402 -23.874 -16.150  0.00  0.00    -0.473 OA
BRANCH  17  18
ATOM     18  C   UNL     1      36.322 -23.002 -15.498  0.00  0.00    +0.232 C 
BRANCH  18  19
ATOM     19  C   UNL     1      37.502 -23.825 -14.985  0.00  0.00    +0.133 C 
BRANCH  19  20
ATOM     20  O   UNL     1      38.630 -23.577 -15.828  0.00  0.00    -0.383 OA
ATOM     21  H   UNL     1      38.897 -24.404 -16.261  0.00  0.00    +0.210 HD
ENDBRANCH  19  20
BRANCH  19  22
ATOM     22  C   UNL     1      37.231 -25.332 -14.976  0.00  0.00    -0.048 C 
BRANCH  22  23
ATOM     23  N   UNL     1      36.267 -25.710 -13.952  0.00  0.00    +0.385 N 
ATOM     24  H   UNL     1      35.990 -26.682 -14.098  0.00  0.00    -0.084 HD
ATOM     25  H   UNL     1      35.458 -25.094 -14.025  0.00  0.00    -0.084 HD
BRANCH  23  26
ATOM     26  C   UNL     1      36.840 -25.572 -12.621  0.00  0.00    -0.082 C 
BRANCH  26  27
ATOM     27  C   UNL     1      35.967 -24.662 -11.760  0.00  0.00    -0.023 C 
ATOM     28  C   UNL     1      36.697 -23.379 -11.394  0.00  0.00    -0.002 C 
ENDBRANCH  26  27
ENDBRANCH  23  26
ENDBRANCH  22  23
ENDBRANCH  19  22
ENDBRANCH  18  19
ENDBRANCH  17  18
ENDBRANCH   2  17
TORSDOF 12
ENDMDL
MODEL 2
REMARK VINA RESULT:      -8.9      6.754     11.798
REMARK  Name = 4932
REMARK  12 active torsions:
REMARK  status: ('A' for Active; 'I' for Inactive)
REMARK    1  A    between atoms: C_1  and  C_8
REMARK    2  A    between atoms: C_2  and  O_17
REMARK    3  A    between atoms: C_8  and  C_9
REMARK    4  A    between atoms: C_9  and  C_10
REMARK    5  A    between atoms: C_10  and  C_11
REMARK    6  A    between atoms: O_17  and  C_18
REMARK    7  A    between atoms: C_18  and  C_19
REMARK    8  A    between atoms: C_19  and  O_20
REMARK    9  A    between atoms: C_19  and  C_22
REMARK   10  A    between atoms: C_22  and  N_23
REMARK   11  A    between atoms: N_23  and  C_26
REMARK   12  A    between atoms: C_26  and  C_27
REMARK                            x       y       z     vdW  Elec       q    Type
REMARK                         _______ _______ _______ _____ _____    ______ ____
ROOT
ATOM      1  C   UNL     1      33.967 -15.563 -22.276  0.00  0.00    +0.069 C 
ATOM      2  C   UNL     1      33.427 -14.434 -22.892  0.00  0.00    +0.141 C 
ATOM      3  C   UNL     1      33.701 -15.818 -20.930  0.00  0.00    +0.006 C 
ATOM      4  C   UNL     1      32.621 -13.560 -22.162  0.00  0.00    +0.037 C 
ATOM      5  C   UNL     1      32.895 -14.943 -20.201  0.00  0.00    +0.000 C 
ATOM      6  C   UNL     1      32.355 -13.814 -20.817  0.00  0.00    +0.003 C 
ENDROOT
BRANCH   1   8
ATOM      7  O   UNL     1      35.708 -16.065 -23.774  0.00  0.00    -0.291 OA
ATOM      8  C   UNL     1      34.812 -16.488 -23.018  0.00  0.00    +0.176 C 
BRANCH   8   9
ATOM      9  C   UNL     1      34.601 -18.005 -22.871  0.00  0.00    +0.074 C 
BRANCH   9  10
ATOM     10  C   UNL     1      35.616 -18.672 -21.941  0.00  0.00    +0.034 C 
BRANCH  10  11
ATOM     11  C   UNL     1      34.962 -19.679 -21.031  0.00  0.00    -0.022 C 
ATOM     12  C   UNL     1      35.745 -20.606 -20.342  0.00  0.00    -0.004 C 
ATOM     13  C   UNL     1      33.577 -19.685 -20.876  0.00  0.00    -0.004 C 
ATOM     14  C   UNL     1      35.140 -21.539 -19.498  0.00  0.00    -0.000 C 
ATOM     15  C   UNL     1      32.972 -20.616 -20.032  0.00  0.00    -0.000 C 
ATOM     16  C   UNL     1      33.754 -21.543 -19.343  0.00  0.00    -0.000 C 
ENDBRANCH  10  11
ENDBRANCH   9  10
ENDBRANCH   8   9
ENDBRANCH   1   8
BRANCH   2  17
ATOM     17  O   UNL     1      33.678 -14.166 -24.211  0.00  0.00    -0.473 OA
BRANCH  17  18
ATOM     18  C   UNL     1      32.550 -14.121 -25.081  0.00  0.00    +0.232 C 
BRANCH  18  19
ATOM     19  C   UNL     1      33.005 -14.470 -26.496  0.00  0.00    +0.133 C 
BRANCH  19  20
ATOM     20  O   UNL     1      33.989 -15.505 -26.415  0.00  0.00    -0.383 OA
ATOM     21  H   UNL     1      34.772 -15.169 -25.949  0.00  0.00    +0.210 HD
ENDBRANCH  19  20
BRANCH  19  22
ATOM     22  C   UNL     1      33.617 -13.284 -27.246  0.00  0.00    -0.048 C 
BRANCH  22  23
ATOM     23  N   UNL     1      33.648 -12.077 -26.431  0.00  0.00    +0.385 N 
ATOM     24  H   UNL     1      33.501 -12.332 -25.454  0.00  0.00    -0.084 HD
ATOM     25  H   UNL     1      32.910 -11.450 -26.751  0.00  0.00    -0.084 HD
BRANCH  23  26
ATOM     26  C   UNL     1      34.927 -11.395 -26.560  0.00  0.00    -0.082 C 
BRANCH  26  27
ATOM     27  C   UNL     1      35.129 -10.424 -25.399  0.00  0.00    -0.023 C 
ATOM     28  C   UNL     1      34.096 -10.646 -24.305  0.00  0.00    -0.002 C 
ENDBRANCH  26  27
ENDBRANCH  23  26
ENDBRANCH  22  23
ENDBRANCH  19  22
ENDBRANCH  18  19
ENDBRANCH  17  18
ENDBRANCH   2  17
TORSDOF 12
ENDMDL
MODEL 3
REMARK VINA RESULT:      -8.9      8.438     12.809
REMARK  Name = 4932
REMARK  12 active torsions:
REMARK  status: ('A' for Active; 'I' for Inactive)
REMARK    1  A    between atoms: C_1  and  C_8
REMARK    2  A    between atoms: C_2  and  O_17
REMARK    3  A    between atoms: C_8  and  C_9
REMARK    4  A    between atoms: C_9  and  C_10
REMARK    5  A    between atoms: C_10  and  C_11
REMARK    6  A    between atoms: O_17  and  C_18
REMARK    7  A    between atoms: C_18  and  C_19
REMARK    8  A    between atoms: C_19  and  O_20
REMARK    9  A    between atoms: C_19  and  C_22
REMARK   10  A    between atoms: C_22  and  N_23
REMARK   11  A    between atoms: N_23  and  C_26
REMARK   12  A    between atoms: C_26  and  C_27
REMARK                            x       y       z     vdW  Elec       q    Type
REMARK                         _______ _______ _______ _____ _____    ______ ____
ROOT
ATOM      1  C   UNL     1      33.312 -13.680 -24.275  0.00  0.00    +0.069 C 
ATOM      2  C   UNL     1      33.650 -12.378 -24.639  0.00  0.00    +0.141 C 
ATOM      3  C   UNL     1      33.061 -14.638 -25.259  0.00  0.00    +0.006 C 
ATOM      4  C   UNL     1      33.737 -12.031 -25.988  0.00  0.00    +0.037 C 
ATOM      5  C   UNL     1      33.149 -14.291 -26.607  0.00  0.00    +0.000 C 
ATOM      6  C   UNL     1      33.486 -12.988 -26.972  0.00  0.00    +0.003 C 
ENDROOT
BRANCH   1   8
ATOM      7  O   UNL     1      32.108 -14.102 -22.300  0.00  0.00    -0.291 OA
ATOM      8  C   UNL     1      33.214 -14.063 -22.873  0.00  0.00    +0.176 C 
BRANCH   8   9
ATOM      9  C   UNL     1      34.486 -14.426 -22.086  0.00  0.00    +0.074 C 
BRANCH   9  10
ATOM     10  C   UNL     1      34.303 -15.626 -21.155  0.00  0.00    +0.034 C 
BRANCH  10  11
ATOM     11  C   UNL     1      34.521 -16.931 -21.877  0.00  0.00    -0.022 C 
ATOM     12  C   UNL     1      34.160 -18.132 -21.267  0.00  0.00    -0.004 C 
ATOM     13  C   UNL     1      35.082 -16.937 -23.153  0.00  0.00    -0.004 C 
ATOM     14  C   UNL     1      34.361 -19.341 -21.935  0.00  0.00    -0.000 C 
ATOM     15  C   UNL     1      35.282 -18.146 -23.821  0.00  0.00    -0.000 C 
ATOM     16  C   UNL     1      34.922 -19.347 -23.212  0.00  0.00    -0.000 C 
ENDBRANCH  10  11
ENDBRANCH   9  10
ENDBRANCH   8   9
ENDBRANCH   1   8
BRANCH   2  17
ATOM     17  O   UNL     1      33.898 -11.424 -23.688  0.00  0.00    -0.473 OA
BRANCH  17  18
ATOM     18  C   UNL     1      33.858 -10.066 -24.118  0.00  0.00    +0.232 C 
BRANCH  18  19
ATOM     19  C   UNL     1      32.553  -9.435 -23.637  0.00  0.00    +0.133 C 
BRANCH  19  20
ATOM     20  O   UNL     1      32.715  -8.014 -23.617  0.00  0.00    -0.383 OA
ATOM     21  H   UNL     1      32.146  -7.615 -24.295  0.00  0.00    +0.210 HD
ENDBRANCH  19  20
BRANCH  19  22
ATOM     22  C   UNL     1      32.141  -9.890 -22.235  0.00  0.00    -0.048 C 
BRANCH  22  23
ATOM     23  N   UNL     1      31.263 -11.052 -22.271  0.00  0.00    +0.385 N 
ATOM     24  H   UNL     1      31.818 -11.882 -22.485  0.00  0.00    -0.084 HD
ATOM     25  H   UNL     1      30.555 -10.902 -22.989  0.00  0.00    -0.084 HD
BRANCH  23  26
ATOM     26  C   UNL     1      30.596 -11.241 -20.991  0.00  0.00    -0.082 C 
BRANCH  26  27
ATOM     27  C   UNL     1      31.614 -11.590 -19.909  0.00  0.00    -0.023 C 
ATOM     28  C   UNL     1      31.463 -10.687 -18.694  0.00  0.00    -0.002 C 
ENDBRANCH  26  27
ENDBRANCH  23  26
ENDBRANCH  22  23
ENDBRANCH  19  22
ENDBRANCH  18  19
ENDBRANCH  17  18
ENDBRANCH   2  17
TORSDOF 12
ENDMDL
MODEL 4
REMARK VINA RESULT:      -8.7      1.462      2.573
REMARK  Name = 4932
REMARK  12 active torsions:
REMARK  status: ('A' for Active; 'I' for Inactive)
REMARK    1  A    between atoms: C_1  and  C_8
REMARK    2  A    between atoms: C_2  and  O_17
REMARK    3  A    between atoms: C_8  and  C_9
REMARK    4  A    between atoms: C_9  and  C_10
REMARK    5  A    between atoms: C_10  and  C_11
REMARK    6  A    between atoms: O_17  and  C_18
REMARK    7  A    between atoms: C_18  and  C_19
REMARK    8  A    between atoms: C_19  and  O_20
REMARK    9  A    between atoms: C_19  and  C_22
REMARK   10  A    between atoms: C_22  and  N_23
REMARK   11  A    between atoms: N_23  and  C_26
REMARK   12  A    between atoms: C_26  and  C_27
REMARK                            x       y       z     vdW  Elec       q    Type
REMARK                         _______ _______ _______ _____ _____    ______ ____
ROOT
ATOM      1  C   UNL     1      32.765 -23.353 -15.894  0.00  0.00    +0.069 C 
ATOM      2  C   UNL     1      32.960 -23.518 -14.523  0.00  0.00    +0.141 C 
ATOM      3  C   UNL     1      31.484 -23.108 -16.391  0.00  0.00    +0.006 C 
ATOM      4  C   UNL     1      31.876 -23.439 -13.649  0.00  0.00    +0.037 C 
ATOM      5  C   UNL     1      30.400 -23.029 -15.517  0.00  0.00    +0.000 C 
ATOM      6  C   UNL     1      30.596 -23.196 -14.146  0.00  0.00    +0.003 C 
ENDROOT
BRANCH   1   8
ATOM      7  O   UNL     1      34.973 -23.919 -16.467  0.00  0.00    -0.291 OA
ATOM      8  C   UNL     1      33.883 -23.432 -16.824  0.00  0.00    +0.176 C 
BRANCH   8   9
ATOM      9  C   UNL     1      33.722 -22.912 -18.263  0.00  0.00    +0.074 C 
BRANCH   9  10
ATOM     10  C   UNL     1      34.975 -22.219 -18.802  0.00  0.00    +0.034 C 
BRANCH  10  11
ATOM     11  C   UNL     1      34.630 -21.104 -19.756  0.00  0.00    -0.022 C 
ATOM     12  C   UNL     1      33.296 -20.753 -19.963  0.00  0.00    -0.004 C 
ATOM     13  C   UNL     1      35.643 -20.424 -20.430  0.00  0.00    -0.004 C 
ATOM     14  C   UNL     1      32.976 -19.721 -20.846  0.00  0.00    -0.000 C 
ATOM     15  C   UNL     1      35.323 -19.392 -21.312  0.00  0.00    -0.000 C 
ATOM     16  C   UNL     1      33.990 -19.040 -21.520  0.00  0.00    -0.000 C 
ENDBRANCH  10  11
ENDBRANCH   9  10
ENDBRANCH   8   9
ENDBRANCH   1   8
BRANCH   2  17
ATOM     17  O   UNL     1      34.210 -23.761 -14.016  0.00  0.00    -0.473 OA
BRANCH  17  18
ATOM     18  C   UNL     1      34.270 -24.349 -12.719  0.00  0.00    +0.232 C 
BRANCH  18  19
ATOM     19  C   UNL     1      35.647 -24.071 -12.117  0.00  0.00    +0.133 C 
BRANCH  19  20
ATOM     20  O   UNL     1      36.165 -22.873 -12.701  0.00  0.00    -0.383 OA
ATOM     21  H   UNL     1      35.932 -22.846 -13.643  0.00  0.00    +0.210 HD
ENDBRANCH  19  20
BRANCH  19  22
ATOM     22  C   UNL     1      36.653 -25.198 -12.361  0.00  0.00    -0.048 C 
BRANCH  22  23
ATOM     23  N   UNL     1      36.450 -25.845 -13.650  0.00  0.00    +0.385 N 
ATOM     24  H   UNL     1      35.923 -25.218 -14.259  0.00  0.00    -0.084 HD
ATOM     25  H   UNL     1      35.934 -26.712 -13.501  0.00  0.00    -0.084 HD
BRANCH  23  26
ATOM     26  C   UNL     1      37.723 -26.164 -14.280  0.00  0.00    -0.082 C 
BRANCH  26  27
ATOM     27  C   UNL     1      38.851 -25.366 -13.629  0.00  0.00    -0.023 C 
ATOM     28  C   UNL     1      40.205 -25.752 -14.203  0.00  0.00    -0.002 C 
ENDBRANCH  26  27
ENDBRANCH  23  26
ENDBRANCH  22  23
ENDBRANCH  19  22
ENDBRANCH  18  19
ENDBRANCH  17  18
ENDBRANCH   2  17
TORSDOF 12
ENDMDL
MODEL 5
REMARK VINA RESULT:      -8.7      8.625     13.439
REMARK  Name = 4932
REMARK  12 active torsions:
REMARK  status: ('A' for Active; 'I' for Inactive)
REMARK    1  A    between atoms: C_1  and  C_8
REMARK    2  A    between atoms: C_2  and  O_17
REMARK    3  A    between atoms: C_8  and  C_9
REMARK    4  A    between atoms: C_9  and  C_10
REMARK    5  A    between atoms: C_10  and  C_11
REMARK    6  A    between atoms: O_17  and  C_18
REMARK    7  A    between atoms: C_18  and  C_19
REMARK    8  A    between atoms: C_19  and  O_20
REMARK    9  A    between atoms: C_19  and  C_22
REMARK   10  A    between atoms: C_22  and  N_23
REMARK   11  A    between atoms: N_23  and  C_26
REMARK   12  A    between atoms: C_26  and  C_27
REMARK                            x       y       z     vdW  Elec       q    Type
REMARK                         _______ _______ _______ _____ _____    ______ ____
ROOT
ATOM      1  C   UNL     1      33.290 -13.790 -24.212  0.00  0.00    +0.069 C 
ATOM      2  C   UNL     1      33.561 -12.480 -24.604  0.00  0.00    +0.141 C 
ATOM      3  C   UNL     1      33.081 -14.778 -25.176  0.00  0.00    +0.006 C 
ATOM      4  C   UNL     1      33.623 -12.155 -25.960  0.00  0.00    +0.037 C 
ATOM      5  C   UNL     1      33.143 -14.453 -26.531  0.00  0.00    +0.000 C 
ATOM      6  C   UNL     1      33.413 -13.142 -26.923  0.00  0.00    +0.003 C 
ENDROOT
BRANCH   1   8
ATOM      7  O   UNL     1      32.125 -14.180 -22.208  0.00  0.00    -0.291 OA
ATOM      8  C   UNL     1      33.220 -14.150 -22.803  0.00  0.00    +0.176 C 
BRANCH   8   9
ATOM      9  C   UNL     1      34.507 -14.498 -22.035  0.00  0.00    +0.074 C 
BRANCH   9  10
ATOM     10  C   UNL     1      34.356 -15.711 -21.114  0.00  0.00    +0.034 C 
BRANCH  10  11
ATOM     11  C   UNL     1      34.560 -17.006 -21.857  0.00  0.00    -0.022 C 
ATOM     12  C   UNL     1      34.163 -18.211 -21.278  0.00  0.00    -0.004 C 
ATOM     13  C   UNL     1      35.146 -16.999 -23.122  0.00  0.00    -0.004 C 
ATOM     14  C   UNL     1      34.351 -19.410 -21.966  0.00  0.00    -0.000 C 
ATOM     15  C   UNL     1      35.334 -18.199 -23.810  0.00  0.00    -0.000 C 
ATOM     16  C   UNL     1      34.936 -19.403 -23.232  0.00  0.00    -0.000 C 
ENDBRANCH  10  11
ENDBRANCH   9  10
ENDBRANCH   8   9
ENDBRANCH   1   8
BRANCH   2  17
ATOM     17  O   UNL     1      33.767 -11.496 -23.673  0.00  0.00    -0.473 OA
BRANCH  17  18
ATOM     18  C   UNL     1      32.742 -10.515 -23.541  0.00  0.00    +0.232 C 
BRANCH  18  19
ATOM     19  C   UNL     1      32.125 -10.633 -22.149  0.00  0.00    +0.133 C 
BRANCH  19  20
ATOM     20  O   UNL     1      30.894 -11.354 -22.256  0.00  0.00    -0.383 OA
ATOM     21  H   UNL     1      30.196 -10.756 -22.568  0.00  0.00    +0.210 HD
ENDBRANCH  19  20
BRANCH  19  22
ATOM     22  C   UNL     1      31.831  -9.278 -21.500  0.00  0.00    -0.048 C 
BRANCH  22  23
ATOM     23  N   UNL     1      31.715  -8.212 -22.485  0.00  0.00    +0.385 N 
ATOM     24  H   UNL     1      30.771  -7.825 -22.448  0.00  0.00    -0.084 HD
ATOM     25  H   UNL     1      31.905  -8.600 -23.409  0.00  0.00    -0.084 HD
BRANCH  23  26
ATOM     26  C   UNL     1      32.676  -7.150 -22.220  0.00  0.00    -0.082 C 
BRANCH  26  27
ATOM     27  C   UNL     1      33.496  -6.852 -23.473  0.00  0.00    -0.023 C 
ATOM     28  C   UNL     1      34.829  -7.583 -23.449  0.00  0.00    -0.002 C 
ENDBRANCH  26  27
ENDBRANCH  23  26
ENDBRANCH  22  23
ENDBRANCH  19  22
ENDBRANCH  18  19
ENDBRANCH  17  18
ENDBRANCH   2  17
TORSDOF 12
ENDMDL
MODEL 6
REMARK VINA RESULT:      -8.6      1.593      5.689
REMARK  Name = 4932
REMARK  12 active torsions:
REMARK  status: ('A' for Active; 'I' for Inactive)
REMARK    1  A    between atoms: C_1  and  C_8
REMARK    2  A    between atoms: C_2  and  O_17
REMARK    3  A    between atoms: C_8  and  C_9
REMARK    4  A    between atoms: C_9  and  C_10
REMARK    5  A    between atoms: C_10  and  C_11
REMARK    6  A    between atoms: O_17  and  C_18
REMARK    7  A    between atoms: C_18  and  C_19
REMARK    8  A    between atoms: C_19  and  O_20
REMARK    9  A    between atoms: C_19  and  C_22
REMARK   10  A    between atoms: C_22  and  N_23
REMARK   11  A    between atoms: N_23  and  C_26
REMARK   12  A    between atoms: C_26  and  C_27
REMARK                            x       y       z     vdW  Elec       q    Type
REMARK                         _______ _______ _______ _____ _____    ______ ____
ROOT
ATOM      1  C   UNL     1      34.430 -21.870 -19.160  0.00  0.00    +0.069 C 
ATOM      2  C   UNL     1      35.778 -21.666 -18.866  0.00  0.00    +0.141 C 
ATOM      3  C   UNL     1      33.808 -21.102 -20.146  0.00  0.00    +0.006 C 
ATOM      4  C   UNL     1      36.505 -20.696 -19.557  0.00  0.00    +0.037 C 
ATOM      5  C   UNL     1      34.534 -20.133 -20.836  0.00  0.00    +0.000 C 
ATOM      6  C   UNL     1      35.882 -19.929 -20.542  0.00  0.00    +0.003 C 
ENDROOT
BRANCH   1   8
ATOM      7  O   UNL     1      33.778 -24.086 -18.724  0.00  0.00    -0.291 OA
ATOM      8  C   UNL     1      33.654 -22.876 -18.450  0.00  0.00    +0.176 C 
BRANCH   8   9
ATOM      9  C   UNL     1      32.668 -22.448 -17.348  0.00  0.00    +0.074 C 
BRANCH   9  10
ATOM     10  C   UNL     1      32.584 -23.444 -16.189  0.00  0.00    +0.034 C 
BRANCH  10  11
ATOM     11  C   UNL     1      31.156 -23.794 -15.857  0.00  0.00    -0.022 C 
ATOM     12  C   UNL     1      30.882 -24.858 -14.997  0.00  0.00    -0.004 C 
ATOM     13  C   UNL     1      30.110 -23.056 -16.408  0.00  0.00    -0.004 C 
ATOM     14  C   UNL     1      29.561 -25.183 -14.688  0.00  0.00    -0.000 C 
ATOM     15  C   UNL     1      28.788 -23.380 -16.099  0.00  0.00    -0.000 C 
ATOM     16  C   UNL     1      28.514 -24.443 -15.239  0.00  0.00    -0.000 C 
ENDBRANCH  10  11
ENDBRANCH   9  10
ENDBRANCH   8   9
ENDBRANCH   1   8
BRANCH   2  17
ATOM     17  O   UNL     1      36.407 -22.408 -17.901  0.00  0.00    -0.473 OA
BRANCH  17  18
ATOM     18  C   UNL     1      37.053 -21.685 -16.858  0.00  0.00    +0.232 C 
BRANCH  18  19
ATOM     19  C   UNL     1      37.447 -22.662 -15.752  0.00  0.00    +0.133 C 
BRANCH  19  20
ATOM     20  O   UNL     1      38.674 -23.297 -16.123  0.00  0.00    -0.383 OA
ATOM     21  H   UNL     1      39.166 -23.541 -15.322  0.00  0.00    +0.210 HD
ENDBRANCH  19  20
BRANCH  19  22
ATOM     22  C   UNL     1      36.400 -23.750 -15.504  0.00  0.00    -0.048 C 
BRANCH  22  23
ATOM     23  N   UNL     1      37.009 -25.043 -15.223  0.00  0.00    +0.385 N 
ATOM     24  H   UNL     1      38.021 -24.966 -15.331  0.00  0.00    -0.084 HD
ATOM     25  H   UNL     1      36.633 -25.728 -15.878  0.00  0.00    -0.084 HD
BRANCH  23  26
ATOM     26  C   UNL     1      36.705 -25.479 -13.868  0.00  0.00    -0.082 C 
BRANCH  26  27
ATOM     27  C   UNL     1      37.848 -25.113 -12.924  0.00  0.00    -0.023 C 
ATOM     28  C   UNL     1      39.192 -25.548 -13.487  0.00  0.00    -0.002 C 
ENDBRANCH  26  27
ENDBRANCH  23  26
ENDBRANCH  22  23
ENDBRANCH  19  22
ENDBRANCH  18  19
ENDBRANCH  17  18
ENDBRANCH   2  17
TORSDOF 12
ENDMDL
MODEL 7
REMARK VINA RESULT:      -8.6      8.385     12.815
REMARK  Name = 4932
REMARK  12 active torsions:
REMARK  status: ('A' for Active; 'I' for Inactive)
REMARK    1  A    between atoms: C_1  and  C_8
REMARK    2  A    between atoms: C_2  and  O_17
REMARK    3  A    between atoms: C_8  and  C_9
REMARK    4  A    between atoms: C_9  and  C_10
REMARK    5  A    between atoms: C_10  and  C_11
REMARK    6  A    between atoms: O_17  and  C_18
REMARK    7  A    between atoms: C_18  and  C_19
REMARK    8  A    between atoms: C_19  and  O_20
REMARK    9  A    between atoms: C_19  and  C_22
REMARK   10  A    between atoms: C_22  and  N_23
REMARK   11  A    between atoms: N_23  and  C_26
REMARK   12  A    between atoms: C_26  and  C_27
REMARK                            x       y       z     vdW  Elec       q    Type
REMARK                         _______ _______ _______ _____ _____    ______ ____
ROOT
ATOM      1  C   UNL     1      32.330 -13.116 -21.261  0.00  0.00    +0.069 C 
ATOM      2  C   UNL     1      32.230 -12.393 -22.449  0.00  0.00    +0.141 C 
ATOM      3  C   UNL     1      31.948 -12.531 -20.053  0.00  0.00    +0.006 C 
ATOM      4  C   UNL     1      31.747 -11.084 -22.430  0.00  0.00    +0.037 C 
ATOM      5  C   UNL     1      31.466 -11.222 -20.035  0.00  0.00    +0.000 C 
ATOM      6  C   UNL     1      31.366 -10.498 -21.222  0.00  0.00    +0.003 C 
ENDROOT
BRANCH   1   8
ATOM      7  O   UNL     1      32.046 -15.450 -21.298  0.00  0.00    -0.291 OA
ATOM      8  C   UNL     1      32.832 -14.483 -21.258  0.00  0.00    +0.176 C 
BRANCH   8   9
ATOM      9  C   UNL     1      34.348 -14.744 -21.204  0.00  0.00    +0.074 C 
BRANCH   9  10
ATOM     10  C   UNL     1      34.707 -16.132 -20.671  0.00  0.00    +0.034 C 
BRANCH  10  11
ATOM     11  C   UNL     1      34.795 -17.151 -21.778  0.00  0.00    -0.022 C 
ATOM     12  C   UNL     1      34.669 -18.509 -21.485  0.00  0.00    -0.004 C 
ATOM     13  C   UNL     1      35.000 -16.736 -23.093  0.00  0.00    -0.004 C 
ATOM     14  C   UNL     1      34.750 -19.453 -22.510  0.00  0.00    -0.000 C 
ATOM     15  C   UNL     1      35.080 -17.680 -24.117  0.00  0.00    -0.000 C 
ATOM     16  C   UNL     1      34.955 -19.038 -23.826  0.00  0.00    -0.000 C 
ENDBRANCH  10  11
ENDBRANCH   9  10
ENDBRANCH   8   9
ENDBRANCH   1   8
BRANCH   2  17
ATOM     17  O   UNL     1      32.601 -12.950 -23.644  0.00  0.00    -0.473 OA
BRANCH  17  18
ATOM     18  C   UNL     1      33.899 -12.616 -24.128  0.00  0.00    +0.232 C 
BRANCH  18  19
ATOM     19  C   UNL     1      33.751 -11.696 -25.338  0.00  0.00    +0.133 C 
BRANCH  19  20
ATOM     20  O   UNL     1      33.545 -12.503 -26.501  0.00  0.00    -0.383 OA
ATOM     21  H   UNL     1      33.308 -13.404 -26.230  0.00  0.00    +0.210 HD
ENDBRANCH  19  20
BRANCH  19  22
ATOM     22  C   UNL     1      34.977 -10.811 -25.580  0.00  0.00    -0.048 C 
BRANCH  22  23
ATOM     23  N   UNL     1      35.290  -9.981 -24.426  0.00  0.00    +0.385 N 
ATOM     24  H   UNL     1      36.076  -9.372 -24.656  0.00  0.00    -0.084 HD
ATOM     25  H   UNL     1      35.528 -10.589 -23.643  0.00  0.00    -0.084 HD
BRANCH  23  26
ATOM     26  C   UNL     1      34.147  -9.161 -24.048  0.00  0.00    -0.082 C 
BRANCH  26  27
ATOM     27  C   UNL     1      34.619  -7.846 -23.431  0.00  0.00    -0.023 C 
ATOM     28  C   UNL     1      33.466  -7.093 -22.786  0.00  0.00    -0.002 C 
ENDBRANCH  26  27
ENDBRANCH  23  26
ENDBRANCH  22  23
ENDBRANCH  19  22
ENDBRANCH  18  19
ENDBRANCH  17  18
ENDBRANCH   2  17
TORSDOF 12
ENDMDL
MODEL 8
REMARK VINA RESULT:      -8.5      7.458     11.241
REMARK  Name = 4932
REMARK  12 active torsions:
REMARK  status: ('A' for Active; 'I' for Inactive)
REMARK    1  A    between atoms: C_1  and  C_8
REMARK    2  A    between atoms: C_2  and  O_17
REMARK    3  A    between atoms: C_8  and  C_9
REMARK    4  A    between atoms: C_9  and  C_10
REMARK    5  A    between atoms: C_10  and  C_11
REMARK    6  A    between atoms: O_17  and  C_18
REMARK    7  A    between atoms: C_18  and  C_19
REMARK    8  A    between atoms: C_19  and  O_20
REMARK    9  A    between atoms: C_19  and  C_22
REMARK   10  A    between atoms: C_22  and  N_23
REMARK   11  A    between atoms: N_23  and  C_26
REMARK   12  A    between atoms: C_26  and  C_27
REMARK                            x       y       z     vdW  Elec       q    Type
REMARK                         _______ _______ _______ _____ _____    ______ ____
ROOT
ATOM      1  C   UNL     1      33.182 -13.632 -23.451  0.00  0.00    +0.069 C 
ATOM      2  C   UNL     1      34.046 -14.567 -22.880  0.00  0.00    +0.141 C 
ATOM      3  C   UNL     1      32.231 -12.987 -22.659  0.00  0.00    +0.006 C 
ATOM      4  C   UNL     1      33.959 -14.857 -21.518  0.00  0.00    +0.037 C 
ATOM      5  C   UNL     1      32.144 -13.278 -21.298  0.00  0.00    +0.000 C 
ATOM      6  C   UNL     1      33.007 -14.213 -20.727  0.00  0.00    +0.003 C 
ENDROOT
BRANCH   1   8
ATOM      7  O   UNL     1      33.025 -14.188 -25.730  0.00  0.00    -0.291 OA
ATOM      8  C   UNL     1      33.256 -13.315 -24.870  0.00  0.00    +0.176 C 
BRANCH   8   9
ATOM      9  C   UNL     1      33.621 -11.889 -25.320  0.00  0.00    +0.074 C 
BRANCH   9  10
ATOM     10  C   UNL     1      34.566 -11.172 -24.354  0.00  0.00    +0.034 C 
BRANCH  10  11
ATOM     11  C   UNL     1      34.066  -9.795 -24.003  0.00  0.00    -0.022 C 
ATOM     12  C   UNL     1      34.937  -8.706 -24.042  0.00  0.00    -0.004 C 
ATOM     13  C   UNL     1      32.733  -9.608 -23.639  0.00  0.00    -0.004 C 
ATOM     14  C   UNL     1      34.474  -7.431 -23.717  0.00  0.00    -0.000 C 
ATOM     15  C   UNL     1      32.269  -8.333 -23.315  0.00  0.00    -0.000 C 
ATOM     16  C   UNL     1      33.140  -7.244 -23.354  0.00  0.00    -0.000 C 
ENDBRANCH  10  11
ENDBRANCH   9  10
ENDBRANCH   8   9
ENDBRANCH   1   8
BRANCH   2  17
ATOM     17  O   UNL     1      34.985 -15.211 -23.640  0.00  0.00    -0.473 OA
BRANCH  17  18
ATOM     18  C   UNL     1      35.291 -16.554 -23.276  0.00  0.00    +0.232 C 
BRANCH  18  19
ATOM     19  C   UNL     1      35.072 -17.456 -24.489  0.00  0.00    +0.133 C 
BRANCH  19  20
ATOM     20  O   UNL     1      34.099 -16.844 -25.340  0.00  0.00    -0.383 OA
ATOM     21  H   UNL     1      33.495 -17.523 -25.680  0.00  0.00    +0.210 HD
ENDBRANCH  19  20
BRANCH  19  22
ATOM     22  C   UNL     1      34.574 -18.856 -24.121  0.00  0.00    -0.048 C 
BRANCH  22  23
ATOM     23  N   UNL     1      35.063 -19.287 -22.819  0.00  0.00    +0.385 N 
ATOM     24  H   UNL     1      35.731 -18.600 -22.469  0.00  0.00    -0.084 HD
ATOM     25  H   UNL     1      35.511 -20.197 -22.925  0.00  0.00    -0.084 HD
BRANCH  23  26
ATOM     26  C   UNL     1      33.968 -19.415 -21.868  0.00  0.00    -0.082 C 
BRANCH  26  27
ATOM     27  C   UNL     1      34.440 -20.142 -20.610  0.00  0.00    -0.023 C 
ATOM     28  C   UNL     1      33.290 -20.860 -19.921  0.00  0.00    -0.002 C 
ENDBRANCH  26  27
ENDBRANCH  23  26
ENDBRANCH  22  23
ENDBRANCH  19  22
ENDBRANCH  18  19
ENDBRANCH  17  18
ENDBRANCH   2  17
TORSDOF 12
ENDMDL
MODEL 9
REMARK VINA RESULT:      -8.5     12.571     15.896
REMARK  Name = 4932
REMARK  12 active torsions:
REMARK  status: ('A' for Active; 'I' for Inactive)
REMARK    1  A    between atoms: C_1  and  C_8
REMARK    2  A    between atoms: C_2  and  O_17
REMARK    3  A    between atoms: C_8  and  C_9
REMARK    4  A    between atoms: C_9  and  C_10
REMARK    5  A    between atoms: C_10  and  C_11
REMARK    6  A    between atoms: O_17  and  C_18
REMARK    7  A    between atoms: C_18  and  C_19
REMARK    8  A    between atoms: C_19  and  O_20
REMARK    9  A    between atoms: C_19  and  C_22
REMARK   10  A    between atoms: C_22  and  N_23
REMARK   11  A    between atoms: N_23  and  C_26
REMARK   12  A    between atoms: C_26  and  C_27
REMARK                            x       y       z     vdW  Elec       q    Type
REMARK                         _______ _______ _______ _____ _____    ______ ____
ROOT
ATOM      1  C   UNL     1      33.260  -6.835 -24.105  0.00  0.00    +0.069 C 
ATOM      2  C   UNL     1      32.079  -6.473 -23.460  0.00  0.00    +0.141 C 
ATOM      3  C   UNL     1      33.657  -6.164 -25.263  0.00  0.00    +0.006 C 
ATOM      4  C   UNL     1      31.293  -5.439 -23.971  0.00  0.00    +0.037 C 
ATOM      5  C   UNL     1      32.871  -5.131 -25.773  0.00  0.00    +0.000 C 
ATOM      6  C   UNL     1      31.688  -4.769 -25.128  0.00  0.00    +0.003 C 
ENDROOT
BRANCH   1   8
ATOM      7  O   UNL     1      35.166  -7.660 -23.004  0.00  0.00    -0.291 OA
ATOM      8  C   UNL     1      34.095  -7.911 -23.589  0.00  0.00    +0.176 C 
BRANCH   8   9
ATOM      9  C   UNL     1      33.655  -9.375 -23.766  0.00  0.00    +0.074 C 
BRANCH   9  10
ATOM     10  C   UNL     1      34.628 -10.205 -24.606  0.00  0.00    +0.034 C 
BRANCH  10  11
ATOM     11  C   UNL     1      34.058 -11.557 -24.947  0.00  0.00    -0.022 C 
ATOM     12  C   UNL     1      33.737 -12.455 -23.928  0.00  0.00    -0.004 C 
ATOM     13  C   UNL     1      33.851 -11.911 -26.279  0.00  0.00    -0.004 C 
ATOM     14  C   UNL     1      33.209 -13.707 -24.243  0.00  0.00    -0.000 C 
ATOM     15  C   UNL     1      33.321 -13.164 -26.594  0.00  0.00    -0.000 C 
ATOM     16  C   UNL     1      33.001 -14.061 -25.576  0.00  0.00    -0.000 C 
ENDBRANCH  10  11
ENDBRANCH   9  10
ENDBRANCH   8   9
ENDBRANCH   1   8
BRANCH   2  17
ATOM     17  O   UNL     1      31.672  -7.120 -22.323  0.00  0.00    -0.473 OA
BRANCH  17  18
ATOM     18  C   UNL     1      31.765  -6.390 -21.103  0.00  0.00    +0.232 C 
BRANCH  18  19
ATOM     19  C   UNL     1      32.143  -7.355 -19.980  0.00  0.00    +0.133 C 
BRANCH  19  20
ATOM     20  O   UNL     1      33.451  -7.017 -19.512  0.00  0.00    -0.383 OA
ATOM     21  H   UNL     1      33.400  -6.222 -18.958  0.00  0.00    +0.210 HD
ENDBRANCH  19  20
BRANCH  19  22
ATOM     22  C   UNL     1      32.155  -8.821 -20.419  0.00  0.00    -0.048 C 
BRANCH  22  23
ATOM     23  N   UNL     1      32.177  -9.733 -19.284  0.00  0.00    +0.385 N 
ATOM     24  H   UNL     1      32.109  -9.192 -18.421  0.00  0.00    -0.084 HD
ATOM     25  H   UNL     1      33.050 -10.259 -19.307  0.00  0.00    -0.084 HD
BRANCH  23  26
ATOM     26  C   UNL     1      31.066 -10.671 -19.348  0.00  0.00    -0.082 C 
BRANCH  26  27
ATOM     27  C   UNL     1      30.972 -11.287 -20.742  0.00  0.00    -0.023 C 
ATOM     28  C   UNL     1      31.859 -12.516 -20.865  0.00  0.00    -0.002 C 
ENDBRANCH  26  27
ENDBRANCH  23  26
ENDBRANCH  22  23
ENDBRANCH  19  22
ENDBRANCH  18  19
ENDBRANCH  17  18
ENDBRANCH   2  17
TORSDOF 12
ENDMDL
