MODEL 1
REMARK VINA RESULT:     -10.6      0.000      0.000
REMARK  Name = 5289424
REMARK  13 active torsions:
REMARK  status: ('A' for Active; 'I' for Inactive)
REMARK    1  A    between atoms: C_1  and  C_4
REMARK    2  A    between atoms: C_1  and  N_20
REMARK    3  A    between atoms: C_1  and  C_31
REMARK    4  A    between atoms: N_3  and  C_6
REMARK    5  A    between atoms: C_6  and  C_8
REMARK    6  A    between atoms: C_6  and  C_12
REMARK    7  A    between atoms: C_8  and  C_9
REMARK    8  A    between atoms: C_9  and  O_10
REMARK    9  A    between atoms: C_12  and  C_13
REMARK   10  A    between atoms: C_21  and  O_23
REMARK   11  A    between atoms: O_23  and  C_24
REMARK   12  A    between atoms: C_24  and  C_25
REMARK   13  A    between atoms: C_31  and  C_32
REMARK                            x       y       z     vdW  Elec       q    Type
REMARK                         _______ _______ _______ _____ _____    ______ ____
ROOT
ATOM      1  C   UNL     1      34.045 -14.378 -21.511  0.00  0.00    +0.155 C 
ENDROOT
BRANCH   1   4
ATOM      2  O   UNL     1      35.093 -16.133 -20.210  0.00  0.00    -0.273 OA
ATOM      3  N   UNL     1      34.378 -16.612 -22.367  0.00  0.00    -0.298 N 
ATOM      4  C   UNL     1      34.582 -15.784 -21.272  0.00  0.00    +0.241 C 
ATOM      5  H   UNL     1      33.959 -16.229 -23.170  0.00  0.00    +0.150 HD
BRANCH   3   6
ATOM      6  C   UNL     1      34.748 -18.009 -22.385  0.00  0.00    +0.136 C 
BRANCH   6   8
ATOM      7  O   UNL     1      34.881 -19.585 -24.210  0.00  0.00    -0.292 OA
ATOM      8  C   UNL     1      34.865 -18.408 -23.850  0.00  0.00    +0.198 C 
BRANCH   8   9
ATOM      9  C   UNL     1      35.005 -17.269 -24.841  0.00  0.00    +0.204 C 
BRANCH   9  10
ATOM     10  O   UNL     1      33.796 -17.061 -25.541  0.00  0.00    -0.375 OA
ATOM     11  H   UNL     1      33.085 -17.559 -25.110  0.00  0.00    +0.211 HD
ENDBRANCH   9  10
ENDBRANCH   8   9
ENDBRANCH   6   8
BRANCH   6  12
ATOM     12  C   UNL     1      33.726 -18.900 -21.678  0.00  0.00    +0.054 C 
BRANCH  12  13
ATOM     13  C   UNL     1      34.371 -19.927 -20.779  0.00  0.00    -0.020 C 
ATOM     14  C   UNL     1      35.759 -19.965 -20.650  0.00  0.00    -0.004 C 
ATOM     15  C   UNL     1      33.579 -20.837 -20.079  0.00  0.00    -0.004 C 
ATOM     16  C   UNL     1      36.356 -20.915 -19.819  0.00  0.00    -0.000 C 
ATOM     17  C   UNL     1      34.176 -21.787 -19.249  0.00  0.00    -0.000 C 
ATOM     18  C   UNL     1      35.564 -21.825 -19.120  0.00  0.00    -0.000 C 
ENDBRANCH  12  13
ENDBRANCH   6  12
ENDBRANCH   3   6
ENDBRANCH   1   4
BRANCH   1  20
ATOM     19  O   UNL     1      32.519 -14.789 -23.948  0.00  0.00    -0.226 OA
ATOM     20  N   UNL     1      34.409 -14.004 -22.854  0.00  0.00    -0.264 N 
ATOM     21  C   UNL     1      33.616 -14.240 -23.960  0.00  0.00    +0.402 C 
ATOM     22  H   UNL     1      35.273 -13.554 -22.993  0.00  0.00    +0.153 HD
BRANCH  21  23
ATOM     23  O   UNL     1      34.236 -13.771 -25.084  0.00  0.00    -0.430 OA
BRANCH  23  24
ATOM     24  C   UNL     1      33.553 -12.723 -25.781  0.00  0.00    +0.237 C 
BRANCH  24  25
ATOM     25  C   UNL     1      34.025 -11.398 -25.258  0.00  0.00    +0.021 C 
ATOM     26  C   UNL     1      35.121 -10.766 -25.845  0.00  0.00    -0.001 C 
ATOM     27  C   UNL     1      33.367 -10.798 -24.184  0.00  0.00    -0.001 C 
ATOM     28  C   UNL     1      35.560  -9.534 -25.358  0.00  0.00    -0.000 C 
ATOM     29  C   UNL     1      33.806  -9.566 -23.697  0.00  0.00    -0.000 C 
ATOM     30  C   UNL     1      34.902  -8.935 -24.285  0.00  0.00    -0.000 C 
ENDBRANCH  24  25
ENDBRANCH  23  24
ENDBRANCH  21  23
ENDBRANCH   1  20
BRANCH   1  31
ATOM     31  C   UNL     1      32.527 -14.343 -21.292  0.00  0.00    +0.055 C 
BRANCH  31  32
ATOM     32  C   UNL     1      32.019 -12.964 -20.948  0.00  0.00    -0.020 C 
ATOM     33  C   UNL     1      32.157 -12.474 -19.649  0.00  0.00    -0.004 C 
ATOM     34  C   UNL     1      31.412 -12.180 -21.929  0.00  0.00    -0.004 C 
ATOM     35  C   UNL     1      31.686 -11.200 -19.332  0.00  0.00    -0.000 C 
ATOM     36  C   UNL     1      30.941 -10.906 -21.611  0.00  0.00    -0.000 C 
ATOM     37  C   UNL     1      31.078 -10.416 -20.313  0.00  0.00    -0.000 C 
ENDBRANCH  31  32
ENDBRANCH   1  31
TORSDOF 13
ENDMDL
MODEL 2
REMARK VINA RESULT:     -10.5      1.786      3.879
REMARK  Name = 5289424
REMARK  13 active torsions:
REMARK  status: ('A' for Active; 'I' for Inactive)
REMARK    1  A    between atoms: C_1  and  C_4
REMARK    2  A    between atoms: C_1  and  N_20
REMARK    3  A    between atoms: C_1  and  C_31
REMARK    4  A    between atoms: N_3  and  C_6
REMARK    5  A    between atoms: C_6  and  C_8
REMARK    6  A    between atoms: C_6  and  C_12
REMARK    7  A    between atoms: C_8  and  C_9
REMARK    8  A    between atoms: C_9  and  O_10
REMARK    9  A    between atoms: C_12  and  C_13
REMARK   10  A    between atoms: C_21  and  O_23
REMARK   11  A    between atoms: O_23  and  C_24
REMARK   12  A    between atoms: C_24  and  C_25
REMARK   13  A    between atoms: C_31  and  C_32
REMARK                            x       y       z     vdW  Elec       q    Type
REMARK                         _______ _______ _______ _____ _____    ______ ____
ROOT
ATOM      1  C   UNL     1      33.539 -14.705 -21.969  0.00  0.00    +0.155 C 
ENDROOT
BRANCH   1   4
ATOM      2  O   UNL     1      34.800 -15.587 -20.097  0.00  0.00    -0.273 OA
ATOM      3  N   UNL     1      34.141 -17.037 -21.787  0.00  0.00    -0.298 N 
ATOM      4  C   UNL     1      34.246 -15.796 -21.174  0.00  0.00    +0.241 C 
ATOM      5  H   UNL     1      33.675 -17.093 -22.652  0.00  0.00    +0.150 HD
BRANCH   3   6
ATOM      6  C   UNL     1      34.680 -18.252 -21.218  0.00  0.00    +0.136 C 
BRANCH   6   8
ATOM      7  O   UNL     1      37.030 -18.685 -21.566  0.00  0.00    -0.292 OA
ATOM      8  C   UNL     1      35.901 -18.616 -22.052  0.00  0.00    +0.198 C 
BRANCH   8   9
ATOM      9  C   UNL     1      35.653 -18.847 -23.530  0.00  0.00    +0.204 C 
BRANCH   9  10
ATOM     10  O   UNL     1      35.499 -17.618 -24.209  0.00  0.00    -0.375 OA
ATOM     11  H   UNL     1      35.961 -17.660 -25.061  0.00  0.00    +0.211 HD
ENDBRANCH   9  10
ENDBRANCH   8   9
ENDBRANCH   6   8
BRANCH   6  12
ATOM     12  C   UNL     1      33.674 -19.404 -21.227  0.00  0.00    +0.054 C 
BRANCH  12  13
ATOM     13  C   UNL     1      34.021 -20.487 -20.234  0.00  0.00    -0.020 C 
ATOM     14  C   UNL     1      33.006 -21.176 -19.571  0.00  0.00    -0.004 C 
ATOM     15  C   UNL     1      35.357 -20.797 -19.979  0.00  0.00    -0.004 C 
ATOM     16  C   UNL     1      33.327 -22.177 -18.653  0.00  0.00    -0.000 C 
ATOM     17  C   UNL     1      35.678 -21.797 -19.061  0.00  0.00    -0.000 C 
ATOM     18  C   UNL     1      34.663 -22.486 -18.398  0.00  0.00    -0.000 C 
ENDBRANCH  12  13
ENDBRANCH   6  12
ENDBRANCH   3   6
ENDBRANCH   1   4
BRANCH   1  20
ATOM     19  O   UNL     1      31.513 -12.671 -22.413  0.00  0.00    -0.226 OA
ATOM     20  N   UNL     1      33.022 -13.752 -21.020  0.00  0.00    -0.264 N 
ATOM     21  C   UNL     1      32.053 -12.815 -21.320  0.00  0.00    +0.402 C 
ATOM     22  H   UNL     1      33.381 -13.769 -20.103  0.00  0.00    +0.153 HD
BRANCH  21  23
ATOM     23  O   UNL     1      31.778 -12.062 -20.214  0.00  0.00    -0.430 OA
BRANCH  23  24
ATOM     24  C   UNL     1      30.837 -10.998 -20.401  0.00  0.00    +0.237 C 
BRANCH  24  25
ATOM     25  C   UNL     1      31.574  -9.764 -20.830  0.00  0.00    +0.021 C 
ATOM     26  C   UNL     1      31.686  -9.454 -22.185  0.00  0.00    -0.001 C 
ATOM     27  C   UNL     1      32.147  -8.925 -19.874  0.00  0.00    -0.001 C 
ATOM     28  C   UNL     1      32.371  -8.305 -22.585  0.00  0.00    -0.000 C 
ATOM     29  C   UNL     1      32.832  -7.777 -20.273  0.00  0.00    -0.000 C 
ATOM     30  C   UNL     1      32.943  -7.468 -21.628  0.00  0.00    -0.000 C 
ENDBRANCH  24  25
ENDBRANCH  23  24
ENDBRANCH  21  23
ENDBRANCH   1  20
BRANCH   1  31
ATOM     31  C   UNL     1      34.509 -14.060 -22.967  0.00  0.00    +0.055 C 
BRANCH  31  32
ATOM     32  C   UNL     1      33.924 -13.940 -24.354  0.00  0.00    -0.020 C 
ATOM     33  C   UNL     1      33.428 -15.072 -25.002  0.00  0.00    -0.004 C 
ATOM     34  C   UNL     1      33.880 -12.699 -24.987  0.00  0.00    -0.004 C 
ATOM     35  C   UNL     1      32.889 -14.962 -26.283  0.00  0.00    -0.000 C 
ATOM     36  C   UNL     1      33.340 -12.588 -26.269  0.00  0.00    -0.000 C 
ATOM     37  C   UNL     1      32.845 -13.720 -26.917  0.00  0.00    -0.000 C 
ENDBRANCH  31  32
ENDBRANCH   1  31
TORSDOF 13
ENDMDL
MODEL 3
REMARK VINA RESULT:     -10.1      7.385     11.757
REMARK  Name = 5289424
REMARK  13 active torsions:
REMARK  status: ('A' for Active; 'I' for Inactive)
REMARK    1  A    between atoms: C_1  and  C_4
REMARK    2  A    between atoms: C_1  and  N_20
REMARK    3  A    between atoms: C_1  and  C_31
REMARK    4  A    between atoms: N_3  and  C_6
REMARK    5  A    between atoms: C_6  and  C_8
REMARK    6  A    between atoms: C_6  and  C_12
REMARK    7  A    between atoms: C_8  and  C_9
REMARK    8  A    between atoms: C_9  and  O_10
REMARK    9  A    between atoms: C_12  and  C_13
REMARK   10  A    between atoms: C_21  and  O_23
REMARK   11  A    between atoms: O_23  and  C_24
REMARK   12  A    between atoms: C_24  and  C_25
REMARK   13  A    between atoms: C_31  and  C_32
REMARK                            x       y       z     vdW  Elec       q    Type
REMARK                         _______ _______ _______ _____ _____    ______ ____
ROOT
ATOM      1  C   UNL     1      33.158 -23.661 -14.705  0.00  0.00    +0.155 C 
ENDROOT
BRANCH   1   4
ATOM      2  O   UNL     1      34.812 -25.430 -14.615  0.00  0.00    -0.273 OA
ATOM      3  N   UNL     1      35.184 -23.484 -13.401  0.00  0.00    -0.298 N 
ATOM      4  C   UNL     1      34.454 -24.315 -14.241  0.00  0.00    +0.241 C 
ATOM      5  H   UNL     1      34.803 -22.609 -13.164  0.00  0.00    +0.150 HD
BRANCH   3   6
ATOM      6  C   UNL     1      36.476 -23.841 -12.859  0.00  0.00    +0.136 C 
BRANCH   6   8
ATOM      7  O   UNL     1      37.256 -22.366 -11.115  0.00  0.00    -0.292 OA
ATOM      8  C   UNL     1      36.516 -23.295 -11.439  0.00  0.00    +0.198 C 
BRANCH   8   9
ATOM      9  C   UNL     1      35.624 -23.993 -10.431  0.00  0.00    +0.204 C 
BRANCH   9  10
ATOM     10  O   UNL     1      35.280 -25.287 -10.879  0.00  0.00    -0.375 OA
ATOM     11  H   UNL     1      35.625 -25.421 -11.775  0.00  0.00    +0.211 HD
ENDBRANCH   9  10
ENDBRANCH   8   9
ENDBRANCH   6   8
BRANCH   6  12
ATOM     12  C   UNL     1      37.636 -23.269 -13.676  0.00  0.00    +0.054 C 
BRANCH  12  13
ATOM     13  C   UNL     1      38.653 -24.318 -14.057  0.00  0.00    -0.020 C 
ATOM     14  C   UNL     1      39.218 -24.311 -15.331  0.00  0.00    -0.004 C 
ATOM     15  C   UNL     1      39.025 -25.295 -13.133  0.00  0.00    -0.004 C 
ATOM     16  C   UNL     1      40.157 -25.282 -15.683  0.00  0.00    -0.000 C 
ATOM     17  C   UNL     1      39.964 -26.266 -13.485  0.00  0.00    -0.000 C 
ATOM     18  C   UNL     1      40.530 -26.259 -14.760  0.00  0.00    -0.000 C 
ENDBRANCH  12  13
ENDBRANCH   6  12
ENDBRANCH   3   6
ENDBRANCH   1   4
BRANCH   1  20
ATOM     19  O   UNL     1      35.307 -22.627 -16.363  0.00  0.00    -0.226 OA
ATOM     20  N   UNL     1      33.206 -23.590 -16.143  0.00  0.00    -0.264 N 
ATOM     21  C   UNL     1      34.276 -23.080 -16.852  0.00  0.00    +0.402 C 
ATOM     22  H   UNL     1      32.432 -23.924 -16.651  0.00  0.00    +0.153 HD
BRANCH  21  23
ATOM     23  O   UNL     1      34.019 -23.150 -18.192  0.00  0.00    -0.430 OA
BRANCH  23  24
ATOM     24  C   UNL     1      33.060 -22.212 -18.694  0.00  0.00    +0.237 C 
BRANCH  24  25
ATOM     25  C   UNL     1      33.758 -21.232 -19.590  0.00  0.00    +0.021 C 
ATOM     26  C   UNL     1      35.148 -21.250 -19.696  0.00  0.00    -0.001 C 
ATOM     27  C   UNL     1      33.016 -20.302 -20.319  0.00  0.00    -0.001 C 
ATOM     28  C   UNL     1      35.798 -20.339 -20.530  0.00  0.00    -0.000 C 
ATOM     29  C   UNL     1      33.664 -19.391 -21.152  0.00  0.00    -0.000 C 
ATOM     30  C   UNL     1      35.055 -19.410 -21.258  0.00  0.00    -0.000 C 
ENDBRANCH  24  25
ENDBRANCH  23  24
ENDBRANCH  21  23
ENDBRANCH   1  20
BRANCH   1  31
ATOM     31  C   UNL     1      31.949 -24.463 -14.205  0.00  0.00    +0.055 C 
BRANCH  31  32
ATOM     32  C   UNL     1      30.660 -24.051 -14.873  0.00  0.00    -0.020 C 
ATOM     33  C   UNL     1      30.173 -22.753 -14.708  0.00  0.00    -0.004 C 
ATOM     34  C   UNL     1      29.956 -24.965 -15.655  0.00  0.00    -0.004 C 
ATOM     35  C   UNL     1      28.981 -22.373 -15.325  0.00  0.00    -0.000 C 
ATOM     36  C   UNL     1      28.764 -24.585 -16.273  0.00  0.00    -0.000 C 
ATOM     37  C   UNL     1      28.277 -23.289 -16.107  0.00  0.00    -0.000 C 
ENDBRANCH  31  32
ENDBRANCH   1  31
TORSDOF 13
ENDMDL
MODEL 4
REMARK VINA RESULT:      -9.7      5.362     11.930
REMARK  Name = 5289424
REMARK  13 active torsions:
REMARK  status: ('A' for Active; 'I' for Inactive)
REMARK    1  A    between atoms: C_1  and  C_4
REMARK    2  A    between atoms: C_1  and  N_20
REMARK    3  A    between atoms: C_1  and  C_31
REMARK    4  A    between atoms: N_3  and  C_6
REMARK    5  A    between atoms: C_6  and  C_8
REMARK    6  A    between atoms: C_6  and  C_12
REMARK    7  A    between atoms: C_8  and  C_9
REMARK    8  A    between atoms: C_9  and  O_10
REMARK    9  A    between atoms: C_12  and  C_13
REMARK   10  A    between atoms: C_21  and  O_23
REMARK   11  A    between atoms: O_23  and  C_24
REMARK   12  A    between atoms: C_24  and  C_25
REMARK   13  A    between atoms: C_31  and  C_32
REMARK                            x       y       z     vdW  Elec       q    Type
REMARK                         _______ _______ _______ _____ _____    ______ ____
ROOT
ATOM      1  C   UNL     1      33.433 -23.445 -17.394  0.00  0.00    +0.155 C 
ENDROOT
BRANCH   1   4
ATOM      2  O   UNL     1      33.898 -23.749 -19.753  0.00  0.00    -0.273 OA
ATOM      3  N   UNL     1      34.273 -21.666 -18.796  0.00  0.00    -0.298 N 
ATOM      4  C   UNL     1      33.901 -23.003 -18.776  0.00  0.00    +0.241 C 
ATOM      5  H   UNL     1      34.238 -21.159 -17.954  0.00  0.00    +0.150 HD
BRANCH   3   6
ATOM      6  C   UNL     1      34.709 -20.982 -19.992  0.00  0.00    +0.136 C 
BRANCH   6   8
ATOM      7  O   UNL     1      36.693 -19.669 -20.405  0.00  0.00    -0.292 OA
ATOM      8  C   UNL     1      36.151 -20.560 -19.750  0.00  0.00    +0.198 C 
BRANCH   8   9
ATOM      9  C   UNL     1      36.901 -21.333 -18.682  0.00  0.00    +0.204 C 
BRANCH   9  10
ATOM     10  O   UNL     1      37.133 -20.525 -17.548  0.00  0.00    -0.375 OA
ATOM     11  H   UNL     1      36.743 -20.945 -16.767  0.00  0.00    +0.211 HD
ENDBRANCH   9  10
ENDBRANCH   8   9
ENDBRANCH   6   8
BRANCH   6  12
ATOM     12  C   UNL     1      33.850 -19.758 -20.317  0.00  0.00    +0.054 C 
BRANCH  12  13
ATOM     13  C   UNL     1      34.309 -19.040 -21.564  0.00  0.00    -0.020 C 
ATOM     14  C   UNL     1      34.550 -17.667 -21.528  0.00  0.00    -0.004 C 
ATOM     15  C   UNL     1      34.490 -19.750 -22.750  0.00  0.00    -0.004 C 
ATOM     16  C   UNL     1      34.972 -17.003 -22.681  0.00  0.00    -0.000 C 
ATOM     17  C   UNL     1      34.912 -19.086 -23.903  0.00  0.00    -0.000 C 
ATOM     18  C   UNL     1      35.153 -17.713 -23.868  0.00  0.00    -0.000 C 
ENDBRANCH  12  13
ENDBRANCH   6  12
ENDBRANCH   3   6
ENDBRANCH   1   4
BRANCH   1  20
ATOM     19  O   UNL     1      34.404 -24.975 -15.124  0.00  0.00    -0.226 OA
ATOM     20  N   UNL     1      34.462 -23.075 -16.456  0.00  0.00    -0.264 N 
ATOM     21  C   UNL     1      34.863 -23.871 -15.401  0.00  0.00    +0.402 C 
ATOM     22  H   UNL     1      34.907 -22.205 -16.575  0.00  0.00    +0.153 HD
BRANCH  21  23
ATOM     23  O   UNL     1      35.853 -23.244 -14.698  0.00  0.00    -0.430 OA
BRANCH  23  24
ATOM     24  C   UNL     1      37.103 -23.093 -15.382  0.00  0.00    +0.237 C 
BRANCH  24  25
ATOM     25  C   UNL     1      38.088 -24.077 -14.823  0.00  0.00    +0.021 C 
ATOM     26  C   UNL     1      37.847 -24.681 -13.589  0.00  0.00    -0.001 C 
ATOM     27  C   UNL     1      39.245 -24.389 -15.537  0.00  0.00    -0.001 C 
ATOM     28  C   UNL     1      38.762 -25.597 -13.069  0.00  0.00    -0.000 C 
ATOM     29  C   UNL     1      40.161 -25.304 -15.017  0.00  0.00    -0.000 C 
ATOM     30  C   UNL     1      39.919 -25.907 -13.784  0.00  0.00    -0.000 C 
ENDBRANCH  24  25
ENDBRANCH  23  24
ENDBRANCH  21  23
ENDBRANCH   1  20
BRANCH   1  31
ATOM     31  C   UNL     1      32.084 -22.799 -17.057  0.00  0.00    +0.055 C 
BRANCH  31  32
ATOM     32  C   UNL     1      31.433 -23.409 -15.839  0.00  0.00    -0.020 C 
ATOM     33  C   UNL     1      31.570 -22.794 -14.594  0.00  0.00    -0.004 C 
ATOM     34  C   UNL     1      30.694 -24.585 -15.959  0.00  0.00    -0.004 C 
ATOM     35  C   UNL     1      30.969 -23.357 -13.469  0.00  0.00    -0.000 C 
ATOM     36  C   UNL     1      30.093 -25.149 -14.833  0.00  0.00    -0.000 C 
ATOM     37  C   UNL     1      30.230 -24.535 -13.589  0.00  0.00    -0.000 C 
ENDBRANCH  31  32
ENDBRANCH   1  31
TORSDOF 13
ENDMDL
MODEL 5
REMARK VINA RESULT:      -9.7      2.826      9.167
REMARK  Name = 5289424
REMARK  13 active torsions:
REMARK  status: ('A' for Active; 'I' for Inactive)
REMARK    1  A    between atoms: C_1  and  C_4
REMARK    2  A    between atoms: C_1  and  N_20
REMARK    3  A    between atoms: C_1  and  C_31
REMARK    4  A    between atoms: N_3  and  C_6
REMARK    5  A    between atoms: C_6  and  C_8
REMARK    6  A    between atoms: C_6  and  C_12
REMARK    7  A    between atoms: C_8  and  C_9
REMARK    8  A    between atoms: C_9  and  O_10
REMARK    9  A    between atoms: C_12  and  C_13
REMARK   10  A    between atoms: C_21  and  O_23
REMARK   11  A    between atoms: O_23  and  C_24
REMARK   12  A    between atoms: C_24  and  C_25
REMARK   13  A    between atoms: C_31  and  C_32
REMARK                            x       y       z     vdW  Elec       q    Type
REMARK                         _______ _______ _______ _____ _____    ______ ____
ROOT
ATOM      1  C   UNL     1      32.351 -12.340 -22.919  0.00  0.00    +0.155 C 
ENDROOT
BRANCH   1   4
ATOM      2  O   UNL     1      33.749 -10.575 -23.816  0.00  0.00    -0.273 OA
ATOM      3  N   UNL     1      32.308 -10.081 -22.062  0.00  0.00    -0.298 N 
ATOM      4  C   UNL     1      32.905 -10.921 -22.992  0.00  0.00    +0.241 C 
ATOM      5  H   UNL     1      31.643 -10.464 -21.447  0.00  0.00    +0.150 HD
BRANCH   3   6
ATOM      6  C   UNL     1      32.616  -8.673 -21.953  0.00  0.00    +0.136 C 
BRANCH   6   8
ATOM      7  O   UNL     1      32.825  -7.231 -20.028  0.00  0.00    -0.292 OA
ATOM      8  C   UNL     1      32.425  -8.300 -20.489  0.00  0.00    +0.198 C 
BRANCH   8   9
ATOM      9  C   UNL     1      31.755  -9.344 -19.617  0.00  0.00    +0.204 C 
BRANCH   9  10
ATOM     10  O   UNL     1      32.706 -10.016 -18.819  0.00  0.00    -0.375 OA
ATOM     11  H   UNL     1      33.593  -9.683 -19.025  0.00  0.00    +0.211 HD
ENDBRANCH   9  10
ENDBRANCH   8   9
ENDBRANCH   6   8
BRANCH   6  12
ATOM     12  C   UNL     1      31.720  -7.804 -22.838  0.00  0.00    +0.054 C 
BRANCH  12  13
ATOM     13  C   UNL     1      32.501  -7.021 -23.865  0.00  0.00    -0.020 C 
ATOM     14  C   UNL     1      31.861  -6.050 -24.635  0.00  0.00    -0.004 C 
ATOM     15  C   UNL     1      33.862  -7.269 -24.044  0.00  0.00    -0.004 C 
ATOM     16  C   UNL     1      32.583  -5.327 -25.585  0.00  0.00    -0.000 C 
ATOM     17  C   UNL     1      34.584  -6.545 -24.994  0.00  0.00    -0.000 C 
ATOM     18  C   UNL     1      33.944  -5.575 -25.764  0.00  0.00    -0.000 C 
ENDBRANCH  12  13
ENDBRANCH   6  12
ENDBRANCH   3   6
ENDBRANCH   1   4
BRANCH   1  20
ATOM     19  O   UNL     1      32.021 -13.783 -25.417  0.00  0.00    -0.226 OA
ATOM     20  N   UNL     1      33.302 -13.204 -23.571  0.00  0.00    -0.264 N 
ATOM     21  C   UNL     1      33.058 -13.852 -24.766  0.00  0.00    +0.402 C 
ATOM     22  H   UNL     1      34.177 -13.339 -23.141  0.00  0.00    +0.153 HD
BRANCH  21  23
ATOM     23  O   UNL     1      34.150 -14.593 -25.122  0.00  0.00    -0.430 OA
BRANCH  23  24
ATOM     24  C   UNL     1      33.873 -15.857 -25.736  0.00  0.00    +0.237 C 
BRANCH  24  25
ATOM     25  C   UNL     1      34.430 -16.952 -24.874  0.00  0.00    +0.021 C 
ATOM     26  C   UNL     1      35.233 -16.637 -23.778  0.00  0.00    -0.001 C 
ATOM     27  C   UNL     1      34.144 -18.285 -25.168  0.00  0.00    -0.001 C 
ATOM     28  C   UNL     1      35.750 -17.654 -22.976  0.00  0.00    -0.000 C 
ATOM     29  C   UNL     1      34.661 -19.303 -24.367  0.00  0.00    -0.000 C 
ATOM     30  C   UNL     1      35.464 -18.987 -23.271  0.00  0.00    -0.000 C 
ENDBRANCH  24  25
ENDBRANCH  23  24
ENDBRANCH  21  23
ENDBRANCH   1  20
BRANCH   1  31
ATOM     31  C   UNL     1      32.110 -12.743 -21.459  0.00  0.00    +0.055 C 
BRANCH  31  32
ATOM     32  C   UNL     1      32.772 -14.050 -21.097  0.00  0.00    -0.020 C 
ATOM     33  C   UNL     1      34.118 -14.071 -20.728  0.00  0.00    -0.004 C 
ATOM     34  C   UNL     1      32.040 -15.236 -21.132  0.00  0.00    -0.004 C 
ATOM     35  C   UNL     1      34.729 -15.279 -20.394  0.00  0.00    -0.000 C 
ATOM     36  C   UNL     1      32.652 -16.445 -20.799  0.00  0.00    -0.000 C 
ATOM     37  C   UNL     1      33.996 -16.466 -20.430  0.00  0.00    -0.000 C 
ENDBRANCH  31  32
ENDBRANCH   1  31
TORSDOF 13
ENDMDL
MODEL 6
REMARK VINA RESULT:      -9.7      1.912      9.020
REMARK  Name = 5289424
REMARK  13 active torsions:
REMARK  status: ('A' for Active; 'I' for Inactive)
REMARK    1  A    between atoms: C_1  and  C_4
REMARK    2  A    between atoms: C_1  and  N_20
REMARK    3  A    between atoms: C_1  and  C_31
REMARK    4  A    between atoms: N_3  and  C_6
REMARK    5  A    between atoms: C_6  and  C_8
REMARK    6  A    between atoms: C_6  and  C_12
REMARK    7  A    between atoms: C_8  and  C_9
REMARK    8  A    between atoms: C_9  and  O_10
REMARK    9  A    between atoms: C_12  and  C_13
REMARK   10  A    between atoms: C_21  and  O_23
REMARK   11  A    between atoms: O_23  and  C_24
REMARK   12  A    between atoms: C_24  and  C_25
REMARK   13  A    between atoms: C_31  and  C_32
REMARK                            x       y       z     vdW  Elec       q    Type
REMARK                         _______ _______ _______ _____ _____    ______ ____
ROOT
ATOM      1  C   UNL     1      34.611 -15.219 -22.601  0.00  0.00    +0.155 C 
ENDROOT
BRANCH   1   4
ATOM      2  O   UNL     1      32.594 -13.876 -22.614  0.00  0.00    -0.273 OA
ATOM      3  N   UNL     1      34.231 -13.455 -24.207  0.00  0.00    -0.298 N 
ATOM      4  C   UNL     1      33.680 -14.133 -23.128  0.00  0.00    +0.241 C 
ATOM      5  H   UNL     1      35.110 -13.744 -24.541  0.00  0.00    +0.150 HD
BRANCH   3   6
ATOM      6  C   UNL     1      33.578 -12.345 -24.864  0.00  0.00    +0.136 C 
BRANCH   6   8
ATOM      7  O   UNL     1      33.278 -12.115 -27.248  0.00  0.00    -0.292 OA
ATOM      8  C   UNL     1      33.186 -12.832 -26.252  0.00  0.00    +0.198 C 
BRANCH   8   9
ATOM      9  C   UNL     1      32.630 -14.241 -26.331  0.00  0.00    +0.204 C 
BRANCH   9  10
ATOM     10  O   UNL     1      33.579 -15.123 -26.892  0.00  0.00    -0.375 OA
ATOM     11  H   UNL     1      34.471 -14.846 -26.631  0.00  0.00    +0.211 HD
ENDBRANCH   9  10
ENDBRANCH   8   9
ENDBRANCH   6   8
BRANCH   6  12
ATOM     12  C   UNL     1      34.478 -11.112 -24.974  0.00  0.00    +0.054 C 
BRANCH  12  13
ATOM     13  C   UNL     1      34.030  -9.983 -24.078  0.00  0.00    -0.020 C 
ATOM     14  C   UNL     1      32.894 -10.132 -23.284  0.00  0.00    -0.004 C 
ATOM     15  C   UNL     1      34.752  -8.790 -24.047  0.00  0.00    -0.004 C 
ATOM     16  C   UNL     1      32.479  -9.087 -22.457  0.00  0.00    -0.000 C 
ATOM     17  C   UNL     1      34.337  -7.745 -23.220  0.00  0.00    -0.000 C 
ATOM     18  C   UNL     1      33.201  -7.894 -22.426  0.00  0.00    -0.000 C 
ENDBRANCH  12  13
ENDBRANCH   6  12
ENDBRANCH   3   6
ENDBRANCH   1   4
BRANCH   1  20
ATOM     19  O   UNL     1      35.198 -16.843 -20.266  0.00  0.00    -0.226 OA
ATOM     20  N   UNL     1      33.784 -16.236 -22.002  0.00  0.00    -0.264 N 
ATOM     21  C   UNL     1      34.146 -16.962 -20.885  0.00  0.00    +0.402 C 
ATOM     22  H   UNL     1      32.909 -16.424 -22.413  0.00  0.00    +0.153 HD
BRANCH  21  23
ATOM     23  O   UNL     1      33.153 -17.844 -20.564  0.00  0.00    -0.430 OA
BRANCH  23  24
ATOM     24  C   UNL     1      33.144 -19.070 -21.306  0.00  0.00    +0.237 C 
BRANCH  24  25
ATOM     25  C   UNL     1      33.746 -20.156 -20.463  0.00  0.00    +0.021 C 
ATOM     26  C   UNL     1      35.130 -20.323 -20.426  0.00  0.00    -0.001 C 
ATOM     27  C   UNL     1      32.922 -20.998 -19.717  0.00  0.00    -0.001 C 
ATOM     28  C   UNL     1      35.691 -21.332 -19.642  0.00  0.00    -0.000 C 
ATOM     29  C   UNL     1      33.482 -22.007 -18.934  0.00  0.00    -0.000 C 
ATOM     30  C   UNL     1      34.866 -22.174 -18.897  0.00  0.00    -0.000 C 
ENDBRANCH  24  25
ENDBRANCH  23  24
ENDBRANCH  21  23
ENDBRANCH   1  20
BRANCH   1  31
ATOM     31  C   UNL     1      35.479 -15.774 -23.737  0.00  0.00    +0.055 C 
BRANCH  31  32
ATOM     32  C   UNL     1      35.140 -17.203 -24.086  0.00  0.00    -0.020 C 
ATOM     33  C   UNL     1      35.814 -18.252 -23.459  0.00  0.00    -0.004 C 
ATOM     34  C   UNL     1      34.153 -17.475 -25.032  0.00  0.00    -0.004 C 
ATOM     35  C   UNL     1      35.502 -19.572 -23.781  0.00  0.00    -0.000 C 
ATOM     36  C   UNL     1      33.840 -18.796 -25.355  0.00  0.00    -0.000 C 
ATOM     37  C   UNL     1      34.515 -19.845 -24.729  0.00  0.00    -0.000 C 
ENDBRANCH  31  32
ENDBRANCH   1  31
TORSDOF 13
ENDMDL
MODEL 7
REMARK VINA RESULT:      -9.6      5.976     11.020
REMARK  Name = 5289424
REMARK  13 active torsions:
REMARK  status: ('A' for Active; 'I' for Inactive)
REMARK    1  A    between atoms: C_1  and  C_4
REMARK    2  A    between atoms: C_1  and  N_20
REMARK    3  A    between atoms: C_1  and  C_31
REMARK    4  A    between atoms: N_3  and  C_6
REMARK    5  A    between atoms: C_6  and  C_8
REMARK    6  A    between atoms: C_6  and  C_12
REMARK    7  A    between atoms: C_8  and  C_9
REMARK    8  A    between atoms: C_9  and  O_10
REMARK    9  A    between atoms: C_12  and  C_13
REMARK   10  A    between atoms: C_21  and  O_23
REMARK   11  A    between atoms: O_23  and  C_24
REMARK   12  A    between atoms: C_24  and  C_25
REMARK   13  A    between atoms: C_31  and  C_32
REMARK                            x       y       z     vdW  Elec       q    Type
REMARK                         _______ _______ _______ _____ _____    ______ ____
ROOT
ATOM      1  C   UNL     1      34.246 -23.082 -17.006  0.00  0.00    +0.155 C 
ENDROOT
BRANCH   1   4
ATOM      2  O   UNL     1      31.932 -22.695 -17.614  0.00  0.00    -0.273 OA
ATOM      3  N   UNL     1      32.427 -23.335 -15.437  0.00  0.00    -0.298 N 
ATOM      4  C   UNL     1      32.747 -22.993 -16.743  0.00  0.00    +0.241 C 
ATOM      5  H   UNL     1      33.160 -23.557 -14.819  0.00  0.00    +0.150 HD
BRANCH   3   6
ATOM      6  C   UNL     1      31.071 -23.381 -14.938  0.00  0.00    +0.136 C 
BRANCH   6   8
ATOM      7  O   UNL     1      30.445 -23.710 -12.629  0.00  0.00    -0.292 OA
ATOM      8  C   UNL     1      31.130 -24.076 -13.585  0.00  0.00    +0.198 C 
BRANCH   8   9
ATOM      9  C   UNL     1      32.118 -25.220 -13.466  0.00  0.00    +0.204 C 
BRANCH   9  10
ATOM     10  O   UNL     1      33.337 -24.774 -12.910  0.00  0.00    -0.375 OA
ATOM     11  H   UNL     1      33.179 -23.972 -12.388  0.00  0.00    +0.211 HD
ENDBRANCH   9  10
ENDBRANCH   8   9
ENDBRANCH   6   8
BRANCH   6  12
ATOM     12  C   UNL     1      30.124 -24.134 -15.875  0.00  0.00    +0.054 C 
BRANCH  12  13
ATOM     13  C   UNL     1      28.854 -23.368 -16.157  0.00  0.00    -0.020 C 
ATOM     14  C   UNL     1      28.357 -23.297 -17.458  0.00  0.00    -0.004 C 
ATOM     15  C   UNL     1      28.179 -22.730 -15.116  0.00  0.00    -0.004 C 
ATOM     16  C   UNL     1      27.184 -22.589 -17.718  0.00  0.00    -0.000 C 
ATOM     17  C   UNL     1      27.006 -22.021 -15.376  0.00  0.00    -0.000 C 
ATOM     18  C   UNL     1      26.509 -21.950 -16.677  0.00  0.00    -0.000 C 
ENDBRANCH  12  13
ENDBRANCH   6  12
ENDBRANCH   3   6
ENDBRANCH   1   4
BRANCH   1  20
ATOM     19  O   UNL     1      34.251 -23.479 -19.883  0.00  0.00    -0.226 OA
ATOM     20  N   UNL     1      34.557 -22.117 -18.030  0.00  0.00    -0.264 N 
ATOM     21  C   UNL     1      34.533 -22.395 -19.383  0.00  0.00    +0.402 C 
ATOM     22  H   UNL     1      34.801 -21.205 -17.750  0.00  0.00    +0.153 HD
BRANCH  21  23
ATOM     23  O   UNL     1      34.875 -21.279 -20.092  0.00  0.00    -0.430 OA
BRANCH  23  24
ATOM     24  C   UNL     1      33.803 -20.376 -20.388  0.00  0.00    +0.237 C 
BRANCH  24  25
ATOM     25  C   UNL     1      34.303 -19.314 -21.323  0.00  0.00    +0.021 C 
ATOM     26  C   UNL     1      34.906 -19.673 -22.528  0.00  0.00    -0.001 C 
ATOM     27  C   UNL     1      34.163 -17.967 -20.988  0.00  0.00    -0.001 C 
ATOM     28  C   UNL     1      35.370 -18.686 -23.398  0.00  0.00    -0.000 C 
ATOM     29  C   UNL     1      34.628 -16.980 -21.857  0.00  0.00    -0.000 C 
ATOM     30  C   UNL     1      35.230 -17.339 -23.061  0.00  0.00    -0.000 C 
ENDBRANCH  24  25
ENDBRANCH  23  24
ENDBRANCH  21  23
ENDBRANCH   1  20
BRANCH   1  31
ATOM     31  C   UNL     1      35.029 -22.827 -15.713  0.00  0.00    +0.055 C 
BRANCH  31  32
ATOM     32  C   UNL     1      36.032 -23.915 -15.414  0.00  0.00    -0.020 C 
ATOM     33  C   UNL     1      35.617 -25.245 -15.342  0.00  0.00    -0.004 C 
ATOM     34  C   UNL     1      37.373 -23.591 -15.212  0.00  0.00    -0.004 C 
ATOM     35  C   UNL     1      36.544 -26.250 -15.066  0.00  0.00    -0.000 C 
ATOM     36  C   UNL     1      38.300 -24.596 -14.935  0.00  0.00    -0.000 C 
ATOM     37  C   UNL     1      37.885 -25.925 -14.862  0.00  0.00    -0.000 C 
ENDBRANCH  31  32
ENDBRANCH   1  31
TORSDOF 13
ENDMDL
MODEL 8
REMARK VINA RESULT:      -9.6      6.914     11.694
REMARK  Name = 5289424
REMARK  13 active torsions:
REMARK  status: ('A' for Active; 'I' for Inactive)
REMARK    1  A    between atoms: C_1  and  C_4
REMARK    2  A    between atoms: C_1  and  N_20
REMARK    3  A    between atoms: C_1  and  C_31
REMARK    4  A    between atoms: N_3  and  C_6
REMARK    5  A    between atoms: C_6  and  C_8
REMARK    6  A    between atoms: C_6  and  C_12
REMARK    7  A    between atoms: C_8  and  C_9
REMARK    8  A    between atoms: C_9  and  O_10
REMARK    9  A    between atoms: C_12  and  C_13
REMARK   10  A    between atoms: C_21  and  O_23
REMARK   11  A    between atoms: O_23  and  C_24
REMARK   12  A    between atoms: C_24  and  C_25
REMARK   13  A    between atoms: C_31  and  C_32
REMARK                            x       y       z     vdW  Elec       q    Type
REMARK                         _______ _______ _______ _____ _____    ______ ____
ROOT
ATOM      1  C   UNL     1      35.026 -23.320 -16.067  0.00  0.00    +0.155 C 
ENDROOT
BRANCH   1   4
ATOM      2  O   UNL     1      33.092 -23.975 -17.372  0.00  0.00    -0.273 OA
ATOM      3  N   UNL     1      32.777 -23.251 -15.187  0.00  0.00    -0.298 N 
ATOM      4  C   UNL     1      33.538 -23.544 -16.311  0.00  0.00    +0.241 C 
ATOM      5  H   UNL     1      33.237 -22.909 -14.388  0.00  0.00    +0.150 HD
BRANCH   3   6
ATOM      6  C   UNL     1      31.343 -23.425 -15.133  0.00  0.00    +0.136 C 
BRANCH   6   8
ATOM      7  O   UNL     1      30.563 -25.703 -15.312  0.00  0.00    -0.292 OA
ATOM      8  C   UNL     1      31.096 -24.836 -14.619  0.00  0.00    +0.198 C 
BRANCH   8   9
ATOM      9  C   UNL     1      31.503 -25.102 -13.182  0.00  0.00    +0.204 C 
BRANCH   9  10
ATOM     10  O   UNL     1      32.909 -25.092 -13.050  0.00  0.00    -0.375 OA
ATOM     11  H   UNL     1      33.217 -25.978 -12.807  0.00  0.00    +0.211 HD
ENDBRANCH   9  10
ENDBRANCH   8   9
ENDBRANCH   6   8
BRANCH   6  12
ATOM     12  C   UNL     1      30.675 -23.238 -16.497  0.00  0.00    +0.054 C 
BRANCH  12  13
ATOM     13  C   UNL     1      29.226 -22.829 -16.384  0.00  0.00    -0.020 C 
ATOM     14  C   UNL     1      28.392 -22.900 -17.500  0.00  0.00    -0.004 C 
ATOM     15  C   UNL     1      28.721 -22.380 -15.163  0.00  0.00    -0.004 C 
ATOM     16  C   UNL     1      27.053 -22.522 -17.395  0.00  0.00    -0.000 C 
ATOM     17  C   UNL     1      27.382 -22.002 -15.059  0.00  0.00    -0.000 C 
ATOM     18  C   UNL     1      26.549 -22.073 -16.175  0.00  0.00    -0.000 C 
ENDBRANCH  12  13
ENDBRANCH   6  12
ENDBRANCH   3   6
ENDBRANCH   1   4
BRANCH   1  20
ATOM     19  O   UNL     1      37.750 -22.490 -16.640  0.00  0.00    -0.226 OA
ATOM     20  N   UNL     1      35.464 -22.310 -16.997  0.00  0.00    -0.264 N 
ATOM     21  C   UNL     1      36.788 -21.980 -17.207  0.00  0.00    +0.402 C 
ATOM     22  H   UNL     1      34.779 -21.828 -17.515  0.00  0.00    +0.153 HD
BRANCH  21  23
ATOM     23  O   UNL     1      36.876 -20.991 -18.146  0.00  0.00    -0.430 OA
BRANCH  23  24
ATOM     24  C   UNL     1      36.676 -21.400 -19.504  0.00  0.00    +0.237 C 
BRANCH  24  25
ATOM     25  C   UNL     1      35.452 -20.720 -20.044  0.00  0.00    +0.021 C 
ATOM     26  C   UNL     1      35.583 -19.618 -20.889  0.00  0.00    -0.001 C 
ATOM     27  C   UNL     1      34.184 -21.191 -19.703  0.00  0.00    -0.001 C 
ATOM     28  C   UNL     1      34.445 -18.985 -21.392  0.00  0.00    -0.000 C 
ATOM     29  C   UNL     1      33.047 -20.558 -20.206  0.00  0.00    -0.000 C 
ATOM     30  C   UNL     1      33.178 -19.457 -21.050  0.00  0.00    -0.000 C 
ENDBRANCH  24  25
ENDBRANCH  23  24
ENDBRANCH  21  23
ENDBRANCH   1  20
BRANCH   1  31
ATOM     31  C   UNL     1      35.271 -22.909 -14.610  0.00  0.00    +0.055 C 
BRANCH  31  32
ATOM     32  C   UNL     1      36.192 -23.859 -13.883  0.00  0.00    -0.020 C 
ATOM     33  C   UNL     1      36.324 -25.176 -14.324  0.00  0.00    -0.004 C 
ATOM     34  C   UNL     1      36.911 -23.420 -12.773  0.00  0.00    -0.004 C 
ATOM     35  C   UNL     1      37.175 -26.054 -13.653  0.00  0.00    -0.000 C 
ATOM     36  C   UNL     1      37.763 -24.298 -12.101  0.00  0.00    -0.000 C 
ATOM     37  C   UNL     1      37.894 -25.614 -12.541  0.00  0.00    -0.000 C 
ENDBRANCH  31  32
ENDBRANCH   1  31
TORSDOF 13
ENDMDL
MODEL 9
REMARK VINA RESULT:      -9.5      4.204      6.507
REMARK  Name = 5289424
REMARK  13 active torsions:
REMARK  status: ('A' for Active; 'I' for Inactive)
REMARK    1  A    between atoms: C_1  and  C_4
REMARK    2  A    between atoms: C_1  and  N_20
REMARK    3  A    between atoms: C_1  and  C_31
REMARK    4  A    between atoms: N_3  and  C_6
REMARK    5  A    between atoms: C_6  and  C_8
REMARK    6  A    between atoms: C_6  and  C_12
REMARK    7  A    between atoms: C_8  and  C_9
REMARK    8  A    between atoms: C_9  and  O_10
REMARK    9  A    between atoms: C_12  and  C_13
REMARK   10  A    between atoms: C_21  and  O_23
REMARK   11  A    between atoms: O_23  and  C_24
REMARK   12  A    between atoms: C_24  and  C_25
REMARK   13  A    between atoms: C_31  and  C_32
REMARK                            x       y       z     vdW  Elec       q    Type
REMARK                         _______ _______ _______ _____ _____    ______ ____
ROOT
ATOM      1  C   UNL     1      33.374  -8.683 -23.305  0.00  0.00    +0.155 C 
ENDROOT
BRANCH   1   4
ATOM      2  O   UNL     1      35.411  -9.793 -24.006  0.00  0.00    -0.273 OA
ATOM      3  N   UNL     1      33.399 -10.944 -24.154  0.00  0.00    -0.298 N 
ATOM      4  C   UNL     1      34.191  -9.840 -23.870  0.00  0.00    +0.241 C 
ATOM      5  H   UNL     1      32.429 -10.873 -24.008  0.00  0.00    +0.150 HD
BRANCH   3   6
ATOM      6  C   UNL     1      33.930 -12.193 -24.654  0.00  0.00    +0.136 C 
BRANCH   6   8
ATOM      7  O   UNL     1      34.913 -11.227 -26.636  0.00  0.00    -0.292 OA
ATOM      8  C   UNL     1      34.103 -12.020 -26.157  0.00  0.00    +0.198 C 
BRANCH   8   9
ATOM      9  C   UNL     1      33.185 -12.850 -27.033  0.00  0.00    +0.204 C 
BRANCH   9  10
ATOM     10  O   UNL     1      33.929 -13.755 -27.821  0.00  0.00    -0.375 OA
ATOM     11  H   UNL     1      34.072 -14.575 -27.323  0.00  0.00    +0.211 HD
ENDBRANCH   9  10
ENDBRANCH   8   9
ENDBRANCH   6   8
BRANCH   6  12
ATOM     12  C   UNL     1      33.012 -13.382 -24.364  0.00  0.00    +0.054 C 
BRANCH  12  13
ATOM     13  C   UNL     1      33.437 -14.161 -23.143  0.00  0.00    -0.020 C 
ATOM     14  C   UNL     1      32.804 -13.941 -21.920  0.00  0.00    -0.004 C 
ATOM     15  C   UNL     1      34.464 -15.100 -23.238  0.00  0.00    -0.004 C 
ATOM     16  C   UNL     1      33.198 -14.661 -20.792  0.00  0.00    -0.000 C 
ATOM     17  C   UNL     1      34.858 -15.820 -22.110  0.00  0.00    -0.000 C 
ATOM     18  C   UNL     1      34.225 -15.600 -20.887  0.00  0.00    -0.000 C 
ENDBRANCH  12  13
ENDBRANCH   6  12
ENDBRANCH   3   6
ENDBRANCH   1   4
BRANCH   1  20
ATOM     19  O   UNL     1      32.287  -6.002 -23.041  0.00  0.00    -0.226 OA
ATOM     20  N   UNL     1      33.462  -7.598 -24.250  0.00  0.00    -0.264 N 
ATOM     21  C   UNL     1      32.912  -6.348 -24.039  0.00  0.00    +0.402 C 
ATOM     22  H   UNL     1      33.942  -7.756 -25.094  0.00  0.00    +0.153 HD
BRANCH  21  23
ATOM     23  O   UNL     1      33.165  -5.544 -25.114  0.00  0.00    -0.430 OA
BRANCH  23  24
ATOM     24  C   UNL     1      32.298  -4.414 -25.265  0.00  0.00    +0.237 C 
BRANCH  24  25
ATOM     25  C   UNL     1      32.293  -3.990 -26.705  0.00  0.00    +0.021 C 
ATOM     26  C   UNL     1      32.996  -4.733 -27.653  0.00  0.00    -0.001 C 
ATOM     27  C   UNL     1      31.584  -2.854 -27.095  0.00  0.00    -0.001 C 
ATOM     28  C   UNL     1      32.991  -4.340 -28.992  0.00  0.00    -0.000 C 
ATOM     29  C   UNL     1      31.579  -2.460 -28.433  0.00  0.00    -0.000 C 
ATOM     30  C   UNL     1      32.282  -3.204 -29.381  0.00  0.00    -0.000 C 
ENDBRANCH  24  25
ENDBRANCH  23  24
ENDBRANCH  21  23
ENDBRANCH   1  20
BRANCH   1  31
ATOM     31  C   UNL     1      31.926  -9.122 -23.061  0.00  0.00    +0.055 C 
BRANCH  31  32
ATOM     32  C   UNL     1      31.708  -9.668 -21.671  0.00  0.00    -0.020 C 
ATOM     33  C   UNL     1      32.167  -8.955 -20.563  0.00  0.00    -0.004 C 
ATOM     34  C   UNL     1      31.048 -10.883 -21.494  0.00  0.00    -0.004 C 
ATOM     35  C   UNL     1      31.966  -9.460 -19.278  0.00  0.00    -0.000 C 
ATOM     36  C   UNL     1      30.846 -11.388 -20.209  0.00  0.00    -0.000 C 
ATOM     37  C   UNL     1      31.306 -10.676 -19.101  0.00  0.00    -0.000 C 
ENDBRANCH  31  32
ENDBRANCH   1  31
TORSDOF 13
ENDMDL
