MODEL 1
REMARK VINA RESULT:      -7.6      0.000      0.000
REMARK  Name = 444
REMARK  4 active torsions:
REMARK  status: ('A' for Active; 'I' for Inactive)
REMARK    1  A    between atoms: C_1  and  N_3
REMARK    2  A    between atoms: C_1  and  C_11
REMARK    3  A    between atoms: N_3  and  C_6
REMARK    4  A    between atoms: C_11  and  C_13
REMARK                            x       y       z     vdW  Elec       q    Type
REMARK                         _______ _______ _______ _____ _____    ______ ____
ROOT
ATOM      1  C   UNL     1      34.646 -17.384 -22.969  0.00  0.00    +0.002 C 
ATOM      2  C   UNL     1      34.674 -17.742 -24.450  0.00  0.00    -0.016 C 
ENDROOT
BRANCH   1   3
ATOM      3  N   UNL     1      35.188 -16.049 -22.780  0.00  0.00    +0.392 N 
ATOM      4  H   UNL     1      36.058 -16.112 -22.251  0.00  0.00    -0.084 HD
ATOM      5  H   UNL     1      35.360 -15.632 -23.694  0.00  0.00    -0.084 HD
BRANCH   3   6
ATOM      6  C   UNL     1      34.238 -15.206 -22.047  0.00  0.00    -0.045 C 
ATOM      7  C   UNL     1      34.787 -14.964 -20.636  0.00  0.00    -0.021 C 
ATOM      8  C   UNL     1      34.093 -13.874 -22.790  0.00  0.00    -0.021 C 
ATOM      9  C   UNL     1      32.882 -15.917 -21.969  0.00  0.00    -0.021 C 
ENDBRANCH   3   6
ENDBRANCH   1   3
BRANCH   1  11
ATOM     10  O   UNL     1      36.750 -18.332 -22.265  0.00  0.00    -0.294 OA
ATOM     11  C   UNL     1      35.522 -18.348 -22.176  0.00  0.00    +0.153 C 
BRANCH  11  13
ATOM     12 CL   UNL     1      36.058 -22.014 -18.572  0.00  0.00    -0.082 Cl
ATOM     13  C   UNL     1      34.883 -19.355 -21.279  0.00  0.00    +0.033 C 
ATOM     14  C   UNL     1      35.687 -20.110 -20.456  0.00  0.00    +0.014 C 
ATOM     15  C   UNL     1      33.514 -19.489 -21.311  0.00  0.00    +0.003 C 
ATOM     16  C   UNL     1      35.088 -21.050 -19.617  0.00  0.00    +0.058 C 
ATOM     17  C   UNL     1      32.915 -20.430 -20.472  0.00  0.00    +0.001 C 
ATOM     18  C   UNL     1      33.703 -21.210 -19.625  0.00  0.00    +0.011 C 
ENDBRANCH  11  13
ENDBRANCH   1  11
TORSDOF 4
ENDMDL
MODEL 2
REMARK VINA RESULT:      -7.2      4.521      7.513
REMARK  Name = 444
REMARK  4 active torsions:
REMARK  status: ('A' for Active; 'I' for Inactive)
REMARK    1  A    between atoms: C_1  and  N_3
REMARK    2  A    between atoms: C_1  and  C_11
REMARK    3  A    between atoms: N_3  and  C_6
REMARK    4  A    between atoms: C_11  and  C_13
REMARK                            x       y       z     vdW  Elec       q    Type
REMARK                         _______ _______ _______ _____ _____    ______ ____
ROOT
ATOM      1  C   UNL     1      33.485 -22.987 -16.881  0.00  0.00    +0.002 C 
ATOM      2  C   UNL     1      34.814 -23.110 -16.146  0.00  0.00    -0.016 C 
ENDROOT
BRANCH   1   3
ATOM      3  N   UNL     1      32.599 -24.062 -16.469  0.00  0.00    +0.392 N 
ATOM      4  H   UNL     1      32.306 -24.589 -17.292  0.00  0.00    -0.084 HD
ATOM      5  H   UNL     1      33.098 -24.670 -15.820  0.00  0.00    -0.084 HD
BRANCH   3   6
ATOM      6  C   UNL     1      31.413 -23.524 -15.795  0.00  0.00    -0.045 C 
ATOM      7  C   UNL     1      30.717 -22.539 -16.741  0.00  0.00    -0.021 C 
ATOM      8  C   UNL     1      30.472 -24.685 -15.459  0.00  0.00    -0.021 C 
ATOM      9  C   UNL     1      31.841 -22.804 -14.510  0.00  0.00    -0.021 C 
ENDBRANCH   3   6
ENDBRANCH   1   3
BRANCH   1  11
ATOM     10  O   UNL     1      33.733 -24.222 -18.939  0.00  0.00    -0.294 OA
ATOM     11  C   UNL     1      33.699 -23.124 -18.385  0.00  0.00    +0.153 C 
BRANCH  11  13
ATOM     12 CL   UNL     1      36.941 -19.769 -20.609  0.00  0.00    -0.082 Cl
ATOM     13  C   UNL     1      33.892 -21.898 -19.215  0.00  0.00    +0.033 C 
ATOM     14  C   UNL     1      35.175 -21.475 -19.479  0.00  0.00    +0.014 C 
ATOM     15  C   UNL     1      32.779 -21.240 -19.684  0.00  0.00    +0.003 C 
ATOM     16  C   UNL     1      35.353 -20.330 -20.256  0.00  0.00    +0.058 C 
ATOM     17  C   UNL     1      32.957 -20.094 -20.460  0.00  0.00    +0.001 C 
ATOM     18  C   UNL     1      34.246 -19.641 -20.747  0.00  0.00    +0.011 C 
ENDBRANCH  11  13
ENDBRANCH   1  11
TORSDOF 4
ENDMDL
MODEL 3
REMARK VINA RESULT:      -7.1      1.547      1.874
REMARK  Name = 444
REMARK  4 active torsions:
REMARK  status: ('A' for Active; 'I' for Inactive)
REMARK    1  A    between atoms: C_1  and  N_3
REMARK    2  A    between atoms: C_1  and  C_11
REMARK    3  A    between atoms: N_3  and  C_6
REMARK    4  A    between atoms: C_11  and  C_13
REMARK                            x       y       z     vdW  Elec       q    Type
REMARK                         _______ _______ _______ _____ _____    ______ ____
ROOT
ATOM      1  C   UNL     1      34.266 -16.298 -23.015  0.00  0.00    +0.002 C 
ATOM      2  C   UNL     1      35.014 -17.177 -24.010  0.00  0.00    -0.016 C 
ENDROOT
BRANCH   1   3
ATOM      3  N   UNL     1      34.668 -14.912 -23.191  0.00  0.00    +0.392 N 
ATOM      4  H   UNL     1      35.022 -14.551 -22.305  0.00  0.00    -0.084 HD
ATOM      5  H   UNL     1      35.394 -14.868 -23.905  0.00  0.00    -0.084 HD
BRANCH   3   6
ATOM      6  C   UNL     1      33.529 -14.096 -23.623  0.00  0.00    -0.045 C 
ATOM      7  C   UNL     1      32.439 -14.168 -22.548  0.00  0.00    -0.021 C 
ATOM      8  C   UNL     1      34.003 -12.649 -23.795  0.00  0.00    -0.021 C 
ATOM      9  C   UNL     1      32.992 -14.636 -24.954  0.00  0.00    -0.021 C 
ENDBRANCH   3   6
ENDBRANCH   1   3
BRANCH   1  11
ATOM     10  O   UNL     1      35.084 -15.890 -20.783  0.00  0.00    -0.294 OA
ATOM     11  C   UNL     1      34.619 -16.698 -21.587  0.00  0.00    +0.153 C 
BRANCH  11  13
ATOM     12 CL   UNL     1      36.694 -21.191 -20.097  0.00  0.00    -0.082 Cl
ATOM     13  C   UNL     1      34.418 -18.110 -21.147  0.00  0.00    +0.033 C 
ATOM     14  C   UNL     1      35.525 -18.878 -20.868  0.00  0.00    +0.014 C 
ATOM     15  C   UNL     1      33.132 -18.588 -21.038  0.00  0.00    +0.003 C 
ATOM     16  C   UNL     1      35.335 -20.198 -20.456  0.00  0.00    +0.058 C 
ATOM     17  C   UNL     1      32.943 -19.907 -20.626  0.00  0.00    +0.001 C 
ATOM     18  C   UNL     1      34.045 -20.712 -20.335  0.00  0.00    +0.011 C 
ENDBRANCH  11  13
ENDBRANCH   1  11
TORSDOF 4
ENDMDL
MODEL 4
REMARK VINA RESULT:      -7.0      3.101      5.832
REMARK  Name = 444
REMARK  4 active torsions:
REMARK  status: ('A' for Active; 'I' for Inactive)
REMARK    1  A    between atoms: C_1  and  N_3
REMARK    2  A    between atoms: C_1  and  C_11
REMARK    3  A    between atoms: N_3  and  C_6
REMARK    4  A    between atoms: C_11  and  C_13
REMARK                            x       y       z     vdW  Elec       q    Type
REMARK                         _______ _______ _______ _____ _____    ______ ____
ROOT
ATOM      1  C   UNL     1      34.377 -20.114 -20.780  0.00  0.00    +0.002 C 
ATOM      2  C   UNL     1      32.877 -19.851 -20.825  0.00  0.00    -0.016 C 
ENDROOT
BRANCH   1   3
ATOM      3  N   UNL     1      34.779 -20.403 -19.413  0.00  0.00    +0.392 N 
ATOM      4  H   UNL     1      35.456 -19.704 -19.108  0.00  0.00    -0.084 HD
ATOM      5  H   UNL     1      33.954 -20.379 -18.815  0.00  0.00    -0.084 HD
BRANCH   3   6
ATOM      6  C   UNL     1      35.388 -21.734 -19.325  0.00  0.00    -0.045 C 
ATOM      7  C   UNL     1      36.339 -21.916 -20.514  0.00  0.00    -0.021 C 
ATOM      8  C   UNL     1      36.168 -21.828 -18.009  0.00  0.00    -0.021 C 
ATOM      9  C   UNL     1      34.287 -22.801 -19.363  0.00  0.00    -0.021 C 
ENDBRANCH   3   6
ENDBRANCH   1   3
BRANCH   1  11
ATOM     10  O   UNL     1      35.988 -18.339 -20.511  0.00  0.00    -0.294 OA
ATOM     11  C   UNL     1      35.145 -18.876 -21.229  0.00  0.00    +0.153 C 
BRANCH  11  13
ATOM     12 CL   UNL     1      34.053 -14.682 -24.046  0.00  0.00    -0.082 Cl
ATOM     13  C   UNL     1      34.860 -18.279 -22.567  0.00  0.00    +0.033 C 
ATOM     14  C   UNL     1      34.621 -16.927 -22.649  0.00  0.00    +0.014 C 
ATOM     15  C   UNL     1      34.849 -19.106 -23.667  0.00  0.00    +0.003 C 
ATOM     16  C   UNL     1      34.357 -16.370 -23.901  0.00  0.00    +0.058 C 
ATOM     17  C   UNL     1      34.584 -18.549 -24.918  0.00  0.00    +0.001 C 
ATOM     18  C   UNL     1      34.339 -17.180 -25.035  0.00  0.00    +0.011 C 
ENDBRANCH  11  13
ENDBRANCH   1  11
TORSDOF 4
ENDMDL
MODEL 5
REMARK VINA RESULT:      -7.0      1.883      2.655
REMARK  Name = 444
REMARK  4 active torsions:
REMARK  status: ('A' for Active; 'I' for Inactive)
REMARK    1  A    between atoms: C_1  and  N_3
REMARK    2  A    between atoms: C_1  and  C_11
REMARK    3  A    between atoms: N_3  and  C_6
REMARK    4  A    between atoms: C_11  and  C_13
REMARK                            x       y       z     vdW  Elec       q    Type
REMARK                         _______ _______ _______ _____ _____    ______ ____
ROOT
ATOM      1  C   UNL     1      34.250 -16.005 -23.045  0.00  0.00    +0.002 C 
ATOM      2  C   UNL     1      34.929 -16.907 -24.069  0.00  0.00    -0.016 C 
ENDROOT
BRANCH   1   3
ATOM      3  N   UNL     1      34.617 -14.621 -23.296  0.00  0.00    +0.392 N 
ATOM      4  H   UNL     1      35.013 -14.220 -22.446  0.00  0.00    -0.084 HD
ATOM      5  H   UNL     1      35.302 -14.594 -24.051  0.00  0.00    -0.084 HD
BRANCH   3   6
ATOM      6  C   UNL     1      33.443 -13.840 -23.696  0.00  0.00    -0.045 C 
ATOM      7  C   UNL     1      33.872 -12.384 -23.910  0.00  0.00    -0.021 C 
ATOM      8  C   UNL     1      32.889 -14.422 -25.001  0.00  0.00    -0.021 C 
ATOM      9  C   UNL     1      32.380 -13.918 -22.592  0.00  0.00    -0.021 C 
ENDBRANCH   3   6
ENDBRANCH   1   3
BRANCH   1  11
ATOM     10  O   UNL     1      34.957 -15.485 -20.798  0.00  0.00    -0.294 OA
ATOM     11  C   UNL     1      34.722 -16.354 -21.638  0.00  0.00    +0.153 C 
BRANCH  11  13
ATOM     12 CL   UNL     1      32.653 -20.915 -20.361  0.00  0.00    -0.082 Cl
ATOM     13  C   UNL     1      34.925 -17.784 -21.264  0.00  0.00    +0.033 C 
ATOM     14  C   UNL     1      33.819 -18.566 -21.021  0.00  0.00    +0.014 C 
ATOM     15  C   UNL     1      36.211 -18.265 -21.177  0.00  0.00    +0.003 C 
ATOM     16  C   UNL     1      34.010 -19.903 -20.672  0.00  0.00    +0.058 C 
ATOM     17  C   UNL     1      36.403 -19.602 -20.827  0.00  0.00    +0.001 C 
ATOM     18  C   UNL     1      35.301 -20.421 -20.576  0.00  0.00    +0.011 C 
ENDBRANCH  11  13
ENDBRANCH   1  11
TORSDOF 4
ENDMDL
MODEL 6
REMARK VINA RESULT:      -6.8      1.572      2.306
REMARK  Name = 444
REMARK  4 active torsions:
REMARK  status: ('A' for Active; 'I' for Inactive)
REMARK    1  A    between atoms: C_1  and  N_3
REMARK    2  A    between atoms: C_1  and  C_11
REMARK    3  A    between atoms: N_3  and  C_6
REMARK    4  A    between atoms: C_11  and  C_13
REMARK                            x       y       z     vdW  Elec       q    Type
REMARK                         _______ _______ _______ _____ _____    ______ ____
ROOT
ATOM      1  C   UNL     1      33.916 -16.252 -23.766  0.00  0.00    +0.002 C 
ATOM      2  C   UNL     1      33.743 -15.566 -25.116  0.00  0.00    -0.016 C 
ENDROOT
BRANCH   1   3
ATOM      3  N   UNL     1      34.712 -15.408 -22.890  0.00  0.00    +0.392 N 
ATOM      4  H   UNL     1      35.462 -15.965 -22.480  0.00  0.00    -0.084 HD
ATOM      5  H   UNL     1      35.101 -14.641 -23.437  0.00  0.00    -0.084 HD
BRANCH   3   6
ATOM      6  C   UNL     1      33.882 -14.851 -21.817  0.00  0.00    -0.045 C 
ATOM      7  C   UNL     1      34.714 -14.805 -20.530  0.00  0.00    -0.021 C 
ATOM      8  C   UNL     1      33.452 -13.436 -22.216  0.00  0.00    -0.021 C 
ATOM      9  C   UNL     1      32.648 -15.739 -21.615  0.00  0.00    -0.021 C 
ENDBRANCH   3   6
ENDBRANCH   1   3
BRANCH   1  11
ATOM     10  O   UNL     1      34.961 -18.010 -25.045  0.00  0.00    -0.294 OA
ATOM     11  C   UNL     1      34.665 -17.569 -23.935  0.00  0.00    +0.153 C 
BRANCH  11  13
ATOM     12 CL   UNL     1      33.223 -20.767 -20.139  0.00  0.00    -0.082 Cl
ATOM     13  C   UNL     1      35.039 -18.362 -22.728  0.00  0.00    +0.033 C 
ATOM     14  C   UNL     1      34.063 -19.094 -22.091  0.00  0.00    +0.014 C 
ATOM     15  C   UNL     1      36.346 -18.331 -22.299  0.00  0.00    +0.003 C 
ATOM     16  C   UNL     1      34.414 -19.837 -20.963  0.00  0.00    +0.058 C 
ATOM     17  C   UNL     1      36.697 -19.073 -21.170  0.00  0.00    +0.001 C 
ATOM     18  C   UNL     1      35.730 -19.827 -20.503  0.00  0.00    +0.011 C 
ENDBRANCH  11  13
ENDBRANCH   1  11
TORSDOF 4
ENDMDL
MODEL 7
REMARK VINA RESULT:      -6.8      3.749      6.465
REMARK  Name = 444
REMARK  4 active torsions:
REMARK  status: ('A' for Active; 'I' for Inactive)
REMARK    1  A    between atoms: C_1  and  N_3
REMARK    2  A    between atoms: C_1  and  C_11
REMARK    3  A    between atoms: N_3  and  C_6
REMARK    4  A    between atoms: C_11  and  C_13
REMARK                            x       y       z     vdW  Elec       q    Type
REMARK                         _______ _______ _______ _____ _____    ______ ____
ROOT
ATOM      1  C   UNL     1      33.798 -16.566 -21.524  0.00  0.00    +0.002 C 
ATOM      2  C   UNL     1      32.552 -16.419 -20.660  0.00  0.00    -0.016 C 
ENDROOT
BRANCH   1   3
ATOM      3  N   UNL     1      34.824 -17.279 -20.782  0.00  0.00    +0.392 N 
ATOM      4  H   UNL     1      35.693 -16.746 -20.813  0.00  0.00    -0.084 HD
ATOM      5  H   UNL     1      34.514 -17.392 -19.817  0.00  0.00    -0.084 HD
BRANCH   3   6
ATOM      6  C   UNL     1      35.053 -18.606 -21.363  0.00  0.00    -0.045 C 
ATOM      7  C   UNL     1      36.420 -19.117 -20.894  0.00  0.00    -0.021 C 
ATOM      8  C   UNL     1      33.946 -19.549 -20.880  0.00  0.00    -0.021 C 
ATOM      9  C   UNL     1      35.026 -18.503 -22.893  0.00  0.00    -0.021 C 
ENDBRANCH   3   6
ENDBRANCH   1   3
BRANCH   1  11
ATOM     10  O   UNL     1      35.106 -14.581 -21.110  0.00  0.00    -0.294 OA
ATOM     11  C   UNL     1      34.362 -15.193 -21.876  0.00  0.00    +0.153 C 
BRANCH  11  13
ATOM     12 CL   UNL     1      33.674 -10.878 -24.636  0.00  0.00    -0.082 Cl
ATOM     13  C   UNL     1      33.993 -14.558 -23.175  0.00  0.00    +0.033 C 
ATOM     14  C   UNL     1      34.009 -13.185 -23.266  0.00  0.00    +0.014 C 
ATOM     15  C   UNL     1      33.651 -15.370 -24.231  0.00  0.00    +0.003 C 
ATOM     16  C   UNL     1      33.665 -12.591 -24.481  0.00  0.00    +0.058 C 
ATOM     17  C   UNL     1      33.306 -14.777 -25.446  0.00  0.00    +0.001 C 
ATOM     18  C   UNL     1      33.314 -13.387 -25.570  0.00  0.00    +0.011 C 
ENDBRANCH  11  13
ENDBRANCH   1  11
TORSDOF 4
ENDMDL
MODEL 8
REMARK VINA RESULT:      -6.8      3.716      6.585
REMARK  Name = 444
REMARK  4 active torsions:
REMARK  status: ('A' for Active; 'I' for Inactive)
REMARK    1  A    between atoms: C_1  and  N_3
REMARK    2  A    between atoms: C_1  and  C_11
REMARK    3  A    between atoms: N_3  and  C_6
REMARK    4  A    between atoms: C_11  and  C_13
REMARK                            x       y       z     vdW  Elec       q    Type
REMARK                         _______ _______ _______ _____ _____    ______ ____
ROOT
ATOM      1  C   UNL     1      34.232 -16.321 -21.726  0.00  0.00    +0.002 C 
ATOM      2  C   UNL     1      34.619 -15.337 -20.629  0.00  0.00    -0.016 C 
ENDROOT
BRANCH   1   3
ATOM      3  N   UNL     1      35.374 -17.159 -22.053  0.00  0.00    +0.392 N 
ATOM      4  H   UNL     1      35.618 -17.024 -23.034  0.00  0.00    -0.084 HD
ATOM      5  H   UNL     1      36.156 -16.897 -21.455  0.00  0.00    -0.084 HD
BRANCH   3   6
ATOM      6  C   UNL     1      35.057 -18.573 -21.827  0.00  0.00    -0.045 C 
ATOM      7  C   UNL     1      36.188 -19.202 -21.006  0.00  0.00    -0.021 C 
ATOM      8  C   UNL     1      33.736 -18.660 -21.055  0.00  0.00    -0.021 C 
ATOM      9  C   UNL     1      34.926 -19.288 -23.177  0.00  0.00    -0.021 C 
ENDBRANCH   3   6
ENDBRANCH   1   3
BRANCH   1  11
ATOM     10  O   UNL     1      33.942 -16.081 -24.109  0.00  0.00    -0.294 OA
ATOM     11  C   UNL     1      33.839 -15.570 -22.994  0.00  0.00    +0.153 C 
BRANCH  11  13
ATOM     12 CL   UNL     1      34.101 -10.660 -24.585  0.00  0.00    -0.082 Cl
ATOM     13  C   UNL     1      33.333 -14.170 -22.893  0.00  0.00    +0.033 C 
ATOM     14  C   UNL     1      33.897 -13.205 -23.694  0.00  0.00    +0.014 C 
ATOM     15  C   UNL     1      32.319 -13.900 -22.002  0.00  0.00    +0.003 C 
ATOM     16  C   UNL     1      33.421 -11.896 -23.600  0.00  0.00    +0.058 C 
ATOM     17  C   UNL     1      31.844 -12.592 -21.907  0.00  0.00    +0.001 C 
ATOM     18  C   UNL     1      32.396 -11.590 -22.707  0.00  0.00    +0.011 C 
ENDBRANCH  11  13
ENDBRANCH   1  11
TORSDOF 4
ENDMDL
MODEL 9
REMARK VINA RESULT:      -6.7      6.080      9.398
REMARK  Name = 444
REMARK  4 active torsions:
REMARK  status: ('A' for Active; 'I' for Inactive)
REMARK    1  A    between atoms: C_1  and  N_3
REMARK    2  A    between atoms: C_1  and  C_11
REMARK    3  A    between atoms: N_3  and  C_6
REMARK    4  A    between atoms: C_11  and  C_13
REMARK                            x       y       z     vdW  Elec       q    Type
REMARK                         _______ _______ _______ _____ _____    ______ ____
ROOT
ATOM      1  C   UNL     1      36.387 -23.907 -14.859  0.00  0.00    +0.002 C 
ATOM      2  C   UNL     1      35.329 -23.472 -13.853  0.00  0.00    -0.016 C 
ENDROOT
BRANCH   1   3
ATOM      3  N   UNL     1      37.633 -24.189 -14.164  0.00  0.00    +0.392 N 
ATOM      4  H   UNL     1      38.401 -23.731 -14.654  0.00  0.00    -0.084 HD
ATOM      5  H   UNL     1      37.564 -23.837 -13.210  0.00  0.00    -0.084 HD
BRANCH   3   6
ATOM      6  C   UNL     1      37.882 -25.633 -14.119  0.00  0.00    -0.045 C 
ATOM      7  C   UNL     1      37.575 -26.139 -12.705  0.00  0.00    -0.021 C 
ATOM      8  C   UNL     1      36.963 -26.320 -15.134  0.00  0.00    -0.021 C 
ATOM      9  C   UNL     1      39.350 -25.907 -14.468  0.00  0.00    -0.021 C 
ENDBRANCH   3   6
ENDBRANCH   1   3
BRANCH   1  11
ATOM     10  O   UNL     1      37.637 -22.039 -15.737  0.00  0.00    -0.294 OA
ATOM     11  C   UNL     1      36.664 -22.784 -15.853  0.00  0.00    +0.153 C 
BRANCH  11  13
ATOM     12 CL   UNL     1      35.802 -20.748 -20.525  0.00  0.00    -0.082 Cl
ATOM     13  C   UNL     1      35.726 -22.563 -16.992  0.00  0.00    +0.033 C 
ATOM     14  C   UNL     1      36.167 -21.845 -18.080  0.00  0.00    +0.014 C 
ATOM     15  C   UNL     1      34.456 -23.085 -16.909  0.00  0.00    +0.003 C 
ATOM     16  C   UNL     1      35.289 -21.640 -19.145  0.00  0.00    +0.058 C 
ATOM     17  C   UNL     1      33.577 -22.879 -17.974  0.00  0.00    +0.001 C 
ATOM     18  C   UNL     1      33.995 -22.157 -19.092  0.00  0.00    +0.011 C 
ENDBRANCH  11  13
ENDBRANCH   1  11
TORSDOF 4
ENDMDL
