MODEL 1
REMARK VINA RESULT:      -7.1      0.000      0.000
REMARK  Name = 128878
REMARK  6 active torsions:
REMARK  status: ('A' for Active; 'I' for Inactive)
REMARK    1  A    between atoms: C_7  and  C_13
REMARK    2  A    between atoms: C_13  and  C_14
REMARK    3  A    between atoms: C_14  and  C_15
REMARK    4  A    between atoms: C_15  and  C_16
REMARK    5  A    between atoms: C_16  and  C_18
REMARK    6  A    between atoms: C_18  and  O_19
REMARK                            x       y       z     vdW  Elec       q    Type
REMARK                         _______ _______ _______ _____ _____    ______ ____
ROOT
ATOM      1  S   UNL     1      32.747 -15.438 -21.531  0.00  0.00    -0.137 S 
ATOM      2  N   UNL     1      32.973 -13.563 -24.374  0.00  0.00    -0.306 N 
ATOM      3  N   UNL     1      34.081 -15.533 -24.565  0.00  0.00    -0.243 NA
ATOM      4  N   UNL     1      32.490 -14.883 -26.227  0.00  0.00    -0.331 N 
ATOM      5  C   UNL     1      34.581 -14.841 -23.328  0.00  0.00    +0.134 C 
ATOM      6  C   UNL     1      33.728 -13.557 -23.149  0.00  0.00    +0.105 C 
ATOM      7  C   UNL     1      34.447 -15.724 -22.086  0.00  0.00    +0.072 C 
ATOM      8  C   UNL     1      32.806 -13.676 -21.940  0.00  0.00    +0.079 C 
ATOM      9  C   UNL     1      33.204 -14.705 -25.079  0.00  0.00    +0.174 C 
ATOM     10  H   UNL     1      32.372 -12.839 -24.664  0.00  0.00    +0.149 HD
ATOM     11  H   UNL     1      31.854 -14.192 -26.522  0.00  0.00    +0.145 HD
ATOM     12  H   UNL     1      32.612 -15.701 -26.761  0.00  0.00    +0.145 HD
ENDROOT
BRANCH   7  13
ATOM     13  C   UNL     1      34.738 -17.200 -22.299  0.00  0.00    +0.013 C 
BRANCH  13  14
ATOM     14  C   UNL     1      34.345 -18.080 -21.110  0.00  0.00    +0.002 C 
BRANCH  14  15
ATOM     15  C   UNL     1      34.039 -19.544 -21.440  0.00  0.00    +0.012 C 
BRANCH  15  16
ATOM     16  C   UNL     1      32.915 -20.136 -20.592  0.00  0.00    +0.109 C 
BRANCH  16  18
ATOM     17  O   UNL     1      32.714 -21.952 -18.982  0.00  0.00    -0.250 OA
ATOM     18  C   UNL     1      33.417 -21.227 -19.672  0.00  0.00    +0.314 C 
BRANCH  18  19
ATOM     19  O   UNL     1      34.772 -21.309 -19.694  0.00  0.00    -0.480 OA
ATOM     20  H   UNL     1      35.202 -22.064 -19.341  0.00  0.00    +0.295 HD
ENDBRANCH  18  19
ENDBRANCH  16  18
ENDBRANCH  15  16
ENDBRANCH  14  15
ENDBRANCH  13  14
ENDBRANCH   7  13
TORSDOF 6
ENDMDL
MODEL 2
REMARK VINA RESULT:      -7.1      9.723     10.830
REMARK  Name = 128878
REMARK  6 active torsions:
REMARK  status: ('A' for Active; 'I' for Inactive)
REMARK    1  A    between atoms: C_7  and  C_13
REMARK    2  A    between atoms: C_13  and  C_14
REMARK    3  A    between atoms: C_14  and  C_15
REMARK    4  A    between atoms: C_15  and  C_16
REMARK    5  A    between atoms: C_16  and  C_18
REMARK    6  A    between atoms: C_18  and  O_19
REMARK                            x       y       z     vdW  Elec       q    Type
REMARK                         _______ _______ _______ _____ _____    ______ ____
ROOT
ATOM      1  S   UNL     1      34.827 -23.946 -13.017  0.00  0.00    -0.137 S 
ATOM      2  N   UNL     1      37.157 -23.754 -15.503  0.00  0.00    -0.306 N 
ATOM      3  N   UNL     1      35.203 -22.762 -16.091  0.00  0.00    -0.243 NA
ATOM      4  N   UNL     1      37.267 -21.577 -16.311  0.00  0.00    -0.331 N 
ATOM      5  C   UNL     1      34.893 -24.163 -15.643  0.00  0.00    +0.134 C 
ATOM      6  C   UNL     1      36.220 -24.783 -15.132  0.00  0.00    +0.105 C 
ATOM      7  C   UNL     1      33.850 -24.187 -14.524  0.00  0.00    +0.072 C 
ATOM      8  C   UNL     1      36.191 -24.971 -13.619  0.00  0.00    +0.079 C 
ATOM      9  C   UNL     1      36.506 -22.663 -15.993  0.00  0.00    +0.174 C 
ATOM     10  H   UNL     1      38.135 -23.830 -15.416  0.00  0.00    +0.149 HD
ATOM     11  H   UNL     1      38.244 -21.611 -16.198  0.00  0.00    +0.145 HD
ATOM     12  H   UNL     1      36.839 -20.758 -16.653  0.00  0.00    +0.145 HD
ENDROOT
BRANCH   7  13
ATOM     13  C   UNL     1      32.732 -23.166 -14.650  0.00  0.00    +0.013 C 
BRANCH  13  14
ATOM     14  C   UNL     1      31.618 -23.592 -15.609  0.00  0.00    +0.002 C 
BRANCH  14  15
ATOM     15  C   UNL     1      30.202 -23.162 -15.214  0.00  0.00    +0.012 C 
BRANCH  15  16
ATOM     16  C   UNL     1      29.109 -24.043 -15.817  0.00  0.00    +0.109 C 
BRANCH  16  18
ATOM     17  O   UNL     1      27.559 -23.859 -17.685  0.00  0.00    -0.250 OA
ATOM     18  C   UNL     1      28.365 -23.338 -16.928  0.00  0.00    +0.314 C 
BRANCH  18  19
ATOM     19  O   UNL     1      28.705 -22.025 -16.997  0.00  0.00    -0.480 OA
ATOM     20  H   UNL     1      28.039 -21.371 -17.082  0.00  0.00    +0.295 HD
ENDBRANCH  18  19
ENDBRANCH  16  18
ENDBRANCH  15  16
ENDBRANCH  14  15
ENDBRANCH  13  14
ENDBRANCH   7  13
TORSDOF 6
ENDMDL
MODEL 3
REMARK VINA RESULT:      -7.0      1.105      1.436
REMARK  Name = 128878
REMARK  6 active torsions:
REMARK  status: ('A' for Active; 'I' for Inactive)
REMARK    1  A    between atoms: C_7  and  C_13
REMARK    2  A    between atoms: C_13  and  C_14
REMARK    3  A    between atoms: C_14  and  C_15
REMARK    4  A    between atoms: C_15  and  C_16
REMARK    5  A    between atoms: C_16  and  C_18
REMARK    6  A    between atoms: C_18  and  O_19
REMARK                            x       y       z     vdW  Elec       q    Type
REMARK                         _______ _______ _______ _____ _____    ______ ____
ROOT
ATOM      1  S   UNL     1      32.709 -15.887 -21.031  0.00  0.00    -0.137 S 
ATOM      2  N   UNL     1      33.840 -14.288 -23.825  0.00  0.00    -0.306 N 
ATOM      3  N   UNL     1      34.423 -16.481 -23.806  0.00  0.00    -0.243 NA
ATOM      4  N   UNL     1      33.326 -15.545 -25.713  0.00  0.00    -0.331 N 
ATOM      5  C   UNL     1      34.887 -15.869 -22.514  0.00  0.00    +0.134 C 
ATOM      6  C   UNL     1      34.375 -14.404 -22.494  0.00  0.00    +0.105 C 
ATOM      7  C   UNL     1      34.344 -16.621 -21.298  0.00  0.00    +0.072 C 
ATOM      8  C   UNL     1      33.278 -14.222 -21.449  0.00  0.00    +0.079 C 
ATOM      9  C   UNL     1      33.876 -15.489 -24.467  0.00  0.00    +0.174 C 
ATOM     10  H   UNL     1      33.496 -13.454 -24.219  0.00  0.00    +0.149 HD
ATOM     11  H   UNL     1      32.941 -14.734 -26.117  0.00  0.00    +0.145 HD
ATOM     12  H   UNL     1      33.314 -16.396 -26.208  0.00  0.00    +0.145 HD
ENDROOT
BRANCH   7  13
ATOM     13  C   UNL     1      34.276 -18.132 -21.441  0.00  0.00    +0.013 C 
BRANCH  13  14
ATOM     14  C   UNL     1      35.585 -18.840 -21.082  0.00  0.00    +0.002 C 
BRANCH  14  15
ATOM     15  C   UNL     1      35.446 -20.292 -20.616  0.00  0.00    +0.012 C 
BRANCH  15  16
ATOM     16  C   UNL     1      34.039 -20.645 -20.137  0.00  0.00    +0.109 C 
BRANCH  16  18
ATOM     17  O   UNL     1      35.020 -22.518 -18.929  0.00  0.00    -0.250 OA
ATOM     18  C   UNL     1      34.030 -21.890 -19.279  0.00  0.00    +0.314 C 
BRANCH  18  19
ATOM     19  O   UNL     1      32.766 -22.247 -18.935  0.00  0.00    -0.480 OA
ATOM     20  H   UNL     1      32.043 -21.697 -19.167  0.00  0.00    +0.295 HD
ENDBRANCH  18  19
ENDBRANCH  16  18
ENDBRANCH  15  16
ENDBRANCH  14  15
ENDBRANCH  13  14
ENDBRANCH   7  13
TORSDOF 6
ENDMDL
MODEL 4
REMARK VINA RESULT:      -7.0      2.532      3.087
REMARK  Name = 128878
REMARK  6 active torsions:
REMARK  status: ('A' for Active; 'I' for Inactive)
REMARK    1  A    between atoms: C_7  and  C_13
REMARK    2  A    between atoms: C_13  and  C_14
REMARK    3  A    between atoms: C_14  and  C_15
REMARK    4  A    between atoms: C_15  and  C_16
REMARK    5  A    between atoms: C_16  and  C_18
REMARK    6  A    between atoms: C_18  and  O_19
REMARK                            x       y       z     vdW  Elec       q    Type
REMARK                         _______ _______ _______ _____ _____    ______ ____
ROOT
ATOM      1  S   UNL     1      32.124 -12.975 -22.120  0.00  0.00    -0.137 S 
ATOM      2  N   UNL     1      33.317 -13.118 -25.314  0.00  0.00    -0.306 N 
ATOM      3  N   UNL     1      33.506 -15.111 -24.246  0.00  0.00    -0.243 NA
ATOM      4  N   UNL     1      32.457 -14.991 -26.391  0.00  0.00    -0.331 N 
ATOM      5  C   UNL     1      34.161 -14.065 -23.389  0.00  0.00    +0.134 C 
ATOM      6  C   UNL     1      33.916 -12.695 -24.076  0.00  0.00    +0.105 C 
ATOM      7  C   UNL     1      33.582 -14.041 -21.974  0.00  0.00    +0.072 C 
ATOM      8  C   UNL     1      32.946 -11.841 -23.266  0.00  0.00    +0.079 C 
ATOM      9  C   UNL     1      33.096 -14.462 -25.309  0.00  0.00    +0.174 C 
ATOM     10  H   UNL     1      33.098 -12.519 -26.064  0.00  0.00    +0.149 HD
ATOM     11  H   UNL     1      32.193 -14.408 -27.139  0.00  0.00    +0.145 HD
ATOM     12  H   UNL     1      32.261 -15.956 -26.424  0.00  0.00    +0.145 HD
ENDROOT
BRANCH   7  13
ATOM     13  C   UNL     1      33.240 -15.399 -21.384  0.00  0.00    +0.013 C 
BRANCH  13  14
ATOM     14  C   UNL     1      34.464 -16.183 -20.904  0.00  0.00    +0.002 C 
BRANCH  14  15
ATOM     15  C   UNL     1      34.513 -17.656 -21.322  0.00  0.00    +0.012 C 
BRANCH  15  16
ATOM     16  C   UNL     1      35.719 -17.998 -22.197  0.00  0.00    +0.109 C 
BRANCH  16  18
ATOM     17  O   UNL     1      34.938 -19.415 -24.016  0.00  0.00    -0.250 OA
ATOM     18  C   UNL     1      35.312 -18.321 -23.617  0.00  0.00    +0.314 C 
BRANCH  18  19
ATOM     19  O   UNL     1      35.417 -17.234 -24.424  0.00  0.00    -0.480 OA
ATOM     20  H   UNL     1      36.262 -16.889 -24.638  0.00  0.00    +0.295 HD
ENDBRANCH  18  19
ENDBRANCH  16  18
ENDBRANCH  15  16
ENDBRANCH  14  15
ENDBRANCH  13  14
ENDBRANCH   7  13
TORSDOF 6
ENDMDL
MODEL 5
REMARK VINA RESULT:      -6.9      9.935     11.078
REMARK  Name = 128878
REMARK  6 active torsions:
REMARK  status: ('A' for Active; 'I' for Inactive)
REMARK    1  A    between atoms: C_7  and  C_13
REMARK    2  A    between atoms: C_13  and  C_14
REMARK    3  A    between atoms: C_14  and  C_15
REMARK    4  A    between atoms: C_15  and  C_16
REMARK    5  A    between atoms: C_16  and  C_18
REMARK    6  A    between atoms: C_18  and  O_19
REMARK                            x       y       z     vdW  Elec       q    Type
REMARK                         _______ _______ _______ _____ _____    ______ ____
ROOT
ATOM      1  S   UNL     1      34.227 -23.067 -16.836  0.00  0.00    -0.137 S 
ATOM      2  N   UNL     1      36.911 -24.617 -15.407  0.00  0.00    -0.306 N 
ATOM      3  N   UNL     1      34.961 -25.188 -14.396  0.00  0.00    -0.243 NA
ATOM      4  N   UNL     1      36.464 -26.885 -15.153  0.00  0.00    -0.331 N 
ATOM      5  C   UNL     1      35.051 -23.688 -14.411  0.00  0.00    +0.134 C 
ATOM      6  C   UNL     1      36.328 -23.316 -15.211  0.00  0.00    +0.105 C 
ATOM      7  C   UNL     1      33.827 -23.049 -15.069  0.00  0.00    +0.072 C 
ATOM      8  C   UNL     1      35.969 -22.674 -16.547  0.00  0.00    +0.079 C 
ATOM      9  C   UNL     1      36.074 -25.594 -14.957  0.00  0.00    +0.174 C 
ATOM     10  H   UNL     1      37.794 -24.780 -15.810  0.00  0.00    +0.149 HD
ATOM     11  H   UNL     1      37.327 -27.078 -15.587  0.00  0.00    +0.145 HD
ATOM     12  H   UNL     1      35.884 -27.625 -14.859  0.00  0.00    +0.145 HD
ENDROOT
BRANCH   7  13
ATOM     13  C   UNL     1      32.499 -23.726 -14.776  0.00  0.00    +0.013 C 
BRANCH  13  14
ATOM     14  C   UNL     1      31.291 -22.797 -14.929  0.00  0.00    +0.002 C 
BRANCH  14  15
ATOM     15  C   UNL     1      30.319 -23.155 -16.057  0.00  0.00    +0.012 C 
BRANCH  15  16
ATOM     16  C   UNL     1      28.854 -22.909 -15.697  0.00  0.00    +0.109 C 
BRANCH  16  18
ATOM     17  O   UNL     1      27.700 -23.801 -17.647  0.00  0.00    -0.250 OA
ATOM     18  C   UNL     1      27.974 -22.852 -16.925  0.00  0.00    +0.314 C 
BRANCH  18  19
ATOM     19  O   UNL     1      27.513 -21.595 -17.148  0.00  0.00    -0.480 OA
ATOM     20  H   UNL     1      26.807 -21.255 -16.633  0.00  0.00    +0.295 HD
ENDBRANCH  18  19
ENDBRANCH  16  18
ENDBRANCH  15  16
ENDBRANCH  14  15
ENDBRANCH  13  14
ENDBRANCH   7  13
TORSDOF 6
ENDMDL
MODEL 6
REMARK VINA RESULT:      -6.8      9.300     11.805
REMARK  Name = 128878
REMARK  6 active torsions:
REMARK  status: ('A' for Active; 'I' for Inactive)
REMARK    1  A    between atoms: C_7  and  C_13
REMARK    2  A    between atoms: C_13  and  C_14
REMARK    3  A    between atoms: C_14  and  C_15
REMARK    4  A    between atoms: C_15  and  C_16
REMARK    5  A    between atoms: C_16  and  C_18
REMARK    6  A    between atoms: C_18  and  O_19
REMARK                            x       y       z     vdW  Elec       q    Type
REMARK                         _______ _______ _______ _____ _____    ______ ____
ROOT
ATOM      1  S   UNL     1      35.960 -25.375 -14.939  0.00  0.00    -0.137 S 
ATOM      2  N   UNL     1      37.880 -25.121 -12.128  0.00  0.00    -0.306 N 
ATOM      3  N   UNL     1      37.434 -23.091 -13.040  0.00  0.00    -0.243 NA
ATOM      4  N   UNL     1      37.003 -23.489 -10.722  0.00  0.00    -0.331 N 
ATOM      5  C   UNL     1      38.026 -23.960 -14.114  0.00  0.00    +0.134 C 
ATOM      6  C   UNL     1      38.210 -25.375 -13.506  0.00  0.00    +0.105 C 
ATOM      7  C   UNL     1      37.120 -24.043 -15.344  0.00  0.00    +0.072 C 
ATOM      8  C   UNL     1      37.233 -26.369 -14.125  0.00  0.00    +0.079 C 
ATOM      9  C   UNL     1      37.430 -23.845 -11.967  0.00  0.00    +0.174 C 
ATOM     10  H   UNL     1      37.967 -25.778 -11.401  0.00  0.00    +0.149 HD
ATOM     11  H   UNL     1      37.044 -24.139  -9.984  0.00  0.00    +0.145 HD
ATOM     12  H   UNL     1      36.653 -22.583 -10.562  0.00  0.00    +0.145 HD
ENDROOT
BRANCH   7  13
ATOM     13  C   UNL     1      36.405 -22.756 -15.718  0.00  0.00    +0.013 C 
BRANCH  13  14
ATOM     14  C   UNL     1      36.959 -22.092 -16.981  0.00  0.00    +0.002 C 
BRANCH  14  15
ATOM     15  C   UNL     1      35.956 -21.899 -18.122  0.00  0.00    +0.012 C 
BRANCH  15  16
ATOM     16  C   UNL     1      34.600 -22.552 -17.856  0.00  0.00    +0.109 C 
BRANCH  16  18
ATOM     17  O   UNL     1      33.014 -21.941 -19.600  0.00  0.00    -0.250 OA
ATOM     18  C   UNL     1      33.808 -22.744 -19.130  0.00  0.00    +0.314 C 
BRANCH  18  19
ATOM     19  O   UNL     1      34.077 -23.944 -19.705  0.00  0.00    -0.480 OA
ATOM     20  H   UNL     1      33.965 -24.057 -20.630  0.00  0.00    +0.295 HD
ENDBRANCH  18  19
ENDBRANCH  16  18
ENDBRANCH  15  16
ENDBRANCH  14  15
ENDBRANCH  13  14
ENDBRANCH   7  13
TORSDOF 6
ENDMDL
MODEL 7
REMARK VINA RESULT:      -6.7     10.924     12.533
REMARK  Name = 128878
REMARK  6 active torsions:
REMARK  status: ('A' for Active; 'I' for Inactive)
REMARK    1  A    between atoms: C_7  and  C_13
REMARK    2  A    between atoms: C_13  and  C_14
REMARK    3  A    between atoms: C_14  and  C_15
REMARK    4  A    between atoms: C_15  and  C_16
REMARK    5  A    between atoms: C_16  and  C_18
REMARK    6  A    between atoms: C_18  and  O_19
REMARK                            x       y       z     vdW  Elec       q    Type
REMARK                         _______ _______ _______ _____ _____    ______ ____
ROOT
ATOM      1  S   UNL     1      36.385 -23.546 -13.019  0.00  0.00    -0.137 S 
ATOM      2  N   UNL     1      38.829 -25.916 -13.266  0.00  0.00    -0.306 N 
ATOM      3  N   UNL     1      37.712 -25.640 -15.222  0.00  0.00    -0.243 NA
ATOM      4  N   UNL     1      40.100 -25.538 -15.177  0.00  0.00    -0.331 N 
ATOM      5  C   UNL     1      36.698 -25.909 -14.145  0.00  0.00    +0.134 C 
ATOM      6  C   UNL     1      37.468 -25.974 -12.800  0.00  0.00    +0.105 C 
ATOM      7  C   UNL     1      35.634 -24.812 -14.076  0.00  0.00    +0.072 C 
ATOM      8  C   UNL     1      37.142 -24.770 -11.923  0.00  0.00    +0.079 C 
ATOM      9  C   UNL     1      38.870 -25.697 -14.610  0.00  0.00    +0.174 C 
ATOM     10  H   UNL     1      39.622 -26.021 -12.693  0.00  0.00    +0.149 HD
ATOM     11  H   UNL     1      40.910 -25.602 -14.620  0.00  0.00    +0.145 HD
ATOM     12  H   UNL     1      40.178 -25.361 -16.142  0.00  0.00    +0.145 HD
ENDROOT
BRANCH   7  13
ATOM     13  C   UNL     1      35.188 -24.248 -15.414  0.00  0.00    +0.013 C 
BRANCH  13  14
ATOM     14  C   UNL     1      34.156 -23.124 -15.292  0.00  0.00    +0.002 C 
BRANCH  14  15
ATOM     15  C   UNL     1      32.704 -23.524 -15.568  0.00  0.00    +0.012 C 
BRANCH  15  16
ATOM     16  C   UNL     1      31.752 -23.179 -14.423  0.00  0.00    +0.109 C 
BRANCH  16  18
ATOM     17  O   UNL     1      30.614 -24.416 -12.661  0.00  0.00    -0.250 OA
ATOM     18  C   UNL     1      31.410 -24.394 -13.589  0.00  0.00    +0.314 C 
BRANCH  18  19
ATOM     19  O   UNL     1      32.111 -25.485 -13.992  0.00  0.00    -0.480 OA
ATOM     20  H   UNL     1      32.028 -26.294 -13.526  0.00  0.00    +0.295 HD
ENDBRANCH  18  19
ENDBRANCH  16  18
ENDBRANCH  15  16
ENDBRANCH  14  15
ENDBRANCH  13  14
ENDBRANCH   7  13
TORSDOF 6
ENDMDL
MODEL 8
REMARK VINA RESULT:      -6.6      8.980     11.800
REMARK  Name = 128878
REMARK  6 active torsions:
REMARK  status: ('A' for Active; 'I' for Inactive)
REMARK    1  A    between atoms: C_7  and  C_13
REMARK    2  A    between atoms: C_13  and  C_14
REMARK    3  A    between atoms: C_14  and  C_15
REMARK    4  A    between atoms: C_15  and  C_16
REMARK    5  A    between atoms: C_16  and  C_18
REMARK    6  A    between atoms: C_18  and  O_19
REMARK                            x       y       z     vdW  Elec       q    Type
REMARK                         _______ _______ _______ _____ _____    ______ ____
ROOT
ATOM      1  S   UNL     1      36.714 -23.193 -12.931  0.00  0.00    -0.137 S 
ATOM      2  N   UNL     1      38.194 -26.260 -13.167  0.00  0.00    -0.306 N 
ATOM      3  N   UNL     1      38.284 -25.119 -15.127  0.00  0.00    -0.243 NA
ATOM      4  N   UNL     1      40.274 -26.052 -14.186  0.00  0.00    -0.331 N 
ATOM      5  C   UNL     1      36.849 -25.160 -14.682  0.00  0.00    +0.134 C 
ATOM      6  C   UNL     1      36.824 -25.835 -13.285  0.00  0.00    +0.105 C 
ATOM      7  C   UNL     1      36.241 -23.759 -14.586  0.00  0.00    +0.072 C 
ATOM      8  C   UNL     1      36.471 -24.828 -12.195  0.00  0.00    +0.079 C 
ATOM      9  C   UNL     1      38.936 -25.793 -14.210  0.00  0.00    +0.174 C 
ATOM     10  H   UNL     1      38.548 -26.812 -12.433  0.00  0.00    +0.149 HD
ATOM     11  H   UNL     1      40.661 -26.571 -13.445  0.00  0.00    +0.145 HD
ATOM     12  H   UNL     1      40.853 -25.720 -14.911  0.00  0.00    +0.145 HD
ENDROOT
BRANCH   7  13
ATOM     13  C   UNL     1      36.673 -22.784 -15.669  0.00  0.00    +0.013 C 
BRANCH  13  14
ATOM     14  C   UNL     1      35.641 -22.615 -16.787  0.00  0.00    +0.002 C 
BRANCH  14  15
ATOM     15  C   UNL     1      36.169 -22.007 -18.090  0.00  0.00    +0.012 C 
BRANCH  15  16
ATOM     16  C   UNL     1      35.064 -21.627 -19.074  0.00  0.00    +0.109 C 
BRANCH  16  18
ATOM     17  O   UNL     1      32.825 -22.404 -18.516  0.00  0.00    -0.250 OA
ATOM     18  C   UNL     1      33.913 -22.607 -19.036  0.00  0.00    +0.314 C 
BRANCH  18  19
ATOM     19  O   UNL     1      34.233 -23.772 -19.656  0.00  0.00    -0.480 OA
ATOM     20  H   UNL     1      34.962 -24.279 -19.354  0.00  0.00    +0.295 HD
ENDBRANCH  18  19
ENDBRANCH  16  18
ENDBRANCH  15  16
ENDBRANCH  14  15
ENDBRANCH  13  14
ENDBRANCH   7  13
TORSDOF 6
ENDMDL
MODEL 9
REMARK VINA RESULT:      -6.6      4.445      6.568
REMARK  Name = 128878
REMARK  6 active torsions:
REMARK  status: ('A' for Active; 'I' for Inactive)
REMARK    1  A    between atoms: C_7  and  C_13
REMARK    2  A    between atoms: C_13  and  C_14
REMARK    3  A    between atoms: C_14  and  C_15
REMARK    4  A    between atoms: C_15  and  C_16
REMARK    5  A    between atoms: C_16  and  C_18
REMARK    6  A    between atoms: C_18  and  O_19
REMARK                            x       y       z     vdW  Elec       q    Type
REMARK                         _______ _______ _______ _____ _____    ______ ____
ROOT
ATOM      1  S   UNL     1      34.881 -17.484 -23.941  0.00  0.00    -0.137 S 
ATOM      2  N   UNL     1      34.852 -19.757 -21.395  0.00  0.00    -0.306 N 
ATOM      3  N   UNL     1      33.555 -17.952 -20.938  0.00  0.00    -0.243 NA
ATOM      4  N   UNL     1      32.661 -20.159 -20.725  0.00  0.00    -0.331 N 
ATOM      5  C   UNL     1      34.925 -17.455 -21.305  0.00  0.00    +0.134 C 
ATOM      6  C   UNL     1      35.760 -18.692 -21.731  0.00  0.00    +0.105 C 
ATOM      7  C   UNL     1      34.877 -16.447 -22.455  0.00  0.00    +0.072 C 
ATOM      8  C   UNL     1      36.045 -18.672 -23.229  0.00  0.00    +0.079 C 
ATOM      9  C   UNL     1      33.648 -19.258 -20.998  0.00  0.00    +0.174 C 
ATOM     10  H   UNL     1      35.070 -20.715 -21.445  0.00  0.00    +0.149 HD
ATOM     11  H   UNL     1      32.841 -21.124 -20.802  0.00  0.00    +0.145 HD
ATOM     12  H   UNL     1      31.769 -19.844 -20.450  0.00  0.00    +0.145 HD
ENDROOT
BRANCH   7  13
ATOM     13  C   UNL     1      33.702 -15.485 -22.433  0.00  0.00    +0.013 C 
BRANCH  13  14
ATOM     14  C   UNL     1      34.107 -14.019 -22.616  0.00  0.00    +0.002 C 
BRANCH  14  15
ATOM     15  C   UNL     1      33.885 -13.441 -24.016  0.00  0.00    +0.012 C 
BRANCH  15  16
ATOM     16  C   UNL     1      32.752 -14.123 -24.783  0.00  0.00    +0.109 C 
BRANCH  16  18
ATOM     17  O   UNL     1      33.450 -15.556 -26.623  0.00  0.00    -0.250 OA
ATOM     18  C   UNL     1      33.149 -14.447 -26.206  0.00  0.00    +0.314 C 
BRANCH  18  19
ATOM     19  O   UNL     1      33.141 -13.337 -26.988  0.00  0.00    -0.480 OA
ATOM     20  H   UNL     1      32.331 -12.908 -27.186  0.00  0.00    +0.295 HD
ENDBRANCH  18  19
ENDBRANCH  16  18
ENDBRANCH  15  16
ENDBRANCH  14  15
ENDBRANCH  13  14
ENDBRANCH   7  13
TORSDOF 6
ENDMDL
