MODEL 1
REMARK VINA RESULT:      -7.6      0.000      0.000
REMARK  Name = 6852154
REMARK  4 active torsions:
REMARK  status: ('A' for Active; 'I' for Inactive)
REMARK    1  A    between atoms: C_2  and  C_19
REMARK    2  A    between atoms: C_6  and  C_11
REMARK    3  A    between atoms: C_16  and  O_17
REMARK    4  A    between atoms: C_19  and  O_20
REMARK                            x       y       z     vdW  Elec       q    Type
REMARK                         _______ _______ _______ _____ _____    ______ ____
ROOT
ATOM      1  O   UNL     1      34.341 -24.842 -12.536  0.00  0.00    -0.351 OA
ATOM      2  C   UNL     1      36.756 -24.355 -12.791  0.00  0.00    +0.059 C 
ATOM      3  C   UNL     1      35.048 -23.205 -14.211  0.00  0.00    +0.050 C 
ATOM      4  C   UNL     1      36.380 -23.021 -13.460  0.00  0.00    +0.012 C 
ATOM      5  C   UNL     1      36.987 -25.417 -13.903  0.00  0.00    +0.030 C 
ATOM      6  C   UNL     1      33.974 -23.604 -13.163  0.00  0.00    +0.141 C 
ATOM      7  C   UNL     1      35.595 -24.771 -11.858  0.00  0.00    +0.145 C 
ATOM      8  C   UNL     1      35.227 -24.269 -15.286  0.00  0.00    -0.046 C 
ATOM      9  C   UNL     1      36.105 -25.276 -15.114  0.00  0.00    -0.034 C 
ATOM     10  C   UNL     1      34.426 -24.131 -16.547  0.00  0.00    +0.026 C 
ENDROOT
BRANCH   6  11
ATOM     11  C   UNL     1      32.606 -23.767 -13.732  0.00  0.00    +0.005 C 
ATOM     12  C   UNL     1      31.938 -22.669 -14.273  0.00  0.00    +0.001 C 
ATOM     13  C   UNL     1      31.990 -25.020 -13.721  0.00  0.00    +0.001 C 
ATOM     14  C   UNL     1      30.657 -22.821 -14.803  0.00  0.00    +0.036 C 
ATOM     15  C   UNL     1      30.710 -25.173 -14.251  0.00  0.00    +0.036 C 
ATOM     16  C   UNL     1      30.044 -24.074 -14.793  0.00  0.00    +0.134 C 
BRANCH  16  17
ATOM     17  O   UNL     1      28.794 -24.222 -15.312  0.00  0.00    -0.506 OA
ATOM     18  H   UNL     1      28.224 -24.889 -14.981  0.00  0.00    +0.292 HD
ENDBRANCH  16  17
ENDBRANCH   6  11
BRANCH   2  19
ATOM     19  C   UNL     1      38.033 -24.199 -11.956  0.00  0.00    +0.140 C 
BRANCH  19  20
ATOM     20  O   UNL     1      38.185 -22.832 -11.633  0.00  0.00    -0.382 OA
ATOM     21  H   UNL     1      38.926 -22.461 -12.136  0.00  0.00    +0.210 HD
ENDBRANCH  19  20
ENDBRANCH   2  19
TORSDOF 4
ENDMDL
MODEL 2
REMARK VINA RESULT:      -7.1     15.261     16.846
REMARK  Name = 6852154
REMARK  4 active torsions:
REMARK  status: ('A' for Active; 'I' for Inactive)
REMARK    1  A    between atoms: C_2  and  C_19
REMARK    2  A    between atoms: C_6  and  C_11
REMARK    3  A    between atoms: C_16  and  O_17
REMARK    4  A    between atoms: C_19  and  O_20
REMARK                            x       y       z     vdW  Elec       q    Type
REMARK                         _______ _______ _______ _____ _____    ______ ____
ROOT
ATOM      1  O   UNL     1      32.276  -9.391 -21.009  0.00  0.00    -0.351 OA
ATOM      2  C   UNL     1      32.259  -7.338 -22.394  0.00  0.00    +0.059 C 
ATOM      3  C   UNL     1      31.966  -9.596 -23.427  0.00  0.00    +0.050 C 
ATOM      4  C   UNL     1      31.516  -8.124 -23.488  0.00  0.00    +0.012 C 
ATOM      5  C   UNL     1      33.782  -7.376 -22.705  0.00  0.00    +0.030 C 
ATOM      6  C   UNL     1      31.590 -10.140 -22.023  0.00  0.00    +0.141 C 
ATOM      7  C   UNL     1      31.953  -8.001 -21.031  0.00  0.00    +0.145 C 
ATOM      8  C   UNL     1      33.465  -9.668 -23.690  0.00  0.00    -0.046 C 
ATOM      9  C   UNL     1      34.273  -8.651 -23.336  0.00  0.00    -0.034 C 
ATOM     10  C   UNL     1      33.995 -10.887 -24.388  0.00  0.00    +0.026 C 
ENDROOT
BRANCH   6  11
ATOM     11  C   UNL     1      31.915 -11.582 -21.826  0.00  0.00    +0.005 C 
ATOM     12  C   UNL     1      32.064 -12.422 -22.929  0.00  0.00    +0.001 C 
ATOM     13  C   UNL     1      32.068 -12.092 -20.535  0.00  0.00    +0.001 C 
ATOM     14  C   UNL     1      32.367 -13.771 -22.743  0.00  0.00    +0.036 C 
ATOM     15  C   UNL     1      32.371 -13.440 -20.350  0.00  0.00    +0.036 C 
ATOM     16  C   UNL     1      32.521 -14.279 -21.454  0.00  0.00    +0.134 C 
BRANCH  16  17
ATOM     17  O   UNL     1      32.817 -15.596 -21.274  0.00  0.00    -0.506 OA
ATOM     18  H   UNL     1      33.144 -16.105 -21.990  0.00  0.00    +0.292 HD
ENDBRANCH  16  17
ENDBRANCH   6  11
BRANCH   2  19
ATOM     19  C   UNL     1      31.778  -5.881 -22.357  0.00  0.00    +0.140 C 
BRANCH  19  20
ATOM     20  O   UNL     1      31.525  -5.534 -21.011  0.00  0.00    -0.382 OA
ATOM     21  H   UNL     1      30.838  -4.850 -20.977  0.00  0.00    +0.210 HD
ENDBRANCH  19  20
ENDBRANCH   2  19
TORSDOF 4
ENDMDL
MODEL 3
REMARK VINA RESULT:      -7.1     17.310     19.137
REMARK  Name = 6852154
REMARK  4 active torsions:
REMARK  status: ('A' for Active; 'I' for Inactive)
REMARK    1  A    between atoms: C_2  and  C_19
REMARK    2  A    between atoms: C_6  and  C_11
REMARK    3  A    between atoms: C_16  and  O_17
REMARK    4  A    between atoms: C_19  and  O_20
REMARK                            x       y       z     vdW  Elec       q    Type
REMARK                         _______ _______ _______ _____ _____    ______ ____
ROOT
ATOM      1  O   UNL     1      30.826  -7.798 -23.958  0.00  0.00    -0.351 OA
ATOM      2  C   UNL     1      31.583  -5.442 -23.865  0.00  0.00    +0.059 C 
ATOM      3  C   UNL     1      33.016  -7.296 -22.990  0.00  0.00    +0.050 C 
ATOM      4  C   UNL     1      33.031  -5.949 -23.738  0.00  0.00    +0.012 C 
ATOM      5  C   UNL     1      31.024  -5.181 -22.438  0.00  0.00    +0.030 C 
ATOM      6  C   UNL     1      32.170  -8.288 -23.833  0.00  0.00    +0.141 C 
ATOM      7  C   UNL     1      30.755  -6.523 -24.597  0.00  0.00    +0.145 C 
ATOM      8  C   UNL     1      32.437  -7.084 -21.597  0.00  0.00    -0.046 C 
ATOM      9  C   UNL     1      31.519  -6.125 -21.376  0.00  0.00    -0.034 C 
ATOM     10  C   UNL     1      32.954  -7.950 -20.486  0.00  0.00    +0.026 C 
ENDROOT
BRANCH   6  11
ATOM     11  C   UNL     1      32.105  -9.664 -23.264  0.00  0.00    +0.005 C 
ATOM     12  C   UNL     1      33.086 -10.601 -23.586  0.00  0.00    +0.001 C 
ATOM     13  C   UNL     1      31.059 -10.016 -22.409  0.00  0.00    +0.001 C 
ATOM     14  C   UNL     1      33.024 -11.889 -23.055  0.00  0.00    +0.036 C 
ATOM     15  C   UNL     1      30.998 -11.303 -21.877  0.00  0.00    +0.036 C 
ATOM     16  C   UNL     1      31.980 -12.239 -22.199  0.00  0.00    +0.134 C 
BRANCH  16  17
ATOM     17  O   UNL     1      31.921 -13.496 -21.680  0.00  0.00    -0.506 OA
ATOM     18  H   UNL     1      31.588 -14.203 -22.198  0.00  0.00    +0.292 HD
ENDBRANCH  16  17
ENDBRANCH   6  11
BRANCH   2  19
ATOM     19  C   UNL     1      31.537  -4.144 -24.681  0.00  0.00    +0.140 C 
BRANCH  19  20
ATOM     20  O   UNL     1      30.390  -3.418 -24.292  0.00  0.00    -0.382 OA
ATOM     21  H   UNL     1      30.184  -2.751 -24.966  0.00  0.00    +0.210 HD
ENDBRANCH  19  20
ENDBRANCH   2  19
TORSDOF 4
ENDMDL
MODEL 4
REMARK VINA RESULT:      -7.1     15.270     16.859
REMARK  Name = 6852154
REMARK  4 active torsions:
REMARK  status: ('A' for Active; 'I' for Inactive)
REMARK    1  A    between atoms: C_2  and  C_19
REMARK    2  A    between atoms: C_6  and  C_11
REMARK    3  A    between atoms: C_16  and  O_17
REMARK    4  A    between atoms: C_19  and  O_20
REMARK                            x       y       z     vdW  Elec       q    Type
REMARK                         _______ _______ _______ _____ _____    ______ ____
ROOT
ATOM      1  O   UNL     1      32.306  -9.360 -20.982  0.00  0.00    -0.351 OA
ATOM      2  C   UNL     1      32.280  -7.309 -22.370  0.00  0.00    +0.059 C 
ATOM      3  C   UNL     1      31.961  -9.567 -23.395  0.00  0.00    +0.050 C 
ATOM      4  C   UNL     1      31.518  -8.093 -23.452  0.00  0.00    +0.012 C 
ATOM      5  C   UNL     1      33.798  -7.356 -22.702  0.00  0.00    +0.030 C 
ATOM      6  C   UNL     1      31.601 -10.107 -21.984  0.00  0.00    +0.141 C 
ATOM      7  C   UNL     1      31.990  -7.968 -21.002  0.00  0.00    +0.145 C 
ATOM      8  C   UNL     1      33.455  -9.648 -23.679  0.00  0.00    -0.046 C 
ATOM      9  C   UNL     1      34.273  -8.634 -23.338  0.00  0.00    -0.034 C 
ATOM     10  C   UNL     1      33.969 -10.871 -24.382  0.00  0.00    +0.026 C 
ENDROOT
BRANCH   6  11
ATOM     11  C   UNL     1      31.921 -11.550 -21.789  0.00  0.00    +0.005 C 
ATOM     12  C   UNL     1      32.067 -12.065 -20.501  0.00  0.00    +0.001 C 
ATOM     13  C   UNL     1      32.077 -12.387 -22.895  0.00  0.00    +0.001 C 
ATOM     14  C   UNL     1      32.368 -13.415 -20.319  0.00  0.00    +0.036 C 
ATOM     15  C   UNL     1      32.378 -13.735 -22.713  0.00  0.00    +0.036 C 
ATOM     16  C   UNL     1      32.522 -14.250 -21.425  0.00  0.00    +0.134 C 
BRANCH  16  17
ATOM     17  O   UNL     1      32.815 -15.567 -21.246  0.00  0.00    -0.506 OA
ATOM     18  H   UNL     1      32.124 -16.189 -21.123  0.00  0.00    +0.292 HD
ENDBRANCH  16  17
ENDBRANCH   6  11
BRANCH   2  19
ATOM     19  C   UNL     1      31.808  -5.850 -22.329  0.00  0.00    +0.140 C 
BRANCH  19  20
ATOM     20  O   UNL     1      31.385  -5.559 -21.013  0.00  0.00    -0.382 OA
ATOM     21  H   UNL     1      30.468  -5.852 -20.895  0.00  0.00    +0.210 HD
ENDBRANCH  19  20
ENDBRANCH   2  19
TORSDOF 4
ENDMDL
MODEL 5
REMARK VINA RESULT:      -7.0     17.991     19.580
REMARK  Name = 6852154
REMARK  4 active torsions:
REMARK  status: ('A' for Active; 'I' for Inactive)
REMARK    1  A    between atoms: C_2  and  C_19
REMARK    2  A    between atoms: C_6  and  C_11
REMARK    3  A    between atoms: C_16  and  O_17
REMARK    4  A    between atoms: C_19  and  O_20
REMARK                            x       y       z     vdW  Elec       q    Type
REMARK                         _______ _______ _______ _____ _____    ______ ____
ROOT
ATOM      1  O   UNL     1      30.909  -8.320 -23.462  0.00  0.00    -0.351 OA
ATOM      2  C   UNL     1      31.970 -10.196 -22.243  0.00  0.00    +0.059 C 
ATOM      3  C   UNL     1      32.871  -7.869 -22.073  0.00  0.00    +0.050 C 
ATOM      4  C   UNL     1      32.608  -9.169 -21.290  0.00  0.00    +0.012 C 
ATOM      5  C   UNL     1      32.990 -10.525 -23.369  0.00  0.00    +0.030 C 
ATOM      6  C   UNL     1      31.501  -7.349 -22.586  0.00  0.00    +0.141 C 
ATOM      7  C   UNL     1      30.678  -9.576 -22.825  0.00  0.00    +0.145 C 
ATOM      8  C   UNL     1      33.839  -8.163 -23.212  0.00  0.00    -0.046 C 
ATOM      9  C   UNL     1      33.862  -9.375 -23.797  0.00  0.00    -0.034 C 
ATOM     10  C   UNL     1      34.785  -7.073 -23.625  0.00  0.00    +0.026 C 
ENDROOT
BRANCH   6  11
ATOM     11  C   UNL     1      31.583  -6.056 -23.324  0.00  0.00    +0.005 C 
ATOM     12  C   UNL     1      31.520  -4.849 -22.629  0.00  0.00    +0.001 C 
ATOM     13  C   UNL     1      31.720  -6.053 -24.713  0.00  0.00    +0.001 C 
ATOM     14  C   UNL     1      31.595  -3.640 -23.320  0.00  0.00    +0.036 C 
ATOM     15  C   UNL     1      31.795  -4.845 -25.404  0.00  0.00    +0.036 C 
ATOM     16  C   UNL     1      31.733  -3.638 -24.708  0.00  0.00    +0.134 C 
BRANCH  16  17
ATOM     17  O   UNL     1      31.807  -2.458 -25.381  0.00  0.00    -0.506 OA
ATOM     18  H   UNL     1      31.033  -2.078 -25.750  0.00  0.00    +0.292 HD
ENDBRANCH  16  17
ENDBRANCH   6  11
BRANCH   2  19
ATOM     19  C   UNL     1      31.607 -11.480 -21.486  0.00  0.00    +0.140 C 
BRANCH  19  20
ATOM     20  O   UNL     1      30.205 -11.514 -21.321  0.00  0.00    -0.382 OA
ATOM     21  H   UNL     1      29.788 -10.923 -21.967  0.00  0.00    +0.210 HD
ENDBRANCH  19  20
ENDBRANCH   2  19
TORSDOF 4
ENDMDL
MODEL 6
REMARK VINA RESULT:      -7.0      2.816      4.270
REMARK  Name = 6852154
REMARK  4 active torsions:
REMARK  status: ('A' for Active; 'I' for Inactive)
REMARK    1  A    between atoms: C_2  and  C_19
REMARK    2  A    between atoms: C_6  and  C_11
REMARK    3  A    between atoms: C_16  and  O_17
REMARK    4  A    between atoms: C_19  and  O_20
REMARK                            x       y       z     vdW  Elec       q    Type
REMARK                         _______ _______ _______ _____ _____    ______ ____
ROOT
ATOM      1  O   UNL     1      34.835 -23.959 -14.287  0.00  0.00    -0.351 OA
ATOM      2  C   UNL     1      35.963 -24.521 -12.155  0.00  0.00    +0.059 C 
ATOM      3  C   UNL     1      37.069 -23.061 -13.856  0.00  0.00    +0.050 C 
ATOM      4  C   UNL     1      36.864 -23.288 -12.346  0.00  0.00    +0.012 C 
ATOM      5  C   UNL     1      36.701 -25.766 -12.720  0.00  0.00    +0.030 C 
ATOM      6  C   UNL     1      35.672 -22.810 -14.484  0.00  0.00    +0.141 C 
ATOM      7  C   UNL     1      34.636 -24.271 -12.908  0.00  0.00    +0.145 C 
ATOM      8  C   UNL     1      37.759 -24.281 -14.453  0.00  0.00    -0.046 C 
ATOM      9  C   UNL     1      37.561 -25.505 -13.928  0.00  0.00    -0.034 C 
ATOM     10  C   UNL     1      38.688 -24.063 -15.611  0.00  0.00    +0.026 C 
ENDROOT
BRANCH   6  11
ATOM     11  C   UNL     1      35.709 -22.516 -15.945  0.00  0.00    +0.005 C 
ATOM     12  C   UNL     1      36.768 -21.785 -16.485  0.00  0.00    +0.001 C 
ATOM     13  C   UNL     1      34.683 -22.971 -16.775  0.00  0.00    +0.001 C 
ATOM     14  C   UNL     1      36.801 -21.510 -17.852  0.00  0.00    +0.036 C 
ATOM     15  C   UNL     1      34.716 -22.696 -18.141  0.00  0.00    +0.036 C 
ATOM     16  C   UNL     1      35.775 -21.966 -18.680  0.00  0.00    +0.134 C 
BRANCH  16  17
ATOM     17  O   UNL     1      35.810 -21.697 -20.013  0.00  0.00    -0.506 OA
ATOM     18  H   UNL     1      35.418 -20.913 -20.345  0.00  0.00    +0.292 HD
ENDBRANCH  16  17
ENDBRANCH   6  11
BRANCH   2  19
ATOM     19  C   UNL     1      35.656 -24.738 -10.667  0.00  0.00    +0.140 C 
BRANCH  19  20
ATOM     20  O   UNL     1      36.478 -23.869  -9.915  0.00  0.00    -0.382 OA
ATOM     21  H   UNL     1      37.400 -24.166  -9.973  0.00  0.00    +0.210 HD
ENDBRANCH  19  20
ENDBRANCH   2  19
TORSDOF 4
ENDMDL
MODEL 7
REMARK VINA RESULT:      -6.9     10.218     11.715
REMARK  Name = 6852154
REMARK  4 active torsions:
REMARK  status: ('A' for Active; 'I' for Inactive)
REMARK    1  A    between atoms: C_2  and  C_19
REMARK    2  A    between atoms: C_6  and  C_11
REMARK    3  A    between atoms: C_16  and  O_17
REMARK    4  A    between atoms: C_19  and  O_20
REMARK                            x       y       z     vdW  Elec       q    Type
REMARK                         _______ _______ _______ _____ _____    ______ ____
ROOT
ATOM      1  O   UNL     1      33.688 -17.441 -21.235  0.00  0.00    -0.351 OA
ATOM      2  C   UNL     1      35.240 -19.310 -21.718  0.00  0.00    +0.059 C 
ATOM      3  C   UNL     1      35.620 -17.032 -22.678  0.00  0.00    +0.050 C 
ATOM      4  C   UNL     1      36.316 -18.274 -22.089  0.00  0.00    +0.012 C 
ATOM      5  C   UNL     1      34.512 -19.753 -23.018  0.00  0.00    +0.030 C 
ATOM      6  C   UNL     1      34.678 -16.462 -21.584  0.00  0.00    +0.141 C 
ATOM      7  C   UNL     1      34.255 -18.649 -20.726  0.00  0.00    +0.145 C 
ATOM      8  C   UNL     1      34.862 -17.438 -23.936  0.00  0.00    -0.046 C 
ATOM      9  C   UNL     1      34.353 -18.678 -24.059  0.00  0.00    -0.034 C 
ATOM     10  C   UNL     1      34.742 -16.426 -25.038  0.00  0.00    +0.026 C 
ENDROOT
BRANCH   6  11
ATOM     11  C   UNL     1      33.967 -15.216 -21.986  0.00  0.00    +0.005 C 
ATOM     12  C   UNL     1      34.532 -14.364 -22.936  0.00  0.00    +0.001 C 
ATOM     13  C   UNL     1      32.736 -14.898 -21.411  0.00  0.00    +0.001 C 
ATOM     14  C   UNL     1      33.867 -13.197 -23.311  0.00  0.00    +0.036 C 
ATOM     15  C   UNL     1      32.071 -13.732 -21.786  0.00  0.00    +0.036 C 
ATOM     16  C   UNL     1      32.635 -12.882 -22.736  0.00  0.00    +0.134 C 
BRANCH  16  17
ATOM     17  O   UNL     1      31.987 -11.743 -23.104  0.00  0.00    -0.506 OA
ATOM     18  H   UNL     1      32.476 -10.974 -23.324  0.00  0.00    +0.292 HD
ENDBRANCH  16  17
ENDBRANCH   6  11
BRANCH   2  19
ATOM     19  C   UNL     1      35.879 -20.531 -21.044  0.00  0.00    +0.140 C 
BRANCH  19  20
ATOM     20  O   UNL     1      36.417 -20.121 -19.805  0.00  0.00    -0.382 OA
ATOM     21  H   UNL     1      36.728 -20.897 -19.313  0.00  0.00    +0.210 HD
ENDBRANCH  19  20
ENDBRANCH   2  19
TORSDOF 4
ENDMDL
MODEL 8
REMARK VINA RESULT:      -6.8      2.836      3.708
REMARK  Name = 6852154
REMARK  4 active torsions:
REMARK  status: ('A' for Active; 'I' for Inactive)
REMARK    1  A    between atoms: C_2  and  C_19
REMARK    2  A    between atoms: C_6  and  C_11
REMARK    3  A    between atoms: C_16  and  O_17
REMARK    4  A    between atoms: C_19  and  O_20
REMARK                            x       y       z     vdW  Elec       q    Type
REMARK                         _______ _______ _______ _____ _____    ______ ____
ROOT
ATOM      1  O   UNL     1      35.741 -25.137 -15.759  0.00  0.00    -0.351 OA
ATOM      2  C   UNL     1      37.376 -25.064 -13.901  0.00  0.00    +0.059 C 
ATOM      3  C   UNL     1      36.231 -22.988 -14.698  0.00  0.00    +0.050 C 
ATOM      4  C   UNL     1      36.753 -23.729 -13.452  0.00  0.00    +0.012 C 
ATOM      5  C   UNL     1      38.597 -24.758 -14.812  0.00  0.00    +0.030 C 
ATOM      6  C   UNL     1      35.154 -23.889 -15.359  0.00  0.00    +0.141 C 
ATOM      7  C   UNL     1      36.298 -25.866 -14.666  0.00  0.00    +0.145 C 
ATOM      8  C   UNL     1      37.399 -22.705 -15.634  0.00  0.00    -0.046 C 
ATOM      9  C   UNL     1      38.457 -23.536 -15.679  0.00  0.00    -0.034 C 
ATOM     10  C   UNL     1      37.343 -21.457 -16.465  0.00  0.00    +0.026 C 
ENDROOT
BRANCH   6  11
ATOM     11  C   UNL     1      34.508 -23.282 -16.557  0.00  0.00    +0.005 C 
ATOM     12  C   UNL     1      35.291 -22.816 -17.612  0.00  0.00    +0.001 C 
ATOM     13  C   UNL     1      33.117 -23.176 -16.622  0.00  0.00    +0.001 C 
ATOM     14  C   UNL     1      34.687 -22.246 -18.733  0.00  0.00    +0.036 C 
ATOM     15  C   UNL     1      32.513 -22.607 -17.742  0.00  0.00    +0.036 C 
ATOM     16  C   UNL     1      33.297 -22.143 -18.797  0.00  0.00    +0.134 C 
BRANCH  16  17
ATOM     17  O   UNL     1      32.708 -21.587 -19.891  0.00  0.00    -0.506 OA
ATOM     18  H   UNL     1      31.777 -21.485 -19.922  0.00  0.00    +0.292 HD
ENDBRANCH  16  17
ENDBRANCH   6  11
BRANCH   2  19
ATOM     19  C   UNL     1      37.832 -25.880 -12.684  0.00  0.00    +0.140 C 
BRANCH  19  20
ATOM     20  O   UNL     1      36.683 -26.303 -11.980  0.00  0.00    -0.382 OA
ATOM     21  H   UNL     1      36.124 -25.536 -11.782  0.00  0.00    +0.210 HD
ENDBRANCH  19  20
ENDBRANCH   2  19
TORSDOF 4
ENDMDL
MODEL 9
REMARK VINA RESULT:      -6.8     10.638     12.669
REMARK  Name = 6852154
REMARK  4 active torsions:
REMARK  status: ('A' for Active; 'I' for Inactive)
REMARK    1  A    between atoms: C_2  and  C_19
REMARK    2  A    between atoms: C_6  and  C_11
REMARK    3  A    between atoms: C_16  and  O_17
REMARK    4  A    between atoms: C_19  and  O_20
REMARK                            x       y       z     vdW  Elec       q    Type
REMARK                         _______ _______ _______ _____ _____    ______ ____
ROOT
ATOM      1  O   UNL     1      33.766 -16.474 -23.875  0.00  0.00    -0.351 OA
ATOM      2  C   UNL     1      33.541 -14.010 -23.987  0.00  0.00    +0.059 C 
ATOM      3  C   UNL     1      34.793 -15.110 -22.123  0.00  0.00    +0.050 C 
ATOM      4  C   UNL     1      34.767 -13.891 -23.064  0.00  0.00    +0.012 C 
ATOM      5  C   UNL     1      32.257 -13.955 -23.114  0.00  0.00    +0.030 C 
ATOM      6  C   UNL     1      34.906 -16.381 -23.008  0.00  0.00    +0.141 C 
ATOM      7  C   UNL     1      33.639 -15.352 -24.749  0.00  0.00    +0.145 C 
ATOM      8  C   UNL     1      33.527 -15.110 -21.275  0.00  0.00    -0.046 C 
ATOM      9  C   UNL     1      32.380 -14.594 -21.756  0.00  0.00    -0.034 C 
ATOM     10  C   UNL     1      33.616 -15.666 -19.884  0.00  0.00    +0.026 C 
ENDROOT
BRANCH   6  11
ATOM     11  C   UNL     1      34.998 -17.651 -22.235  0.00  0.00    +0.005 C 
ATOM     12  C   UNL     1      33.881 -18.477 -22.111  0.00  0.00    +0.001 C 
ATOM     13  C   UNL     1      36.203 -18.016 -21.631  0.00  0.00    +0.001 C 
ATOM     14  C   UNL     1      33.967 -19.666 -21.386  0.00  0.00    +0.036 C 
ATOM     15  C   UNL     1      36.289 -19.203 -20.907  0.00  0.00    +0.036 C 
ATOM     16  C   UNL     1      35.172 -20.029 -20.785  0.00  0.00    +0.134 C 
BRANCH  16  17
ATOM     17  O   UNL     1      35.255 -21.189 -20.078  0.00  0.00    -0.506 OA
ATOM     18  H   UNL     1      35.426 -21.167 -19.157  0.00  0.00    +0.292 HD
ENDBRANCH  16  17
ENDBRANCH   6  11
BRANCH   2  19
ATOM     19  C   UNL     1      33.520 -12.862 -25.005  0.00  0.00    +0.140 C 
BRANCH  19  20
ATOM     20  O   UNL     1      34.335 -11.819 -24.511  0.00  0.00    -0.382 OA
ATOM     21  H   UNL     1      34.289 -11.059 -25.112  0.00  0.00    +0.210 HD
ENDBRANCH  19  20
ENDBRANCH   2  19
TORSDOF 4
ENDMDL
