MODEL 1
REMARK VINA RESULT:      -6.4      0.000      0.000
REMARK  Name = 6613
REMARK  9 active torsions:
REMARK  status: ('A' for Active; 'I' for Inactive)
REMARK    1  A    between atoms: N_2  and  C_14
REMARK    2  A    between atoms: C_3  and  C_5
REMARK    3  A    between atoms: C_5  and  C_6
REMARK    4  A    between atoms: C_5  and  O_12
REMARK    5  A    between atoms: C_6  and  C_9
REMARK    6  A    between atoms: C_9  and  O_10
REMARK    7  A    between atoms: C_14  and  C_15
REMARK    8  A    between atoms: C_15  and  C_17
REMARK    9  A    between atoms: C_17  and  O_18
REMARK                            x       y       z     vdW  Elec       q    Type
REMARK                         _______ _______ _______ _____ _____    ______ ____
ROOT
ATOM      1  O   UNL     1      35.724 -16.088 -23.304  0.00  0.00    -0.272 OA
ATOM      2  N   UNL     1      33.671 -15.111 -22.843  0.00  0.00    -0.302 N 
ATOM      3  C   UNL     1      34.690 -16.028 -22.642  0.00  0.00    +0.249 C 
ATOM      4  H   UNL     1      32.881 -15.149 -22.255  0.00  0.00    +0.150 HD
ENDROOT
BRANCH   3   5
ATOM      5  C   UNL     1      34.391 -17.004 -21.507  0.00  0.00    +0.189 C 
BRANCH   5   6
ATOM      6  C   UNL     1      34.785 -18.480 -21.810  0.00  0.00    +0.060 C 
ATOM      7  C   UNL     1      34.577 -18.745 -23.321  0.00  0.00    +0.005 C 
ATOM      8  C   UNL     1      33.883 -19.463 -21.040  0.00  0.00    +0.005 C 
BRANCH   6   9
ATOM      9  C   UNL     1      36.270 -18.746 -21.458  0.00  0.00    +0.140 C 
BRANCH   9  10
ATOM     10  O   UNL     1      36.390 -19.349 -20.174  0.00  0.00    -0.382 OA
ATOM     11  H   UNL     1      36.044 -20.255 -20.208  0.00  0.00    +0.210 HD
ENDBRANCH   9  10
ENDBRANCH   6   9
ENDBRANCH   5   6
BRANCH   5  12
ATOM     12  O   UNL     1      35.116 -16.538 -20.372  0.00  0.00    -0.376 OA
ATOM     13  H   UNL     1      35.142 -17.233 -19.696  0.00  0.00    +0.211 HD
ENDBRANCH   5  12
ENDBRANCH   3   5
BRANCH   2  14
ATOM     14  C   UNL     1      33.712 -14.103 -23.877  0.00  0.00    +0.101 C 
BRANCH  14  15
ATOM     15  C   UNL     1      32.771 -14.428 -25.031  0.00  0.00    +0.131 C 
BRANCH  15  17
ATOM     16  O   UNL     1      33.576 -14.518 -27.330  0.00  0.00    -0.250 OA
ATOM     17  C   UNL     1      33.484 -15.029 -26.222  0.00  0.00    +0.316 C 
BRANCH  17  18
ATOM     18  O   UNL     1      34.033 -16.234 -25.916  0.00  0.00    -0.480 OA
ATOM     19  H   UNL     1      34.194 -16.861 -26.594  0.00  0.00    +0.295 HD
ENDBRANCH  17  18
ENDBRANCH  15  17
ENDBRANCH  14  15
ENDBRANCH   2  14
TORSDOF 9
ENDMDL
MODEL 2
REMARK VINA RESULT:      -6.3     11.458     13.194
REMARK  Name = 6613
REMARK  9 active torsions:
REMARK  status: ('A' for Active; 'I' for Inactive)
REMARK    1  A    between atoms: N_2  and  C_14
REMARK    2  A    between atoms: C_3  and  C_5
REMARK    3  A    between atoms: C_5  and  C_6
REMARK    4  A    between atoms: C_5  and  O_12
REMARK    5  A    between atoms: C_6  and  C_9
REMARK    6  A    between atoms: C_9  and  O_10
REMARK    7  A    between atoms: C_14  and  C_15
REMARK    8  A    between atoms: C_15  and  C_17
REMARK    9  A    between atoms: C_17  and  O_18
REMARK                            x       y       z     vdW  Elec       q    Type
REMARK                         _______ _______ _______ _____ _____    ______ ____
ROOT
ATOM      1  O   UNL     1      32.657 -25.218 -13.241  0.00  0.00    -0.272 OA
ATOM      2  N   UNL     1      33.946 -23.412 -13.920  0.00  0.00    -0.302 N 
ATOM      3  C   UNL     1      32.753 -24.055 -13.628  0.00  0.00    +0.249 C 
ATOM      4  H   UNL     1      33.913 -22.476 -14.224  0.00  0.00    +0.150 HD
ENDROOT
BRANCH   3   5
ATOM      5  C   UNL     1      31.532 -23.171 -13.866  0.00  0.00    +0.189 C 
BRANCH   5   6
ATOM      6  C   UNL     1      30.741 -23.507 -15.166  0.00  0.00    +0.060 C 
ATOM      7  C   UNL     1      31.621 -23.145 -16.386  0.00  0.00    +0.005 C 
ATOM      8  C   UNL     1      29.452 -22.669 -15.260  0.00  0.00    +0.005 C 
BRANCH   6   9
ATOM      9  C   UNL     1      30.392 -25.014 -15.233  0.00  0.00    +0.140 C 
BRANCH   9  10
ATOM     10  O   UNL     1      29.620 -25.411 -14.105  0.00  0.00    -0.382 OA
ATOM     11  H   UNL     1      28.912 -26.011 -14.391  0.00  0.00    +0.210 HD
ENDBRANCH   9  10
ENDBRANCH   6   9
ENDBRANCH   5   6
BRANCH   5  12
ATOM     12  O   UNL     1      30.685 -23.338 -12.733  0.00  0.00    -0.376 OA
ATOM     13  H   UNL     1      30.027 -24.026 -12.919  0.00  0.00    +0.211 HD
ENDBRANCH   5  12
ENDBRANCH   3   5
BRANCH   2  14
ATOM     14  C   UNL     1      35.236 -24.052 -13.797  0.00  0.00    +0.101 C 
BRANCH  14  15
ATOM     15  C   UNL     1      36.077 -23.433 -12.688  0.00  0.00    +0.131 C 
BRANCH  15  17
ATOM     16  O   UNL     1      36.597 -23.931 -10.359  0.00  0.00    -0.250 OA
ATOM     17  C   UNL     1      35.944 -24.160 -11.369  0.00  0.00    +0.316 C 
BRANCH  17  18
ATOM     18  O   UNL     1      34.986 -25.122 -11.427  0.00  0.00    -0.480 OA
ATOM     19  H   UNL     1      35.088 -25.849 -12.010  0.00  0.00    +0.295 HD
ENDBRANCH  17  18
ENDBRANCH  15  17
ENDBRANCH  14  15
ENDBRANCH   2  14
TORSDOF 9
ENDMDL
MODEL 3
REMARK VINA RESULT:      -6.3      9.723     12.064
REMARK  Name = 6613
REMARK  9 active torsions:
REMARK  status: ('A' for Active; 'I' for Inactive)
REMARK    1  A    between atoms: N_2  and  C_14
REMARK    2  A    between atoms: C_3  and  C_5
REMARK    3  A    between atoms: C_5  and  C_6
REMARK    4  A    between atoms: C_5  and  O_12
REMARK    5  A    between atoms: C_6  and  C_9
REMARK    6  A    between atoms: C_9  and  O_10
REMARK    7  A    between atoms: C_14  and  C_15
REMARK    8  A    between atoms: C_15  and  C_17
REMARK    9  A    between atoms: C_17  and  O_18
REMARK                            x       y       z     vdW  Elec       q    Type
REMARK                         _______ _______ _______ _____ _____    ______ ____
ROOT
ATOM      1  O   UNL     1      35.955 -26.398 -15.812  0.00  0.00    -0.272 OA
ATOM      2  N   UNL     1      35.304 -25.031 -14.053  0.00  0.00    -0.302 N 
ATOM      3  C   UNL     1      36.154 -25.915 -14.699  0.00  0.00    +0.249 C 
ATOM      4  H   UNL     1      35.557 -24.702 -13.160  0.00  0.00    +0.150 HD
ENDROOT
BRANCH   3   5
ATOM      5  C   UNL     1      37.384 -26.267 -13.865  0.00  0.00    +0.189 C 
BRANCH   5   6
ATOM      6  C   UNL     1      38.442 -25.128 -13.772  0.00  0.00    +0.060 C 
ATOM      7  C   UNL     1      39.853 -25.758 -13.861  0.00  0.00    +0.005 C 
ATOM      8  C   UNL     1      38.348 -24.394 -12.420  0.00  0.00    +0.005 C 
BRANCH   6   9
ATOM      9  C   UNL     1      38.276 -24.114 -14.931  0.00  0.00    +0.140 C 
BRANCH   9  10
ATOM     10  O   UNL     1      37.651 -22.919 -14.478  0.00  0.00    -0.382 OA
ATOM     11  H   UNL     1      38.318 -22.331 -14.090  0.00  0.00    +0.210 HD
ENDBRANCH   9  10
ENDBRANCH   6   9
ENDBRANCH   5   6
BRANCH   5  12
ATOM     12  O   UNL     1      36.909 -26.588 -12.560  0.00  0.00    -0.376 OA
ATOM     13  H   UNL     1      37.388 -27.360 -12.222  0.00  0.00    +0.211 HD
ENDBRANCH   5  12
ENDBRANCH   3   5
BRANCH   2  14
ATOM     14  C   UNL     1      34.062 -24.570 -14.631  0.00  0.00    +0.101 C 
BRANCH  14  15
ATOM     15  C   UNL     1      34.196 -23.178 -15.235  0.00  0.00    +0.131 C 
BRANCH  15  17
ATOM     16  O   UNL     1      33.812 -23.585 -17.607  0.00  0.00    -0.250 OA
ATOM     17  C   UNL     1      34.547 -23.203 -16.706  0.00  0.00    +0.316 C 
BRANCH  17  18
ATOM     18  O   UNL     1      35.803 -22.735 -16.924  0.00  0.00    -0.480 OA
ATOM     19  H   UNL     1      36.223 -22.886 -17.749  0.00  0.00    +0.295 HD
ENDBRANCH  17  18
ENDBRANCH  15  17
ENDBRANCH  14  15
ENDBRANCH   2  14
TORSDOF 9
ENDMDL
MODEL 4
REMARK VINA RESULT:      -6.3     10.787     12.244
REMARK  Name = 6613
REMARK  9 active torsions:
REMARK  status: ('A' for Active; 'I' for Inactive)
REMARK    1  A    between atoms: N_2  and  C_14
REMARK    2  A    between atoms: C_3  and  C_5
REMARK    3  A    between atoms: C_5  and  C_6
REMARK    4  A    between atoms: C_5  and  O_12
REMARK    5  A    between atoms: C_6  and  C_9
REMARK    6  A    between atoms: C_9  and  O_10
REMARK    7  A    between atoms: C_14  and  C_15
REMARK    8  A    between atoms: C_15  and  C_17
REMARK    9  A    between atoms: C_17  and  O_18
REMARK                            x       y       z     vdW  Elec       q    Type
REMARK                         _______ _______ _______ _____ _____    ______ ____
ROOT
ATOM      1  O   UNL     1      35.815 -24.779 -15.557  0.00  0.00    -0.272 OA
ATOM      2  N   UNL     1      34.415 -23.028 -14.959  0.00  0.00    -0.302 N 
ATOM      3  C   UNL     1      35.592 -23.758 -14.909  0.00  0.00    +0.249 C 
ATOM      4  H   UNL     1      34.336 -22.222 -14.398  0.00  0.00    +0.150 HD
ENDROOT
BRANCH   3   5
ATOM      5  C   UNL     1      36.605 -23.178 -13.925  0.00  0.00    +0.189 C 
BRANCH   5   6
ATOM      6  C   UNL     1      36.698 -23.947 -12.573  0.00  0.00    +0.060 C 
ATOM      7  C   UNL     1      37.730 -25.089 -12.726  0.00  0.00    +0.005 C 
ATOM      8  C   UNL     1      35.346 -24.591 -12.210  0.00  0.00    +0.005 C 
BRANCH   6   9
ATOM      9  C   UNL     1      37.156 -23.011 -11.428  0.00  0.00    +0.140 C 
BRANCH   9  10
ATOM     10  O   UNL     1      38.057 -22.019 -11.909  0.00  0.00    -0.382 OA
ATOM     11  H   UNL     1      38.159 -21.323 -11.240  0.00  0.00    +0.210 HD
ENDBRANCH   9  10
ENDBRANCH   6   9
ENDBRANCH   5   6
BRANCH   5  12
ATOM     12  O   UNL     1      37.869 -23.209 -14.582  0.00  0.00    -0.376 OA
ATOM     13  H   UNL     1      37.861 -22.591 -15.329  0.00  0.00    +0.211 HD
ENDBRANCH   5  12
ENDBRANCH   3   5
BRANCH   2  14
ATOM     14  C   UNL     1      33.296 -23.395 -15.798  0.00  0.00    +0.101 C 
BRANCH  14  15
ATOM     15  C   UNL     1      31.967 -23.267 -15.065  0.00  0.00    +0.131 C 
BRANCH  15  17
ATOM     16  O   UNL     1      31.844 -24.995 -13.350  0.00  0.00    -0.250 OA
ATOM     17  C   UNL     1      32.011 -23.822 -13.659  0.00  0.00    +0.316 C 
BRANCH  17  18
ATOM     18  O   UNL     1      32.272 -22.848 -12.748  0.00  0.00    -0.480 OA
ATOM     19  H   UNL     1      31.779 -22.051 -12.762  0.00  0.00    +0.295 HD
ENDBRANCH  17  18
ENDBRANCH  15  17
ENDBRANCH  14  15
ENDBRANCH   2  14
TORSDOF 9
ENDMDL
MODEL 5
REMARK VINA RESULT:      -6.3      1.661      2.247
REMARK  Name = 6613
REMARK  9 active torsions:
REMARK  status: ('A' for Active; 'I' for Inactive)
REMARK    1  A    between atoms: N_2  and  C_14
REMARK    2  A    between atoms: C_3  and  C_5
REMARK    3  A    between atoms: C_5  and  C_6
REMARK    4  A    between atoms: C_5  and  O_12
REMARK    5  A    between atoms: C_6  and  C_9
REMARK    6  A    between atoms: C_9  and  O_10
REMARK    7  A    between atoms: C_14  and  C_15
REMARK    8  A    between atoms: C_15  and  C_17
REMARK    9  A    between atoms: C_17  and  O_18
REMARK                            x       y       z     vdW  Elec       q    Type
REMARK                         _______ _______ _______ _____ _____    ______ ____
ROOT
ATOM      1  O   UNL     1      34.892 -15.690 -20.350  0.00  0.00    -0.272 OA
ATOM      2  N   UNL     1      33.428 -15.450 -22.134  0.00  0.00    -0.302 N 
ATOM      3  C   UNL     1      34.533 -15.982 -21.489  0.00  0.00    +0.249 C 
ATOM      4  H   UNL     1      33.226 -15.753 -23.049  0.00  0.00    +0.150 HD
ENDROOT
BRANCH   3   5
ATOM      5  C   UNL     1      35.303 -16.973 -22.358  0.00  0.00    +0.189 C 
BRANCH   5   6
ATOM      6  C   UNL     1      35.137 -18.463 -21.933  0.00  0.00    +0.060 C 
ATOM      7  C   UNL     1      34.998 -19.327 -23.209  0.00  0.00    +0.005 C 
ATOM      8  C   UNL     1      33.856 -18.660 -21.100  0.00  0.00    +0.005 C 
BRANCH   6   9
ATOM      9  C   UNL     1      36.365 -18.955 -21.129  0.00  0.00    +0.140 C 
BRANCH   9  10
ATOM     10  O   UNL     1      35.978 -19.877 -20.117  0.00  0.00    -0.382 OA
ATOM     11  H   UNL     1      35.910 -19.415 -19.266  0.00  0.00    +0.210 HD
ENDBRANCH   9  10
ENDBRANCH   6   9
ENDBRANCH   5   6
BRANCH   5  12
ATOM     12  O   UNL     1      34.827 -16.799 -23.689  0.00  0.00    -0.376 OA
ATOM     13  H   UNL     1      34.181 -16.076 -23.710  0.00  0.00    +0.211 HD
ENDBRANCH   5  12
ENDBRANCH   3   5
BRANCH   2  14
ATOM     14  C   UNL     1      32.556 -14.472 -21.524  0.00  0.00    +0.101 C 
BRANCH  14  15
ATOM     15  C   UNL     1      32.296 -13.286 -22.446  0.00  0.00    +0.131 C 
BRANCH  15  17
ATOM     16  O   UNL     1      32.685 -13.947 -24.760  0.00  0.00    -0.250 OA
ATOM     17  C   UNL     1      33.061 -13.371 -23.748  0.00  0.00    +0.316 C 
BRANCH  17  18
ATOM     18  O   UNL     1      34.247 -12.712 -23.669  0.00  0.00    -0.480 OA
ATOM     19  H   UNL     1      34.830 -12.880 -22.956  0.00  0.00    +0.295 HD
ENDBRANCH  17  18
ENDBRANCH  15  17
ENDBRANCH  14  15
ENDBRANCH   2  14
TORSDOF 9
ENDMDL
MODEL 6
REMARK VINA RESULT:      -6.3     11.304     13.006
REMARK  Name = 6613
REMARK  9 active torsions:
REMARK  status: ('A' for Active; 'I' for Inactive)
REMARK    1  A    between atoms: N_2  and  C_14
REMARK    2  A    between atoms: C_3  and  C_5
REMARK    3  A    between atoms: C_5  and  C_6
REMARK    4  A    between atoms: C_5  and  O_12
REMARK    5  A    between atoms: C_6  and  C_9
REMARK    6  A    between atoms: C_9  and  O_10
REMARK    7  A    between atoms: C_14  and  C_15
REMARK    8  A    between atoms: C_15  and  C_17
REMARK    9  A    between atoms: C_17  and  O_18
REMARK                            x       y       z     vdW  Elec       q    Type
REMARK                         _______ _______ _______ _____ _____    ______ ____
ROOT
ATOM      1  O   UNL     1      36.811 -26.442 -11.796  0.00  0.00    -0.272 OA
ATOM      2  N   UNL     1      36.326 -24.353 -12.681  0.00  0.00    -0.302 N 
ATOM      3  C   UNL     1      37.156 -25.427 -12.398  0.00  0.00    +0.249 C 
ATOM      4  H   UNL     1      36.701 -23.585 -13.171  0.00  0.00    +0.150 HD
ENDROOT
BRANCH   3   5
ATOM      5  C   UNL     1      38.584 -25.216 -12.893  0.00  0.00    +0.189 C 
BRANCH   5   6
ATOM      6  C   UNL     1      38.780 -25.476 -14.417  0.00  0.00    +0.060 C 
ATOM      7  C   UNL     1      38.429 -24.180 -15.187  0.00  0.00    +0.005 C 
ATOM      8  C   UNL     1      37.829 -26.582 -14.915  0.00  0.00    +0.005 C 
BRANCH   6   9
ATOM      9  C   UNL     1      40.245 -25.863 -14.734  0.00  0.00    +0.140 C 
BRANCH   9  10
ATOM     10  O   UNL     1      41.117 -24.753 -14.557  0.00  0.00    -0.382 OA
ATOM     11  H   UNL     1      41.512 -24.512 -15.409  0.00  0.00    +0.210 HD
ENDBRANCH   9  10
ENDBRANCH   6   9
ENDBRANCH   5   6
BRANCH   5  12
ATOM     12  O   UNL     1      38.922 -23.865 -12.590  0.00  0.00    -0.376 OA
ATOM     13  H   UNL     1      38.137 -23.305 -12.690  0.00  0.00    +0.211 HD
ENDBRANCH   5  12
ENDBRANCH   3   5
BRANCH   2  14
ATOM     14  C   UNL     1      34.936 -24.308 -12.290  0.00  0.00    +0.101 C 
BRANCH  14  15
ATOM     15  C   UNL     1      34.006 -24.249 -13.495  0.00  0.00    +0.131 C 
BRANCH  15  17
ATOM     16  O   UNL     1      35.034 -24.606 -15.676  0.00  0.00    -0.250 OA
ATOM     17  C   UNL     1      34.715 -23.848 -14.770  0.00  0.00    +0.316 C 
BRANCH  17  18
ATOM     18  O   UNL     1      34.961 -22.512 -14.802  0.00  0.00    -0.480 OA
ATOM     19  H   UNL     1      35.293 -22.116 -15.583  0.00  0.00    +0.295 HD
ENDBRANCH  17  18
ENDBRANCH  15  17
ENDBRANCH  14  15
ENDBRANCH   2  14
TORSDOF 9
ENDMDL
MODEL 7
REMARK VINA RESULT:      -6.3     10.522     12.943
REMARK  Name = 6613
REMARK  9 active torsions:
REMARK  status: ('A' for Active; 'I' for Inactive)
REMARK    1  A    between atoms: N_2  and  C_14
REMARK    2  A    between atoms: C_3  and  C_5
REMARK    3  A    between atoms: C_5  and  C_6
REMARK    4  A    between atoms: C_5  and  O_12
REMARK    5  A    between atoms: C_6  and  C_9
REMARK    6  A    between atoms: C_9  and  O_10
REMARK    7  A    between atoms: C_14  and  C_15
REMARK    8  A    between atoms: C_15  and  C_17
REMARK    9  A    between atoms: C_17  and  O_18
REMARK                            x       y       z     vdW  Elec       q    Type
REMARK                         _______ _______ _______ _____ _____    ______ ____
ROOT
ATOM      1  O   UNL     1      36.080 -25.258 -11.794  0.00  0.00    -0.272 OA
ATOM      2  N   UNL     1      37.568 -24.069 -13.119  0.00  0.00    -0.302 N 
ATOM      3  C   UNL     1      36.315 -24.367 -12.608  0.00  0.00    +0.249 C 
ATOM      4  H   UNL     1      37.649 -23.333 -13.769  0.00  0.00    +0.150 HD
ENDROOT
BRANCH   3   5
ATOM      5  C   UNL     1      35.215 -23.481 -13.187  0.00  0.00    +0.189 C 
BRANCH   5   6
ATOM      6  C   UNL     1      34.911 -23.739 -14.694  0.00  0.00    +0.060 C 
ATOM      7  C   UNL     1      33.403 -23.495 -14.941  0.00  0.00    +0.005 C 
ATOM      8  C   UNL     1      35.212 -25.201 -15.076  0.00  0.00    +0.005 C 
BRANCH   6   9
ATOM      9  C   UNL     1      35.725 -22.782 -15.600  0.00  0.00    +0.140 C 
BRANCH   9  10
ATOM     10  O   UNL     1      36.880 -23.431 -16.120  0.00  0.00    -0.382 OA
ATOM     11  H   UNL     1      37.556 -23.494 -15.427  0.00  0.00    +0.210 HD
ENDBRANCH   9  10
ENDBRANCH   6   9
ENDBRANCH   5   6
BRANCH   5  12
ATOM     12  O   UNL     1      34.045 -23.730 -12.413  0.00  0.00    -0.376 OA
ATOM     13  H   UNL     1      33.269 -23.742 -12.994  0.00  0.00    +0.211 HD
ENDBRANCH   5  12
ENDBRANCH   3   5
BRANCH   2  14
ATOM     14  C   UNL     1      38.763 -24.788 -12.742  0.00  0.00    +0.101 C 
BRANCH  14  15
ATOM     15  C   UNL     1      39.076 -25.924 -13.708  0.00  0.00    +0.131 C 
BRANCH  15  17
ATOM     16  O   UNL     1      40.893 -26.066 -15.327  0.00  0.00    -0.250 OA
ATOM     17  C   UNL     1      39.911 -25.482 -14.890  0.00  0.00    +0.316 C 
BRANCH  17  18
ATOM     18  O   UNL     1      39.432 -24.332 -15.433  0.00  0.00    -0.480 OA
ATOM     19  H   UNL     1      39.648 -24.106 -16.316  0.00  0.00    +0.295 HD
ENDBRANCH  17  18
ENDBRANCH  15  17
ENDBRANCH  14  15
ENDBRANCH   2  14
TORSDOF 9
ENDMDL
MODEL 8
REMARK VINA RESULT:      -6.3      2.427      6.204
REMARK  Name = 6613
REMARK  9 active torsions:
REMARK  status: ('A' for Active; 'I' for Inactive)
REMARK    1  A    between atoms: N_2  and  C_14
REMARK    2  A    between atoms: C_3  and  C_5
REMARK    3  A    between atoms: C_5  and  C_6
REMARK    4  A    between atoms: C_5  and  O_12
REMARK    5  A    between atoms: C_6  and  C_9
REMARK    6  A    between atoms: C_9  and  O_10
REMARK    7  A    between atoms: C_14  and  C_15
REMARK    8  A    between atoms: C_15  and  C_17
REMARK    9  A    between atoms: C_17  and  O_18
REMARK                            x       y       z     vdW  Elec       q    Type
REMARK                         _______ _______ _______ _____ _____    ______ ____
ROOT
ATOM      1  O   UNL     1      35.587 -17.471 -20.599  0.00  0.00    -0.272 OA
ATOM      2  N   UNL     1      34.186 -18.891 -21.783  0.00  0.00    -0.302 N 
ATOM      3  C   UNL     1      34.794 -17.675 -21.517  0.00  0.00    +0.249 C 
ATOM      4  H   UNL     1      33.564 -18.949 -22.545  0.00  0.00    +0.150 HD
ENDROOT
BRANCH   3   5
ATOM      5  C   UNL     1      34.357 -16.572 -22.477  0.00  0.00    +0.189 C 
BRANCH   5   6
ATOM      6  C   UNL     1      33.647 -15.368 -21.789  0.00  0.00    +0.060 C 
ATOM      7  C   UNL     1      34.655 -14.680 -20.838  0.00  0.00    +0.005 C 
ATOM      8  C   UNL     1      32.456 -15.843 -20.935  0.00  0.00    +0.005 C 
BRANCH   6   9
ATOM      9  C   UNL     1      33.162 -14.333 -22.834  0.00  0.00    +0.140 C 
BRANCH   9  10
ATOM     10  O   UNL     1      34.237 -13.514 -23.279  0.00  0.00    -0.382 OA
ATOM     11  H   UNL     1      34.922 -14.069 -23.684  0.00  0.00    +0.210 HD
ENDBRANCH   9  10
ENDBRANCH   6   9
ENDBRANCH   5   6
BRANCH   5  12
ATOM     12  O   UNL     1      35.535 -16.120 -23.138  0.00  0.00    -0.376 OA
ATOM     13  H   UNL     1      35.338 -15.312 -23.636  0.00  0.00    +0.211 HD
ENDBRANCH   5  12
ENDBRANCH   3   5
BRANCH   2  14
ATOM     14  C   UNL     1      34.421 -20.079 -20.995  0.00  0.00    +0.101 C 
BRANCH  14  15
ATOM     15  C   UNL     1      33.195 -20.478 -20.183  0.00  0.00    +0.131 C 
BRANCH  15  17
ATOM     16  O   UNL     1      32.590 -22.251 -18.623  0.00  0.00    -0.250 OA
ATOM     17  C   UNL     1      33.432 -21.694 -19.315  0.00  0.00    +0.316 C 
BRANCH  17  18
ATOM     18  O   UNL     1      34.721 -22.117 -19.395  0.00  0.00    -0.480 OA
ATOM     19  H   UNL     1      35.127 -22.225 -20.233  0.00  0.00    +0.295 HD
ENDBRANCH  17  18
ENDBRANCH  15  17
ENDBRANCH  14  15
ENDBRANCH   2  14
TORSDOF 9
ENDMDL
MODEL 9
REMARK VINA RESULT:      -6.2      2.084      2.743
REMARK  Name = 6613
REMARK  9 active torsions:
REMARK  status: ('A' for Active; 'I' for Inactive)
REMARK    1  A    between atoms: N_2  and  C_14
REMARK    2  A    between atoms: C_3  and  C_5
REMARK    3  A    between atoms: C_5  and  C_6
REMARK    4  A    between atoms: C_5  and  O_12
REMARK    5  A    between atoms: C_6  and  C_9
REMARK    6  A    between atoms: C_9  and  O_10
REMARK    7  A    between atoms: C_14  and  C_15
REMARK    8  A    between atoms: C_15  and  C_17
REMARK    9  A    between atoms: C_17  and  O_18
REMARK                            x       y       z     vdW  Elec       q    Type
REMARK                         _______ _______ _______ _____ _____    ______ ____
ROOT
ATOM      1  O   UNL     1      35.527 -15.916 -23.142  0.00  0.00    -0.272 OA
ATOM      2  N   UNL     1      33.299 -15.400 -22.748  0.00  0.00    -0.302 N 
ATOM      3  C   UNL     1      34.486 -16.074 -22.506  0.00  0.00    +0.249 C 
ATOM      4  H   UNL     1      32.521 -15.601 -22.179  0.00  0.00    +0.150 HD
ENDROOT
BRANCH   3   5
ATOM      5  C   UNL     1      34.372 -17.079 -21.364  0.00  0.00    +0.189 C 
BRANCH   5   6
ATOM      6  C   UNL     1      34.814 -18.526 -21.737  0.00  0.00    +0.060 C 
ATOM      7  C   UNL     1      34.577 -18.738 -23.252  0.00  0.00    +0.005 C 
ATOM      8  C   UNL     1      33.968 -19.573 -20.986  0.00  0.00    +0.005 C 
BRANCH   6   9
ATOM      9  C   UNL     1      36.315 -18.749 -21.431  0.00  0.00    +0.140 C 
BRANCH   9  10
ATOM     10  O   UNL     1      36.493 -19.356 -20.156  0.00  0.00    -0.382 OA
ATOM     11  H   UNL     1      36.981 -20.188 -20.259  0.00  0.00    +0.210 HD
ENDBRANCH   9  10
ENDBRANCH   6   9
ENDBRANCH   5   6
BRANCH   5  12
ATOM     12  O   UNL     1      35.192 -16.586 -20.308  0.00  0.00    -0.376 OA
ATOM     13  H   UNL     1      34.650 -16.072 -19.690  0.00  0.00    +0.211 HD
ENDBRANCH   5  12
ENDBRANCH   3   5
BRANCH   2  14
ATOM     14  C   UNL     1      33.151 -14.417 -23.796  0.00  0.00    +0.101 C 
BRANCH  14  15
ATOM     15  C   UNL     1      33.083 -12.999 -23.244  0.00  0.00    +0.131 C 
BRANCH  15  17
ATOM     16  O   UNL     1      32.445 -13.439 -20.933  0.00  0.00    -0.250 OA
ATOM     17  C   UNL     1      32.225 -12.889 -22.003  0.00  0.00    +0.316 C 
BRANCH  17  18
ATOM     18  O   UNL     1      31.152 -12.082 -22.213  0.00  0.00    -0.480 OA
ATOM     19  H   UNL     1      30.295 -12.368 -21.964  0.00  0.00    +0.295 HD
ENDBRANCH  17  18
ENDBRANCH  15  17
ENDBRANCH  14  15
ENDBRANCH   2  14
TORSDOF 9
ENDMDL
