MODEL 1
REMARK VINA RESULT:      -9.2      0.000      0.000
REMARK  Name = 8944
REMARK  8 active torsions:
REMARK  status: ('A' for Active; 'I' for Inactive)
REMARK    1  A    between atoms: N_1  and  C_19
REMARK    2  A    between atoms: C_2  and  C_8
REMARK    3  A    between atoms: C_2  and  C_15
REMARK    4  A    between atoms: C_15  and  O_16
REMARK    5  A    between atoms: O_16  and  C_17
REMARK    6  A    between atoms: C_19  and  C_20
REMARK    7  A    between atoms: C_20  and  C_21
REMARK    8  A    between atoms: C_26  and  N_27
REMARK                            x       y       z     vdW  Elec       q    Type
REMARK                         _______ _______ _______ _____ _____    ______ ____
ROOT
ATOM      1  N   UNL     1      34.755 -22.472 -17.205  0.00  0.00    +0.387 N 
ATOM      2  C   UNL     1      35.812 -23.808 -14.758  0.00  0.00    +0.104 C 
ATOM      3  C   UNL     1      36.541 -22.667 -15.511  0.00  0.00    -0.008 C 
ATOM      4  C   UNL     1      34.306 -23.732 -15.118  0.00  0.00    -0.008 C 
ATOM      5  C   UNL     1      36.200 -22.607 -17.004  0.00  0.00    -0.076 C 
ATOM      6  C   UNL     1      34.042 -23.613 -16.624  0.00  0.00    -0.076 C 
ATOM      7  H   UNL     1      34.444 -21.626 -16.729  0.00  0.00    -0.080 HD
ENDROOT
BRANCH   2   8
ATOM      8  C   UNL     1      36.001 -23.775 -13.232  0.00  0.00    -0.013 C 
ATOM      9  C   UNL     1      36.980 -22.957 -12.674  0.00  0.00    -0.004 C 
ATOM     10  C   UNL     1      35.193 -24.562 -12.416  0.00  0.00    -0.004 C 
ATOM     11  C   UNL     1      37.151 -22.926 -11.289  0.00  0.00    -0.000 C 
ATOM     12  C   UNL     1      35.364 -24.532 -11.033  0.00  0.00    -0.000 C 
ATOM     13  C   UNL     1      36.343 -23.714 -10.469  0.00  0.00    -0.000 C 
ENDBRANCH   2   8
BRANCH   2  15
ATOM     14  O   UNL     1      35.703 -26.072 -15.615  0.00  0.00    -0.250 OA
ATOM     15  C   UNL     1      36.384 -25.122 -15.254  0.00  0.00    +0.320 C 
BRANCH  15  16
ATOM     16  O   UNL     1      37.746 -25.065 -15.228  0.00  0.00    -0.448 OA
BRANCH  16  17
ATOM     17  C   UNL     1      38.392 -26.126 -14.519  0.00  0.00    +0.209 C 
ATOM     18  C   UNL     1      39.513 -25.549 -13.682  0.00  0.00    +0.051 C 
ENDBRANCH  16  17
ENDBRANCH  15  16
ENDBRANCH   2  15
BRANCH   1  19
ATOM     19  C   UNL     1      34.444 -22.345 -18.629  0.00  0.00    -0.073 C 
BRANCH  19  20
ATOM     20  C   UNL     1      35.660 -21.851 -19.412  0.00  0.00    +0.004 C 
BRANCH  20  21
ATOM     21  C   UNL     1      35.353 -20.583 -20.169  0.00  0.00    -0.024 C 
ATOM     22  C   UNL     1      34.034 -20.258 -20.446  0.00  0.00    -0.003 C 
ATOM     23  C   UNL     1      36.395 -19.762 -20.574  0.00  0.00    -0.003 C 
ATOM     24  C   UNL     1      33.750 -19.085 -21.146  0.00  0.00    +0.014 C 
ATOM     25  C   UNL     1      36.111 -18.589 -21.273  0.00  0.00    +0.014 C 
ATOM     26  C   UNL     1      34.787 -18.250 -21.559  0.00  0.00    +0.042 C 
BRANCH  26  27
ATOM     27  N   UNL     1      34.500 -17.064 -22.265  0.00  0.00    -0.357 N 
ATOM     28  H   UNL     1      34.724 -16.190 -21.871  0.00  0.00    +0.142 HD
ATOM     29  H   UNL     1      34.075 -17.110 -23.152  0.00  0.00    +0.142 HD
ENDBRANCH  26  27
ENDBRANCH  20  21
ENDBRANCH  19  20
ENDBRANCH   1  19
TORSDOF 8
ENDMDL
MODEL 2
REMARK VINA RESULT:      -9.0     10.880     16.551
REMARK  Name = 8944
REMARK  8 active torsions:
REMARK  status: ('A' for Active; 'I' for Inactive)
REMARK    1  A    between atoms: N_1  and  C_19
REMARK    2  A    between atoms: C_2  and  C_8
REMARK    3  A    between atoms: C_2  and  C_15
REMARK    4  A    between atoms: C_15  and  O_16
REMARK    5  A    between atoms: O_16  and  C_17
REMARK    6  A    between atoms: C_19  and  C_20
REMARK    7  A    between atoms: C_20  and  C_21
REMARK    8  A    between atoms: C_26  and  N_27
REMARK                            x       y       z     vdW  Elec       q    Type
REMARK                         _______ _______ _______ _____ _____    ______ ____
ROOT
ATOM      1  N   UNL     1      31.597  -9.658 -21.033  0.00  0.00    +0.387 N 
ATOM      2  C   UNL     1      32.458  -7.451 -22.844  0.00  0.00    +0.104 C 
ATOM      3  C   UNL     1      31.457  -8.565 -23.244  0.00  0.00    -0.008 C 
ATOM      4  C   UNL     1      32.472  -7.354 -21.297  0.00  0.00    -0.008 C 
ATOM      5  C   UNL     1      31.670  -9.878 -22.480  0.00  0.00    -0.076 C 
ATOM      6  C   UNL     1      32.628  -8.711 -20.599  0.00  0.00    -0.076 C 
ATOM      7  H   UNL     1      30.684  -9.258 -20.817  0.00  0.00    -0.080 HD
ENDROOT
BRANCH   2   8
ATOM      8  C   UNL     1      32.150  -6.079 -23.467  0.00  0.00    -0.013 C 
ATOM      9  C   UNL     1      32.422  -5.853 -24.813  0.00  0.00    -0.004 C 
ATOM     10  C   UNL     1      31.600  -5.070 -22.680  0.00  0.00    -0.004 C 
ATOM     11  C   UNL     1      32.142  -4.607 -25.377  0.00  0.00    -0.000 C 
ATOM     12  C   UNL     1      31.321  -3.826 -23.243  0.00  0.00    -0.000 C 
ATOM     13  C   UNL     1      31.592  -3.594 -24.592  0.00  0.00    -0.000 C 
ENDBRANCH   2   8
BRANCH   2  15
ATOM     14  O   UNL     1      34.877  -7.365 -22.958  0.00  0.00    -0.250 OA
ATOM     15  C   UNL     1      33.829  -7.871 -23.336  0.00  0.00    +0.320 C 
BRANCH  15  16
ATOM     16  O   UNL     1      33.698  -8.880 -24.245  0.00  0.00    -0.448 OA
BRANCH  16  17
ATOM     17  C   UNL     1      34.855  -9.704 -24.419  0.00  0.00    +0.209 C 
ATOM     18  C   UNL     1      34.436 -11.013 -25.053  0.00  0.00    +0.051 C 
ENDBRANCH  16  17
ENDBRANCH  15  16
ENDBRANCH   2  15
BRANCH   1  19
ATOM     19  C   UNL     1      31.730 -10.925 -20.313  0.00  0.00    -0.073 C 
BRANCH  19  20
ATOM     20  C   UNL     1      31.108 -12.073 -21.109  0.00  0.00    +0.004 C 
BRANCH  20  21
ATOM     21  C   UNL     1      32.129 -13.132 -21.441  0.00  0.00    -0.024 C 
ATOM     22  C   UNL     1      32.539 -13.295 -22.756  0.00  0.00    -0.003 C 
ATOM     23  C   UNL     1      32.643 -13.926 -20.426  0.00  0.00    -0.003 C 
ATOM     24  C   UNL     1      33.483 -14.274 -23.063  0.00  0.00    +0.014 C 
ATOM     25  C   UNL     1      33.588 -14.904 -20.733  0.00  0.00    +0.014 C 
ATOM     26  C   UNL     1      34.009 -15.079 -22.052  0.00  0.00    +0.042 C 
BRANCH  26  27
ATOM     27  N   UNL     1      34.964 -16.068 -22.363  0.00  0.00    -0.357 N 
ATOM     28  H   UNL     1      34.683 -16.900 -22.808  0.00  0.00    +0.142 HD
ATOM     29  H   UNL     1      35.911 -15.928 -22.133  0.00  0.00    +0.142 HD
ENDBRANCH  26  27
ENDBRANCH  20  21
ENDBRANCH  19  20
ENDBRANCH   1  19
TORSDOF 8
ENDMDL
MODEL 3
REMARK VINA RESULT:      -8.9      4.079      9.770
REMARK  Name = 8944
REMARK  8 active torsions:
REMARK  status: ('A' for Active; 'I' for Inactive)
REMARK    1  A    between atoms: N_1  and  C_19
REMARK    2  A    between atoms: C_2  and  C_8
REMARK    3  A    between atoms: C_2  and  C_15
REMARK    4  A    between atoms: C_15  and  O_16
REMARK    5  A    between atoms: O_16  and  C_17
REMARK    6  A    between atoms: C_19  and  C_20
REMARK    7  A    between atoms: C_20  and  C_21
REMARK    8  A    between atoms: C_26  and  N_27
REMARK                            x       y       z     vdW  Elec       q    Type
REMARK                         _______ _______ _______ _____ _____    ______ ____
ROOT
ATOM      1  N   UNL     1      35.061 -20.454 -19.843  0.00  0.00    +0.387 N 
ATOM      2  C   UNL     1      34.589 -18.092 -21.600  0.00  0.00    +0.104 C 
ATOM      3  C   UNL     1      33.476 -19.061 -21.127  0.00  0.00    -0.008 C 
ATOM      4  C   UNL     1      35.778 -18.209 -20.612  0.00  0.00    -0.008 C 
ATOM      5  C   UNL     1      33.985 -20.478 -20.837  0.00  0.00    -0.076 C 
ATOM      6  C   UNL     1      36.193 -19.657 -20.323  0.00  0.00    -0.076 C 
ATOM      7  H   UNL     1      34.701 -20.019 -18.994  0.00  0.00    -0.080 HD
ENDROOT
BRANCH   2   8
ATOM      8  C   UNL     1      34.136 -16.627 -21.724  0.00  0.00    -0.013 C 
ATOM      9  C   UNL     1      32.978 -16.205 -21.077  0.00  0.00    -0.004 C 
ATOM     10  C   UNL     1      34.886 -15.732 -22.481  0.00  0.00    -0.004 C 
ATOM     11  C   UNL     1      32.567 -14.876 -21.188  0.00  0.00    -0.000 C 
ATOM     12  C   UNL     1      34.475 -14.404 -22.593  0.00  0.00    -0.000 C 
ATOM     13  C   UNL     1      33.315 -13.976 -21.947  0.00  0.00    -0.000 C 
ENDBRANCH   2   8
BRANCH   2  15
ATOM     14  O   UNL     1      36.201 -18.702 -23.304  0.00  0.00    -0.250 OA
ATOM     15  C   UNL     1      35.032 -18.544 -22.978  0.00  0.00    +0.320 C 
BRANCH  15  16
ATOM     16  O   UNL     1      33.938 -18.736 -23.768  0.00  0.00    -0.448 OA
BRANCH  16  17
ATOM     17  C   UNL     1      34.150 -18.543 -25.170  0.00  0.00    +0.209 C 
ATOM     18  C   UNL     1      34.057 -17.065 -25.483  0.00  0.00    +0.051 C 
ENDBRANCH  16  17
ENDBRANCH  15  16
ENDBRANCH   2  15
BRANCH   1  19
ATOM     19  C   UNL     1      35.493 -21.815 -19.520  0.00  0.00    -0.073 C 
BRANCH  19  20
ATOM     20  C   UNL     1      34.290 -22.729 -19.288  0.00  0.00    +0.004 C 
BRANCH  20  21
ATOM     21  C   UNL     1      34.008 -22.908 -17.817  0.00  0.00    -0.024 C 
ATOM     22  C   UNL     1      32.705 -23.123 -17.394  0.00  0.00    -0.003 C 
ATOM     23  C   UNL     1      35.058 -22.854 -16.911  0.00  0.00    -0.003 C 
ATOM     24  C   UNL     1      32.446 -23.289 -16.033  0.00  0.00    +0.014 C 
ATOM     25  C   UNL     1      34.798 -23.020 -15.551  0.00  0.00    +0.014 C 
ATOM     26  C   UNL     1      33.491 -23.238 -15.112  0.00  0.00    +0.042 C 
BRANCH  26  27
ATOM     27  N   UNL     1      33.228 -23.406 -13.736  0.00  0.00    -0.357 N 
ATOM     28  H   UNL     1      32.803 -24.234 -13.414  0.00  0.00    +0.142 HD
ATOM     29  H   UNL     1      33.470 -22.696 -13.099  0.00  0.00    +0.142 HD
ENDBRANCH  26  27
ENDBRANCH  20  21
ENDBRANCH  19  20
ENDBRANCH   1  19
TORSDOF 8
ENDMDL
MODEL 4
REMARK VINA RESULT:      -8.8     10.383     16.180
REMARK  Name = 8944
REMARK  8 active torsions:
REMARK  status: ('A' for Active; 'I' for Inactive)
REMARK    1  A    between atoms: N_1  and  C_19
REMARK    2  A    between atoms: C_2  and  C_8
REMARK    3  A    between atoms: C_2  and  C_15
REMARK    4  A    between atoms: C_15  and  O_16
REMARK    5  A    between atoms: O_16  and  C_17
REMARK    6  A    between atoms: C_19  and  C_20
REMARK    7  A    between atoms: C_20  and  C_21
REMARK    8  A    between atoms: C_26  and  N_27
REMARK                            x       y       z     vdW  Elec       q    Type
REMARK                         _______ _______ _______ _____ _____    ______ ____
ROOT
ATOM      1  N   UNL     1      33.372 -10.555 -24.154  0.00  0.00    +0.387 N 
ATOM      2  C   UNL     1      32.713  -7.816 -23.176  0.00  0.00    +0.104 C 
ATOM      3  C   UNL     1      34.052  -8.199 -23.854  0.00  0.00    -0.008 C 
ATOM      4  C   UNL     1      31.649  -8.863 -23.593  0.00  0.00    -0.008 C 
ATOM      5  C   UNL     1      34.433  -9.672 -23.662  0.00  0.00    -0.076 C 
ATOM      6  C   UNL     1      32.120 -10.313 -23.430  0.00  0.00    -0.076 C 
ATOM      7  H   UNL     1      33.216 -10.347 -25.140  0.00  0.00    -0.080 HD
ENDROOT
BRANCH   2   8
ATOM      8  C   UNL     1      32.227  -6.394 -23.506  0.00  0.00    -0.013 C 
ATOM      9  C   UNL     1      31.516  -5.668 -22.554  0.00  0.00    -0.004 C 
ATOM     10  C   UNL     1      32.500  -5.842 -24.754  0.00  0.00    -0.004 C 
ATOM     11  C   UNL     1      31.075  -4.378 -22.854  0.00  0.00    -0.000 C 
ATOM     12  C   UNL     1      32.059  -4.553 -25.054  0.00  0.00    -0.000 C 
ATOM     13  C   UNL     1      31.347  -3.821 -24.104  0.00  0.00    -0.000 C 
ENDBRANCH   2   8
BRANCH   2  15
ATOM     14  O   UNL     1      33.902  -7.420 -21.102  0.00  0.00    -0.250 OA
ATOM     15  C   UNL     1      32.926  -7.882 -21.676  0.00  0.00    +0.320 C 
BRANCH  15  16
ATOM     16  O   UNL     1      31.874  -8.527 -21.095  0.00  0.00    -0.448 OA
BRANCH  16  17
ATOM     17  C   UNL     1      32.152  -9.145 -19.835  0.00  0.00    +0.209 C 
ATOM     18  C   UNL     1      31.381 -10.443 -19.741  0.00  0.00    +0.051 C 
ENDBRANCH  16  17
ENDBRANCH  15  16
ENDBRANCH   2  15
BRANCH   1  19
ATOM     19  C   UNL     1      33.772 -11.957 -24.031  0.00  0.00    -0.073 C 
BRANCH  19  20
ATOM     20  C   UNL     1      32.784 -12.733 -23.160  0.00  0.00    +0.004 C 
BRANCH  20  21
ATOM     21  C   UNL     1      33.436 -13.934 -22.521  0.00  0.00    -0.024 C 
ATOM     22  C   UNL     1      33.222 -14.190 -21.175  0.00  0.00    -0.003 C 
ATOM     23  C   UNL     1      34.239 -14.762 -23.291  0.00  0.00    -0.003 C 
ATOM     24  C   UNL     1      33.825 -15.300 -20.585  0.00  0.00    +0.014 C 
ATOM     25  C   UNL     1      34.842 -15.873 -22.701  0.00  0.00    +0.014 C 
ATOM     26  C   UNL     1      34.634 -16.143 -21.347  0.00  0.00    +0.042 C 
BRANCH  26  27
ATOM     27  N   UNL     1      35.243 -17.266 -20.750  0.00  0.00    -0.357 N 
ATOM     28  H   UNL     1      35.283 -18.121 -21.238  0.00  0.00    +0.142 HD
ATOM     29  H   UNL     1      35.628 -17.195 -19.847  0.00  0.00    +0.142 HD
ENDBRANCH  26  27
ENDBRANCH  20  21
ENDBRANCH  19  20
ENDBRANCH   1  19
TORSDOF 8
ENDMDL
MODEL 5
REMARK VINA RESULT:      -8.8      6.886     10.358
REMARK  Name = 8944
REMARK  8 active torsions:
REMARK  status: ('A' for Active; 'I' for Inactive)
REMARK    1  A    between atoms: N_1  and  C_19
REMARK    2  A    between atoms: C_2  and  C_8
REMARK    3  A    between atoms: C_2  and  C_15
REMARK    4  A    between atoms: C_15  and  O_16
REMARK    5  A    between atoms: O_16  and  C_17
REMARK    6  A    between atoms: C_19  and  C_20
REMARK    7  A    between atoms: C_20  and  C_21
REMARK    8  A    between atoms: C_26  and  N_27
REMARK                            x       y       z     vdW  Elec       q    Type
REMARK                         _______ _______ _______ _____ _____    ______ ____
ROOT
ATOM      1  N   UNL     1      32.889 -14.317 -20.731  0.00  0.00    +0.387 N 
ATOM      2  C   UNL     1      34.264 -16.856 -21.478  0.00  0.00    +0.104 C 
ATOM      3  C   UNL     1      34.911 -15.732 -20.629  0.00  0.00    -0.008 C 
ATOM      4  C   UNL     1      32.724 -16.705 -21.377  0.00  0.00    -0.008 C 
ATOM      5  C   UNL     1      34.341 -14.340 -20.925  0.00  0.00    -0.076 C 
ATOM      6  C   UNL     1      32.231 -15.274 -21.626  0.00  0.00    -0.076 C 
ATOM      7  H   UNL     1      32.691 -14.592 -19.769  0.00  0.00    -0.080 HD
ENDROOT
BRANCH   2   8
ATOM      8  C   UNL     1      34.692 -18.276 -21.071  0.00  0.00    -0.013 C 
ATOM      9  C   UNL     1      36.045 -18.590 -20.978  0.00  0.00    -0.004 C 
ATOM     10  C   UNL     1      33.725 -19.239 -20.799  0.00  0.00    -0.004 C 
ATOM     11  C   UNL     1      36.434 -19.878 -20.608  0.00  0.00    -0.000 C 
ATOM     12  C   UNL     1      34.113 -20.527 -20.430  0.00  0.00    -0.000 C 
ATOM     13  C   UNL     1      35.467 -20.847 -20.335  0.00  0.00    -0.000 C 
ENDBRANCH   2   8
BRANCH   2  15
ATOM     14  O   UNL     1      35.632 -15.935 -23.253  0.00  0.00    -0.250 OA
ATOM     15  C   UNL     1      34.697 -16.648 -22.916  0.00  0.00    +0.320 C 
BRANCH  15  16
ATOM     16  O   UNL     1      33.890 -17.371 -23.744  0.00  0.00    -0.448 OA
BRANCH  16  17
ATOM     17  C   UNL     1      34.549 -18.004 -24.845  0.00  0.00    +0.209 C 
ATOM     18  C   UNL     1      34.874 -19.434 -24.470  0.00  0.00    +0.051 C 
ENDBRANCH  16  17
ENDBRANCH  15  16
ENDBRANCH   2  15
BRANCH   1  19
ATOM     19  C   UNL     1      32.363 -12.969 -20.947  0.00  0.00    -0.073 C 
BRANCH  19  20
ATOM     20  C   UNL     1      32.094 -12.719 -22.431  0.00  0.00    +0.004 C 
BRANCH  20  21
ATOM     21  C   UNL     1      32.707 -11.420 -22.892  0.00  0.00    -0.024 C 
ATOM     22  C   UNL     1      32.231 -10.222 -22.379  0.00  0.00    -0.003 C 
ATOM     23  C   UNL     1      33.736 -11.444 -23.821  0.00  0.00    -0.003 C 
ATOM     24  C   UNL     1      32.798  -9.021 -22.806  0.00  0.00    +0.014 C 
ATOM     25  C   UNL     1      34.304 -10.243 -24.247  0.00  0.00    +0.014 C 
ATOM     26  C   UNL     1      33.834  -9.031 -23.739  0.00  0.00    +0.042 C 
BRANCH  26  27
ATOM     27  N   UNL     1      34.408  -7.817 -24.169  0.00  0.00    -0.357 N 
ATOM     28  H   UNL     1      33.831  -7.089 -24.497  0.00  0.00    +0.142 HD
ATOM     29  H   UNL     1      35.384  -7.697 -24.142  0.00  0.00    +0.142 HD
ENDBRANCH  26  27
ENDBRANCH  20  21
ENDBRANCH  19  20
ENDBRANCH   1  19
TORSDOF 8
ENDMDL
MODEL 6
REMARK VINA RESULT:      -8.6      3.852     10.241
REMARK  Name = 8944
REMARK  8 active torsions:
REMARK  status: ('A' for Active; 'I' for Inactive)
REMARK    1  A    between atoms: N_1  and  C_19
REMARK    2  A    between atoms: C_2  and  C_8
REMARK    3  A    between atoms: C_2  and  C_15
REMARK    4  A    between atoms: C_15  and  O_16
REMARK    5  A    between atoms: O_16  and  C_17
REMARK    6  A    between atoms: C_19  and  C_20
REMARK    7  A    between atoms: C_20  and  C_21
REMARK    8  A    between atoms: C_26  and  N_27
REMARK                            x       y       z     vdW  Elec       q    Type
REMARK                         _______ _______ _______ _____ _____    ______ ____
ROOT
ATOM      1  N   UNL     1      35.866 -20.351 -20.764  0.00  0.00    +0.387 N 
ATOM      2  C   UNL     1      34.867 -17.883 -22.106  0.00  0.00    +0.104 C 
ATOM      3  C   UNL     1      36.365 -18.255 -21.972  0.00  0.00    -0.008 C 
ATOM      4  C   UNL     1      34.036 -19.183 -21.962  0.00  0.00    -0.008 C 
ATOM      5  C   UNL     1      36.669 -19.126 -20.747  0.00  0.00    -0.076 C 
ATOM      6  C   UNL     1      34.435 -20.033 -20.749  0.00  0.00    -0.076 C 
ATOM      7  H   UNL     1      36.072 -20.856 -21.626  0.00  0.00    -0.080 HD
ENDROOT
BRANCH   2   8
ATOM      8  C   UNL     1      34.515 -17.163 -23.419  0.00  0.00    -0.013 C 
ATOM      9  C   UNL     1      34.451 -15.773 -23.451  0.00  0.00    -0.004 C 
ATOM     10  C   UNL     1      34.263 -17.906 -24.570  0.00  0.00    -0.004 C 
ATOM     11  C   UNL     1      34.132 -15.120 -24.642  0.00  0.00    -0.000 C 
ATOM     12  C   UNL     1      33.943 -17.254 -25.760  0.00  0.00    -0.000 C 
ATOM     13  C   UNL     1      33.878 -15.861 -25.797  0.00  0.00    -0.000 C 
ENDBRANCH   2   8
BRANCH   2  15
ATOM     14  O   UNL     1      35.356 -16.459 -20.208  0.00  0.00    -0.250 OA
ATOM     15  C   UNL     1      34.528 -16.938 -20.970  0.00  0.00    +0.320 C 
BRANCH  15  16
ATOM     16  O   UNL     1      33.182 -16.723 -20.943  0.00  0.00    -0.448 OA
BRANCH  16  17
ATOM     17  C   UNL     1      32.759 -15.564 -20.217  0.00  0.00    +0.209 C 
ATOM     18  C   UNL     1      32.403 -14.469 -21.200  0.00  0.00    +0.051 C 
ENDBRANCH  16  17
ENDBRANCH  15  16
ENDBRANCH   2  15
BRANCH   1  19
ATOM     19  C   UNL     1      36.212 -21.209 -19.630  0.00  0.00    -0.073 C 
BRANCH  19  20
ATOM     20  C   UNL     1      35.027 -22.086 -19.227  0.00  0.00    +0.004 C 
BRANCH  20  21
ATOM     21  C   UNL     1      35.074 -22.440 -17.761  0.00  0.00    -0.024 C 
ATOM     22  C   UNL     1      36.227 -22.179 -17.035  0.00  0.00    -0.003 C 
ATOM     23  C   UNL     1      33.965 -23.020 -17.164  0.00  0.00    -0.003 C 
ATOM     24  C   UNL     1      36.271 -22.506 -15.680  0.00  0.00    +0.014 C 
ATOM     25  C   UNL     1      34.009 -23.346 -15.809  0.00  0.00    +0.014 C 
ATOM     26  C   UNL     1      35.162 -23.089 -15.066  0.00  0.00    +0.042 C 
BRANCH  26  27
ATOM     27  N   UNL     1      35.206 -23.419 -13.696  0.00  0.00    -0.357 N 
ATOM     28  H   UNL     1      35.356 -24.352 -13.419  0.00  0.00    +0.142 HD
ATOM     29  H   UNL     1      35.087 -22.717 -13.016  0.00  0.00    +0.142 HD
ENDBRANCH  26  27
ENDBRANCH  20  21
ENDBRANCH  19  20
ENDBRANCH   1  19
TORSDOF 8
ENDMDL
MODEL 7
REMARK VINA RESULT:      -8.5      6.241     11.680
REMARK  Name = 8944
REMARK  8 active torsions:
REMARK  status: ('A' for Active; 'I' for Inactive)
REMARK    1  A    between atoms: N_1  and  C_19
REMARK    2  A    between atoms: C_2  and  C_8
REMARK    3  A    between atoms: C_2  and  C_15
REMARK    4  A    between atoms: C_15  and  O_16
REMARK    5  A    between atoms: O_16  and  C_17
REMARK    6  A    between atoms: C_19  and  C_20
REMARK    7  A    between atoms: C_20  and  C_21
REMARK    8  A    between atoms: C_26  and  N_27
REMARK                            x       y       z     vdW  Elec       q    Type
REMARK                         _______ _______ _______ _____ _____    ______ ____
ROOT
ATOM      1  N   UNL     1      34.474 -16.554 -20.940  0.00  0.00    +0.387 N 
ATOM      2  C   UNL     1      33.015 -14.051 -21.647  0.00  0.00    +0.104 C 
ATOM      3  C   UNL     1      32.326 -15.412 -21.371  0.00  0.00    -0.008 C 
ATOM      4  C   UNL     1      34.410 -14.076 -20.972  0.00  0.00    -0.008 C 
ATOM      5  C   UNL     1      33.216 -16.620 -21.689  0.00  0.00    -0.076 C 
ATOM      6  C   UNL     1      35.220 -15.340 -21.286  0.00  0.00    -0.076 C 
ATOM      7  H   UNL     1      34.252 -16.520 -19.946  0.00  0.00    -0.080 HD
ENDROOT
BRANCH   2   8
ATOM      8  C   UNL     1      32.208 -12.832 -21.168  0.00  0.00    -0.013 C 
ATOM      9  C   UNL     1      31.453 -12.101 -22.081  0.00  0.00    -0.004 C 
ATOM     10  C   UNL     1      32.238 -12.466 -19.825  0.00  0.00    -0.004 C 
ATOM     11  C   UNL     1      30.721 -10.995 -21.646  0.00  0.00    -0.000 C 
ATOM     12  C   UNL     1      31.507 -11.360 -19.391  0.00  0.00    -0.000 C 
ATOM     13  C   UNL     1      30.749 -10.624 -20.302  0.00  0.00    -0.000 C 
ENDBRANCH   2   8
BRANCH   2  15
ATOM     14  O   UNL     1      32.573 -14.596 -23.966  0.00  0.00    -0.250 OA
ATOM     15  C   UNL     1      33.182 -13.920 -23.148  0.00  0.00    +0.320 C 
BRANCH  15  16
ATOM     16  O   UNL     1      34.100 -12.950 -23.421  0.00  0.00    -0.448 OA
BRANCH  16  17
ATOM     17  C   UNL     1      33.877 -12.215 -24.628  0.00  0.00    +0.209 C 
ATOM     18  C   UNL     1      34.121 -10.745 -24.363  0.00  0.00    +0.051 C 
ENDBRANCH  16  17
ENDBRANCH  15  16
ENDBRANCH   2  15
BRANCH   1  19
ATOM     19  C   UNL     1      35.286 -17.744 -21.195  0.00  0.00    -0.073 C 
BRANCH  19  20
ATOM     20  C   UNL     1      34.431 -18.879 -21.758  0.00  0.00    +0.004 C 
BRANCH  20  21
ATOM     21  C   UNL     1      34.264 -19.994 -20.756  0.00  0.00    -0.024 C 
ATOM     22  C   UNL     1      32.995 -20.316 -20.299  0.00  0.00    -0.003 C 
ATOM     23  C   UNL     1      35.384 -20.680 -20.309  0.00  0.00    -0.003 C 
ATOM     24  C   UNL     1      32.842 -21.348 -19.373  0.00  0.00    +0.014 C 
ATOM     25  C   UNL     1      35.230 -21.713 -19.383  0.00  0.00    +0.014 C 
ATOM     26  C   UNL     1      33.958 -22.047 -18.915  0.00  0.00    +0.042 C 
BRANCH  26  27
ATOM     27  N   UNL     1      33.803 -23.090 -17.979  0.00  0.00    -0.357 N 
ATOM     28  H   UNL     1      34.595 -23.486 -17.548  0.00  0.00    +0.142 HD
ATOM     29  H   UNL     1      32.903 -23.422 -17.758  0.00  0.00    +0.142 HD
ENDBRANCH  26  27
ENDBRANCH  20  21
ENDBRANCH  19  20
ENDBRANCH   1  19
TORSDOF 8
ENDMDL
MODEL 8
REMARK VINA RESULT:      -8.3      6.021      9.941
REMARK  Name = 8944
REMARK  8 active torsions:
REMARK  status: ('A' for Active; 'I' for Inactive)
REMARK    1  A    between atoms: N_1  and  C_19
REMARK    2  A    between atoms: C_2  and  C_8
REMARK    3  A    between atoms: C_2  and  C_15
REMARK    4  A    between atoms: C_15  and  O_16
REMARK    5  A    between atoms: O_16  and  C_17
REMARK    6  A    between atoms: C_19  and  C_20
REMARK    7  A    between atoms: C_20  and  C_21
REMARK    8  A    between atoms: C_26  and  N_27
REMARK                            x       y       z     vdW  Elec       q    Type
REMARK                         _______ _______ _______ _____ _____    ______ ____
ROOT
ATOM      1  N   UNL     1      33.628 -15.207 -21.155  0.00  0.00    +0.387 N 
ATOM      2  C   UNL     1      34.291 -18.102 -21.419  0.00  0.00    +0.104 C 
ATOM      3  C   UNL     1      35.296 -17.018 -20.954  0.00  0.00    -0.008 C 
ATOM      4  C   UNL     1      32.858 -17.563 -21.174  0.00  0.00    -0.008 C 
ATOM      5  C   UNL     1      34.988 -15.623 -21.510  0.00  0.00    -0.076 C 
ATOM      6  C   UNL     1      32.640 -16.140 -21.703  0.00  0.00    -0.076 C 
ATOM      7  H   UNL     1      33.547 -15.217 -20.138  0.00  0.00    -0.080 HD
ENDROOT
BRANCH   2   8
ATOM      8  C   UNL     1      34.477 -19.466 -20.733  0.00  0.00    -0.013 C 
ATOM      9  C   UNL     1      33.363 -20.177 -20.294  0.00  0.00    -0.004 C 
ATOM     10  C   UNL     1      35.758 -19.983 -20.555  0.00  0.00    -0.004 C 
ATOM     11  C   UNL     1      33.532 -21.415 -19.672  0.00  0.00    -0.000 C 
ATOM     12  C   UNL     1      35.926 -21.219 -19.933  0.00  0.00    -0.000 C 
ATOM     13  C   UNL     1      34.814 -21.936 -19.491  0.00  0.00    -0.000 C 
ENDBRANCH   2   8
BRANCH   2  15
ATOM     14  O   UNL     1      34.172 -19.326 -23.507  0.00  0.00    -0.250 OA
ATOM     15  C   UNL     1      34.503 -18.313 -22.906  0.00  0.00    +0.320 C 
BRANCH  15  16
ATOM     16  O   UNL     1      35.108 -17.215 -23.441  0.00  0.00    -0.448 OA
BRANCH  16  17
ATOM     17  C   UNL     1      34.934 -17.043 -24.850  0.00  0.00    +0.209 C 
ATOM     18  C   UNL     1      33.887 -15.977 -25.092  0.00  0.00    +0.051 C 
ENDBRANCH  16  17
ENDBRANCH  15  16
ENDBRANCH   2  15
BRANCH   1  19
ATOM     19  C   UNL     1      33.367 -13.848 -21.629  0.00  0.00    -0.073 C 
BRANCH  19  20
ATOM     20  C   UNL     1      31.950 -13.404 -21.261  0.00  0.00    +0.004 C 
BRANCH  20  21
ATOM     21  C   UNL     1      31.919 -11.961 -20.826  0.00  0.00    -0.024 C 
ATOM     22  C   UNL     1      32.028 -10.959 -21.780  0.00  0.00    -0.003 C 
ATOM     23  C   UNL     1      31.781 -11.658 -19.480  0.00  0.00    -0.003 C 
ATOM     24  C   UNL     1      31.998  -9.624 -21.377  0.00  0.00    +0.014 C 
ATOM     25  C   UNL     1      31.751 -10.323 -19.077  0.00  0.00    +0.014 C 
ATOM     26  C   UNL     1      31.859  -9.305 -20.026  0.00  0.00    +0.042 C 
BRANCH  26  27
ATOM     27  N   UNL     1      31.829  -7.955 -19.620  0.00  0.00    -0.357 N 
ATOM     28  H   UNL     1      31.281  -7.686 -18.847  0.00  0.00    +0.142 HD
ATOM     29  H   UNL     1      32.355  -7.282 -20.108  0.00  0.00    +0.142 HD
ENDBRANCH  26  27
ENDBRANCH  20  21
ENDBRANCH  19  20
ENDBRANCH   1  19
TORSDOF 8
ENDMDL
MODEL 9
REMARK VINA RESULT:      -7.8      6.127      9.812
REMARK  Name = 8944
REMARK  8 active torsions:
REMARK  status: ('A' for Active; 'I' for Inactive)
REMARK    1  A    between atoms: N_1  and  C_19
REMARK    2  A    between atoms: C_2  and  C_8
REMARK    3  A    between atoms: C_2  and  C_15
REMARK    4  A    between atoms: C_15  and  O_16
REMARK    5  A    between atoms: O_16  and  C_17
REMARK    6  A    between atoms: C_19  and  C_20
REMARK    7  A    between atoms: C_20  and  C_21
REMARK    8  A    between atoms: C_26  and  N_27
REMARK                            x       y       z     vdW  Elec       q    Type
REMARK                         _______ _______ _______ _____ _____    ______ ____
ROOT
ATOM      1  N   UNL     1      33.196 -15.255 -20.506  0.00  0.00    +0.387 N 
ATOM      2  C   UNL     1      34.294 -17.946 -21.172  0.00  0.00    +0.104 C 
ATOM      3  C   UNL     1      35.142 -16.771 -20.623  0.00  0.00    -0.008 C 
ATOM      4  C   UNL     1      32.814 -17.689 -20.787  0.00  0.00    -0.008 C 
ATOM      5  C   UNL     1      34.575 -15.392 -20.980  0.00  0.00    -0.076 C 
ATOM      6  C   UNL     1      32.333 -16.270 -21.118  0.00  0.00    -0.076 C 
ATOM      7  H   UNL     1      33.190 -15.398 -19.496  0.00  0.00    -0.080 HD
ENDROOT
BRANCH   2   8
ATOM      8  C   UNL     1      34.744 -19.331 -20.676  0.00  0.00    -0.013 C 
ATOM      9  C   UNL     1      36.101 -19.640 -20.626  0.00  0.00    -0.004 C 
ATOM     10  C   UNL     1      33.793 -20.268 -20.281  0.00  0.00    -0.004 C 
ATOM     11  C   UNL     1      36.509 -20.896 -20.175  0.00  0.00    -0.000 C 
ATOM     12  C   UNL     1      34.202 -21.523 -19.831  0.00  0.00    -0.000 C 
ATOM     13  C   UNL     1      35.560 -21.837 -19.779  0.00  0.00    -0.000 C 
ENDBRANCH   2   8
BRANCH   2  15
ATOM     14  O   UNL     1      34.220 -18.917 -23.391  0.00  0.00    -0.250 OA
ATOM     15  C   UNL     1      34.430 -17.942 -22.682  0.00  0.00    +0.320 C 
BRANCH  15  16
ATOM     16  O   UNL     1      34.816 -16.703 -23.101  0.00  0.00    -0.448 OA
BRANCH  16  17
ATOM     17  C   UNL     1      34.156 -16.217 -24.274  0.00  0.00    +0.209 C 
ATOM     18  C   UNL     1      34.859 -16.763 -25.498  0.00  0.00    +0.051 C 
ENDBRANCH  16  17
ENDBRANCH  15  16
ENDBRANCH   2  15
BRANCH   1  19
ATOM     19  C   UNL     1      32.686 -13.913 -20.787  0.00  0.00    -0.073 C 
BRANCH  19  20
ATOM     20  C   UNL     1      32.421 -13.731 -22.282  0.00  0.00    +0.004 C 
BRANCH  20  21
ATOM     21  C   UNL     1      32.459 -12.276 -22.677  0.00  0.00    -0.024 C 
ATOM     22  C   UNL     1      33.383 -11.850 -23.619  0.00  0.00    -0.003 C 
ATOM     23  C   UNL     1      31.569 -11.388 -22.090  0.00  0.00    -0.003 C 
ATOM     24  C   UNL     1      33.417 -10.504 -23.984  0.00  0.00    +0.014 C 
ATOM     25  C   UNL     1      31.603 -10.043 -22.456  0.00  0.00    +0.014 C 
ATOM     26  C   UNL     1      32.528  -9.600 -23.404  0.00  0.00    +0.042 C 
BRANCH  26  27
ATOM     27  N   UNL     1      32.562  -8.240 -23.773  0.00  0.00    -0.357 N 
ATOM     28  H   UNL     1      33.418  -7.752 -23.777  0.00  0.00    +0.142 HD
ATOM     29  H   UNL     1      31.731  -7.778 -24.027  0.00  0.00    +0.142 HD
ENDBRANCH  26  27
ENDBRANCH  20  21
ENDBRANCH  19  20
ENDBRANCH   1  19
TORSDOF 8
ENDMDL
