MODEL 1
REMARK VINA RESULT:      -6.5      0.000      0.000
REMARK  Name = 5288564
REMARK  6 active torsions:
REMARK  status: ('A' for Active; 'I' for Inactive)
REMARK    1  A    between atoms: C_1  and  O_7
REMARK    2  A    between atoms: C_2  and  O_9
REMARK    3  A    between atoms: C_3  and  O_11
REMARK    4  A    between atoms: C_4  and  O_13
REMARK    5  A    between atoms: C_5  and  C_15
REMARK    6  A    between atoms: C_15  and  O_16
REMARK                            x       y       z     vdW  Elec       q    Type
REMARK                         _______ _______ _______ _____ _____    ______ ____
ROOT
ATOM      1  C   UNL     1      36.571 -25.590 -14.356  0.00  0.00    +0.171 C 
ATOM      2  C   UNL     1      36.524 -25.335 -12.844  0.00  0.00    +0.171 C 
ATOM      3  C   UNL     1      37.977 -26.010 -14.834  0.00  0.00    +0.160 C 
ATOM      4  C   UNL     1      37.575 -24.299 -12.419  0.00  0.00    +0.161 C 
ATOM      5  C   UNL     1      39.118 -25.317 -14.117  0.00  0.00    +0.012 C 
ATOM      6  C   UNL     1      38.923 -24.540 -13.037  0.00  0.00    +0.001 C 
ENDROOT
BRANCH   1   7
ATOM      7  O   UNL     1      36.150 -24.420 -15.054  0.00  0.00    -0.379 OA
ATOM      8  H   UNL     1      35.546 -24.669 -15.771  0.00  0.00    +0.211 HD
ENDBRANCH   1   7
BRANCH   2   9
ATOM      9  O   UNL     1      36.756 -26.560 -12.148  0.00  0.00    -0.379 OA
ATOM     10  H   UNL     1      35.921 -26.882 -11.773  0.00  0.00    +0.211 HD
ENDBRANCH   2   9
BRANCH   3  11
ATOM     11  O   UNL     1      38.127 -27.421 -14.669  0.00  0.00    -0.378 OA
ATOM     12  H   UNL     1      38.308 -27.829 -15.530  0.00  0.00    +0.211 HD
ENDBRANCH   3  11
BRANCH   4  13
ATOM     13  O   UNL     1      37.676 -24.298 -10.997  0.00  0.00    -0.378 OA
ATOM     14  H   UNL     1      38.374 -23.682 -10.724  0.00  0.00    +0.211 HD
ENDBRANCH   4  13
BRANCH   5  15
ATOM     15  C   UNL     1      40.490 -25.526 -14.694  0.00  0.00    +0.162 C 
BRANCH  15  16
ATOM     16  O   UNL     1      40.380 -25.954 -16.037  0.00  0.00    -0.377 OA
ATOM     17  H   UNL     1      40.966 -26.713 -16.183  0.00  0.00    +0.211 HD
ENDBRANCH  15  16
ENDBRANCH   5  15
TORSDOF 6
ENDMDL
MODEL 2
REMARK VINA RESULT:      -6.2      1.705      4.045
REMARK  Name = 5288564
REMARK  6 active torsions:
REMARK  status: ('A' for Active; 'I' for Inactive)
REMARK    1  A    between atoms: C_1  and  O_7
REMARK    2  A    between atoms: C_2  and  O_9
REMARK    3  A    between atoms: C_3  and  O_11
REMARK    4  A    between atoms: C_4  and  O_13
REMARK    5  A    between atoms: C_5  and  C_15
REMARK    6  A    between atoms: C_15  and  O_16
REMARK                            x       y       z     vdW  Elec       q    Type
REMARK                         _______ _______ _______ _____ _____    ______ ____
ROOT
ATOM      1  C   UNL     1      38.034 -25.710 -13.917  0.00  0.00    +0.171 C 
ATOM      2  C   UNL     1      36.998 -25.673 -15.049  0.00  0.00    +0.171 C 
ATOM      3  C   UNL     1      37.395 -25.464 -12.534  0.00  0.00    +0.160 C 
ATOM      4  C   UNL     1      36.208 -24.356 -15.040  0.00  0.00    +0.161 C 
ATOM      5  C   UNL     1      36.264 -24.456 -12.533  0.00  0.00    +0.012 C 
ATOM      6  C   UNL     1      35.746 -23.956 -13.668  0.00  0.00    +0.001 C 
ENDROOT
BRANCH   1   7
ATOM      7  O   UNL     1      39.048 -24.739 -14.163  0.00  0.00    -0.379 OA
ATOM      8  H   UNL     1      38.693 -24.035 -14.728  0.00  0.00    +0.211 HD
ENDBRANCH   1   7
BRANCH   2   9
ATOM      9  O   UNL     1      36.096 -26.770 -14.903  0.00  0.00    -0.379 OA
ATOM     10  H   UNL     1      36.331 -27.468 -15.535  0.00  0.00    +0.211 HD
ENDBRANCH   2   9
BRANCH   3  11
ATOM     11  O   UNL     1      36.901 -26.702 -12.019  0.00  0.00    -0.378 OA
ATOM     12  H   UNL     1      35.958 -26.786 -12.229  0.00  0.00    +0.211 HD
ENDBRANCH   3  11
BRANCH   4  13
ATOM     13  O   UNL     1      35.093 -24.479 -15.921  0.00  0.00    -0.378 OA
ATOM     14  H   UNL     1      34.535 -25.219 -15.633  0.00  0.00    +0.211 HD
ENDBRANCH   4  13
BRANCH   5  15
ATOM     15  C   UNL     1      35.762 -24.021 -11.185  0.00  0.00    +0.162 C 
BRANCH  15  16
ATOM     16  O   UNL     1      35.282 -25.144 -10.472  0.00  0.00    -0.377 OA
ATOM     17  H   UNL     1      35.270 -25.917 -11.057  0.00  0.00    +0.211 HD
ENDBRANCH  15  16
ENDBRANCH   5  15
TORSDOF 6
ENDMDL
MODEL 3
REMARK VINA RESULT:      -6.2      2.094      4.517
REMARK  Name = 5288564
REMARK  6 active torsions:
REMARK  status: ('A' for Active; 'I' for Inactive)
REMARK    1  A    between atoms: C_1  and  O_7
REMARK    2  A    between atoms: C_2  and  O_9
REMARK    3  A    between atoms: C_3  and  O_11
REMARK    4  A    between atoms: C_4  and  O_13
REMARK    5  A    between atoms: C_5  and  C_15
REMARK    6  A    between atoms: C_15  and  O_16
REMARK                            x       y       z     vdW  Elec       q    Type
REMARK                         _______ _______ _______ _____ _____    ______ ____
ROOT
ATOM      1  C   UNL     1      37.084 -24.527 -12.654  0.00  0.00    +0.171 C 
ATOM      2  C   UNL     1      37.454 -25.704 -13.566  0.00  0.00    +0.171 C 
ATOM      3  C   UNL     1      35.575 -24.210 -12.696  0.00  0.00    +0.160 C 
ATOM      4  C   UNL     1      36.988 -25.461 -15.009  0.00  0.00    +0.161 C 
ATOM      5  C   UNL     1      34.931 -24.383 -14.056  0.00  0.00    +0.012 C 
ATOM      6  C   UNL     1      35.582 -24.938 -15.094  0.00  0.00    +0.001 C 
ENDROOT
BRANCH   1   7
ATOM      7  O   UNL     1      37.833 -23.374 -13.031  0.00  0.00    -0.379 OA
ATOM      8  H   UNL     1      38.368 -23.577 -13.815  0.00  0.00    +0.211 HD
ENDBRANCH   1   7
BRANCH   2   9
ATOM      9  O   UNL     1      36.852 -26.899 -13.066  0.00  0.00    -0.379 OA
ATOM     10  H   UNL     1      35.922 -26.728 -12.853  0.00  0.00    +0.211 HD
ENDBRANCH   2   9
BRANCH   3  11
ATOM     11  O   UNL     1      34.893 -25.048 -11.761  0.00  0.00    -0.378 OA
ATOM     12  H   UNL     1      34.158 -25.498 -12.207  0.00  0.00    +0.211 HD
ENDBRANCH   3  11
BRANCH   4  13
ATOM     13  O   UNL     1      37.108 -26.676 -15.745  0.00  0.00    -0.378 OA
ATOM     14  H   UNL     1      36.226 -26.977 -16.017  0.00  0.00    +0.211 HD
ENDBRANCH   4  13
BRANCH   5  15
ATOM     15  C   UNL     1      33.523 -23.877 -14.196  0.00  0.00    +0.162 C 
BRANCH  15  16
ATOM     16  O   UNL     1      33.079 -23.362 -12.956  0.00  0.00    -0.377 OA
ATOM     17  H   UNL     1      33.324 -23.973 -12.245  0.00  0.00    +0.211 HD
ENDBRANCH  15  16
ENDBRANCH   5  15
TORSDOF 6
ENDMDL
MODEL 4
REMARK VINA RESULT:      -6.2      1.805      3.284
REMARK  Name = 5288564
REMARK  6 active torsions:
REMARK  status: ('A' for Active; 'I' for Inactive)
REMARK    1  A    between atoms: C_1  and  O_7
REMARK    2  A    between atoms: C_2  and  O_9
REMARK    3  A    between atoms: C_3  and  O_11
REMARK    4  A    between atoms: C_4  and  O_13
REMARK    5  A    between atoms: C_5  and  C_15
REMARK    6  A    between atoms: C_15  and  O_16
REMARK                            x       y       z     vdW  Elec       q    Type
REMARK                         _______ _______ _______ _____ _____    ______ ____
ROOT
ATOM      1  C   UNL     1      37.545 -26.014 -13.099  0.00  0.00    +0.171 C 
ATOM      2  C   UNL     1      38.368 -24.828 -12.581  0.00  0.00    +0.171 C 
ATOM      3  C   UNL     1      36.584 -25.606 -14.235  0.00  0.00    +0.160 C 
ATOM      4  C   UNL     1      37.461 -23.670 -12.137  0.00  0.00    +0.161 C 
ATOM      5  C   UNL     1      35.968 -24.232 -14.075  0.00  0.00    +0.012 C 
ATOM      6  C   UNL     1      36.364 -23.373 -13.118  0.00  0.00    +0.001 C 
ENDROOT
BRANCH   1   7
ATOM      7  O   UNL     1      36.808 -26.593 -12.024  0.00  0.00    -0.379 OA
ATOM      8  H   UNL     1      37.142 -26.250 -11.180  0.00  0.00    +0.211 HD
ENDBRANCH   1   7
BRANCH   2   9
ATOM      9  O   UNL     1      39.249 -24.375 -13.609  0.00  0.00    -0.379 OA
ATOM     10  H   UNL     1      39.739 -23.599 -13.297  0.00  0.00    +0.211 HD
ENDBRANCH   2   9
BRANCH   3  11
ATOM     11  O   UNL     1      37.285 -25.647 -15.480  0.00  0.00    -0.378 OA
ATOM     12  H   UNL     1      38.126 -26.116 -15.361  0.00  0.00    +0.211 HD
ENDBRANCH   3  11
BRANCH   4  13
ATOM     13  O   UNL     1      38.262 -22.510 -11.925  0.00  0.00    -0.378 OA
ATOM     14  H   UNL     1      38.386 -22.045 -12.767  0.00  0.00    +0.211 HD
ENDBRANCH   4  13
BRANCH   5  15
ATOM     15  C   UNL     1      34.864 -23.881 -15.033  0.00  0.00    +0.162 C 
BRANCH  15  16
ATOM     16  O   UNL     1      35.409 -23.628 -16.313  0.00  0.00    -0.377 OA
ATOM     17  H   UNL     1      34.889 -22.941 -16.756  0.00  0.00    +0.211 HD
ENDBRANCH  15  16
ENDBRANCH   5  15
TORSDOF 6
ENDMDL
MODEL 5
REMARK VINA RESULT:      -6.1      2.011      2.808
REMARK  Name = 5288564
REMARK  6 active torsions:
REMARK  status: ('A' for Active; 'I' for Inactive)
REMARK    1  A    between atoms: C_1  and  O_7
REMARK    2  A    between atoms: C_2  and  O_9
REMARK    3  A    between atoms: C_3  and  O_11
REMARK    4  A    between atoms: C_4  and  O_13
REMARK    5  A    between atoms: C_5  and  C_15
REMARK    6  A    between atoms: C_15  and  O_16
REMARK                            x       y       z     vdW  Elec       q    Type
REMARK                         _______ _______ _______ _____ _____    ______ ____
ROOT
ATOM      1  C   UNL     1      37.371 -25.830 -12.586  0.00  0.00    +0.171 C 
ATOM      2  C   UNL     1      36.309 -25.076 -11.775  0.00  0.00    +0.171 C 
ATOM      3  C   UNL     1      38.043 -24.931 -13.645  0.00  0.00    +0.160 C 
ATOM      4  C   UNL     1      35.257 -24.436 -12.692  0.00  0.00    +0.161 C 
ATOM      5  C   UNL     1      37.115 -23.932 -14.303  0.00  0.00    +0.012 C 
ATOM      6  C   UNL     1      35.857 -23.726 -13.872  0.00  0.00    +0.001 C 
ENDROOT
BRANCH   1   7
ATOM      7  O   UNL     1      36.779 -26.964 -13.216  0.00  0.00    -0.379 OA
ATOM      8  H   UNL     1      35.825 -26.818 -13.315  0.00  0.00    +0.211 HD
ENDBRANCH   1   7
BRANCH   2   9
ATOM      9  O   UNL     1      36.940 -24.062 -10.993  0.00  0.00    -0.379 OA
ATOM     10  H   UNL     1      37.824 -23.882 -11.348  0.00  0.00    +0.211 HD
ENDBRANCH   2   9
BRANCH   3  11
ATOM     11  O   UNL     1      39.122 -24.218 -13.038  0.00  0.00    -0.378 OA
ATOM     12  H   UNL     1      39.195 -23.339 -13.442  0.00  0.00    +0.211 HD
ENDBRANCH   3  11
BRANCH   4  13
ATOM     13  O   UNL     1      34.461 -23.535 -11.926  0.00  0.00    -0.378 OA
ATOM     14  H   UNL     1      33.851 -24.039 -11.365  0.00  0.00    +0.211 HD
ENDBRANCH   4  13
BRANCH   5  15
ATOM     15  C   UNL     1      37.666 -23.191 -15.489  0.00  0.00    +0.162 C 
BRANCH  15  16
ATOM     16  O   UNL     1      38.943 -23.705 -15.817  0.00  0.00    -0.377 OA
ATOM     17  H   UNL     1      39.624 -23.205 -15.342  0.00  0.00    +0.211 HD
ENDBRANCH  15  16
ENDBRANCH   5  15
TORSDOF 6
ENDMDL
MODEL 6
REMARK VINA RESULT:      -6.1      1.192      2.861
REMARK  Name = 5288564
REMARK  6 active torsions:
REMARK  status: ('A' for Active; 'I' for Inactive)
REMARK    1  A    between atoms: C_1  and  O_7
REMARK    2  A    between atoms: C_2  and  O_9
REMARK    3  A    between atoms: C_3  and  O_11
REMARK    4  A    between atoms: C_4  and  O_13
REMARK    5  A    between atoms: C_5  and  C_15
REMARK    6  A    between atoms: C_15  and  O_16
REMARK                            x       y       z     vdW  Elec       q    Type
REMARK                         _______ _______ _______ _____ _____    ______ ____
ROOT
ATOM      1  C   UNL     1      37.117 -25.270 -12.297  0.00  0.00    +0.171 C 
ATOM      2  C   UNL     1      36.156 -24.756 -13.376  0.00  0.00    +0.171 C 
ATOM      3  C   UNL     1      38.595 -25.125 -12.714  0.00  0.00    +0.160 C 
ATOM      4  C   UNL     1      36.411 -25.443 -14.725  0.00  0.00    +0.161 C 
ATOM      5  C   UNL     1      38.861 -25.369 -14.185  0.00  0.00    +0.012 C 
ATOM      6  C   UNL     1      37.868 -25.522 -15.080  0.00  0.00    +0.001 C 
ENDROOT
BRANCH   1   7
ATOM      7  O   UNL     1      36.826 -26.636 -12.007  0.00  0.00    -0.379 OA
ATOM      8  H   UNL     1      37.398 -27.209 -12.542  0.00  0.00    +0.211 HD
ENDBRANCH   1   7
BRANCH   2   9
ATOM      9  O   UNL     1      36.318 -23.345 -13.523  0.00  0.00    -0.379 OA
ATOM     10  H   UNL     1      36.079 -22.903 -12.693  0.00  0.00    +0.211 HD
ENDBRANCH   2   9
BRANCH   3  11
ATOM     11  O   UNL     1      39.049 -23.811 -12.383  0.00  0.00    -0.378 OA
ATOM     12  H   UNL     1      38.428 -23.156 -12.738  0.00  0.00    +0.211 HD
ENDBRANCH   3  11
BRANCH   4  13
ATOM     13  O   UNL     1      35.692 -24.749 -15.742  0.00  0.00    -0.378 OA
ATOM     14  H   UNL     1      36.109 -23.887 -15.901  0.00  0.00    +0.211 HD
ENDBRANCH   4  13
BRANCH   5  15
ATOM     15  C   UNL     1      40.304 -25.456 -14.595  0.00  0.00    +0.162 C 
BRANCH  15  16
ATOM     16  O   UNL     1      40.389 -25.866 -15.946  0.00  0.00    -0.377 OA
ATOM     17  H   UNL     1      41.283 -26.194 -16.129  0.00  0.00    +0.211 HD
ENDBRANCH  15  16
ENDBRANCH   5  15
TORSDOF 6
ENDMDL
MODEL 7
REMARK VINA RESULT:      -6.0      1.607      3.560
REMARK  Name = 5288564
REMARK  6 active torsions:
REMARK  status: ('A' for Active; 'I' for Inactive)
REMARK    1  A    between atoms: C_1  and  O_7
REMARK    2  A    between atoms: C_2  and  O_9
REMARK    3  A    between atoms: C_3  and  O_11
REMARK    4  A    between atoms: C_4  and  O_13
REMARK    5  A    between atoms: C_5  and  C_15
REMARK    6  A    between atoms: C_15  and  O_16
REMARK                            x       y       z     vdW  Elec       q    Type
REMARK                         _______ _______ _______ _____ _____    ______ ____
ROOT
ATOM      1  C   UNL     1      37.690 -26.442 -14.064  0.00  0.00    +0.171 C 
ATOM      2  C   UNL     1      36.751 -25.810 -15.099  0.00  0.00    +0.171 C 
ATOM      3  C   UNL     1      37.658 -25.695 -12.715  0.00  0.00    +0.160 C 
ATOM      4  C   UNL     1      37.058 -24.318 -15.295  0.00  0.00    +0.161 C 
ATOM      5  C   UNL     1      37.512 -24.192 -12.829  0.00  0.00    +0.012 C 
ATOM      6  C   UNL     1      37.254 -23.582 -14.000  0.00  0.00    +0.001 C 
ENDROOT
BRANCH   1   7
ATOM      7  O   UNL     1      39.022 -26.465 -14.575  0.00  0.00    -0.379 OA
ATOM      8  H   UNL     1      39.652 -26.398 -13.840  0.00  0.00    +0.211 HD
ENDBRANCH   1   7
BRANCH   2   9
ATOM      9  O   UNL     1      35.398 -25.965 -14.670  0.00  0.00    -0.379 OA
ATOM     10  H   UNL     1      35.177 -25.264 -14.038  0.00  0.00    +0.211 HD
ENDBRANCH   2   9
BRANCH   3  11
ATOM     11  O   UNL     1      36.577 -26.197 -11.927  0.00  0.00    -0.378 OA
ATOM     12  H   UNL     1      36.237 -27.013 -12.327  0.00  0.00    +0.211 HD
ENDBRANCH   3  11
BRANCH   4  13
ATOM     13  O   UNL     1      36.003 -23.723 -16.047  0.00  0.00    -0.378 OA
ATOM     14  H   UNL     1      36.238 -22.806 -16.263  0.00  0.00    +0.211 HD
ENDBRANCH   4  13
BRANCH   5  15
ATOM     15  C   UNL     1      37.697 -23.406 -11.562  0.00  0.00    +0.162 C 
BRANCH  15  16
ATOM     16  O   UNL     1      38.023 -22.067 -11.878  0.00  0.00    -0.377 OA
ATOM     17  H   UNL     1      38.021 -21.952 -12.840  0.00  0.00    +0.211 HD
ENDBRANCH  15  16
ENDBRANCH   5  15
TORSDOF 6
ENDMDL
MODEL 8
REMARK VINA RESULT:      -6.0      1.837      3.974
REMARK  Name = 5288564
REMARK  6 active torsions:
REMARK  status: ('A' for Active; 'I' for Inactive)
REMARK    1  A    between atoms: C_1  and  O_7
REMARK    2  A    between atoms: C_2  and  O_9
REMARK    3  A    between atoms: C_3  and  O_11
REMARK    4  A    between atoms: C_4  and  O_13
REMARK    5  A    between atoms: C_5  and  C_15
REMARK    6  A    between atoms: C_15  and  O_16
REMARK                            x       y       z     vdW  Elec       q    Type
REMARK                         _______ _______ _______ _____ _____    ______ ____
ROOT
ATOM      1  C   UNL     1      36.256 -25.150 -14.800  0.00  0.00    +0.171 C 
ATOM      2  C   UNL     1      37.770 -24.923 -14.900  0.00  0.00    +0.171 C 
ATOM      3  C   UNL     1      35.652 -24.501 -13.537  0.00  0.00    +0.160 C 
ATOM      4  C   UNL     1      38.494 -25.414 -13.638  0.00  0.00    +0.161 C 
ATOM      5  C   UNL     1      36.540 -24.563 -12.311  0.00  0.00    +0.012 C 
ATOM      6  C   UNL     1      37.815 -24.987 -12.367  0.00  0.00    +0.001 C 
ENDROOT
BRANCH   1   7
ATOM      7  O   UNL     1      35.979 -26.549 -14.807  0.00  0.00    -0.379 OA
ATOM      8  H   UNL     1      36.426 -26.972 -14.058  0.00  0.00    +0.211 HD
ENDBRANCH   1   7
BRANCH   2   9
ATOM      9  O   UNL     1      38.031 -23.532 -15.088  0.00  0.00    -0.379 OA
ATOM     10  H   UNL     1      38.875 -23.302 -14.670  0.00  0.00    +0.211 HD
ENDBRANCH   2   9
BRANCH   3  11
ATOM     11  O   UNL     1      35.352 -23.132 -13.810  0.00  0.00    -0.378 OA
ATOM     12  H   UNL     1      35.416 -22.617 -12.991  0.00  0.00    +0.211 HD
ENDBRANCH   3  11
BRANCH   4  13
ATOM     13  O   UNL     1      39.839 -24.941 -13.662  0.00  0.00    -0.378 OA
ATOM     14  H   UNL     1      40.204 -25.051 -14.554  0.00  0.00    +0.211 HD
ENDBRANCH   4  13
BRANCH   5  15
ATOM     15  C   UNL     1      35.911 -24.146 -11.011  0.00  0.00    +0.162 C 
BRANCH  15  16
ATOM     16  O   UNL     1      35.244 -25.251 -10.431  0.00  0.00    -0.377 OA
ATOM     17  H   UNL     1      35.726 -25.542  -9.643  0.00  0.00    +0.211 HD
ENDBRANCH  15  16
ENDBRANCH   5  15
TORSDOF 6
ENDMDL
MODEL 9
REMARK VINA RESULT:      -5.8      1.973      2.592
REMARK  Name = 5288564
REMARK  6 active torsions:
REMARK  status: ('A' for Active; 'I' for Inactive)
REMARK    1  A    between atoms: C_1  and  O_7
REMARK    2  A    between atoms: C_2  and  O_9
REMARK    3  A    between atoms: C_3  and  O_11
REMARK    4  A    between atoms: C_4  and  O_13
REMARK    5  A    between atoms: C_5  and  C_15
REMARK    6  A    between atoms: C_15  and  O_16
REMARK                            x       y       z     vdW  Elec       q    Type
REMARK                         _______ _______ _______ _____ _____    ______ ____
ROOT
ATOM      1  C   UNL     1      36.424 -23.272 -14.436  0.00  0.00    +0.171 C 
ATOM      2  C   UNL     1      36.541 -23.194 -12.908  0.00  0.00    +0.171 C 
ATOM      3  C   UNL     1      36.276 -24.724 -14.936  0.00  0.00    +0.160 C 
ATOM      4  C   UNL     1      37.692 -24.068 -12.390  0.00  0.00    +0.161 C 
ATOM      5  C   UNL     1      37.078 -25.744 -14.155  0.00  0.00    +0.012 C 
ATOM      6  C   UNL     1      37.722 -25.434 -13.016  0.00  0.00    +0.001 C 
ENDROOT
BRANCH   1   7
ATOM      7  O   UNL     1      37.567 -22.666 -15.036  0.00  0.00    -0.379 OA
ATOM      8  H   UNL     1      37.395 -21.722 -15.181  0.00  0.00    +0.211 HD
ENDBRANCH   1   7
BRANCH   2   9
ATOM      9  O   UNL     1      35.315 -23.622 -12.316  0.00  0.00    -0.379 OA
ATOM     10  H   UNL     1      34.643 -23.733 -13.007  0.00  0.00    +0.211 HD
ENDBRANCH   2   9
BRANCH   3  11
ATOM     11  O   UNL     1      34.897 -25.098 -14.888  0.00  0.00    -0.378 OA
ATOM     12  H   UNL     1      34.816 -26.050 -15.053  0.00  0.00    +0.211 HD
ENDBRANCH   3  11
BRANCH   4  13
ATOM     13  O   UNL     1      37.590 -24.177 -10.972  0.00  0.00    -0.378 OA
ATOM     14  H   UNL     1      36.713 -24.519 -10.737  0.00  0.00    +0.211 HD
ENDBRANCH   4  13
BRANCH   5  15
ATOM     15  C   UNL     1      37.141 -27.129 -14.737  0.00  0.00    +0.162 C 
BRANCH  15  16
ATOM     16  O   UNL     1      36.822 -27.079 -16.114  0.00  0.00    -0.377 OA
ATOM     17  H   UNL     1      37.156 -26.252 -16.493  0.00  0.00    +0.211 HD
ENDBRANCH  15  16
ENDBRANCH   5  15
TORSDOF 6
ENDMDL
