MODEL 1
REMARK VINA RESULT:      -8.6      0.000      0.000
REMARK  Name = 2905
REMARK  8 active torsions:
REMARK  status: ('A' for Active; 'I' for Inactive)
REMARK    1  A    between atoms: C_1  and  C_2
REMARK    2  A    between atoms: C_1  and  C_8
REMARK    3  A    between atoms: C_1  and  C_16
REMARK    4  A    between atoms: C_8  and  O_13
REMARK    5  A    between atoms: C_16  and  O_17
REMARK    6  A    between atoms: O_17  and  C_18
REMARK    7  A    between atoms: C_18  and  C_19
REMARK    8  A    between atoms: C_19  and  N_20
REMARK                            x       y       z     vdW  Elec       q    Type
REMARK                         _______ _______ _______ _____ _____    ______ ____
ROOT
ATOM      1  C   UNL     1      35.279 -18.125 -21.397  0.00  0.00    +0.146 C 
ENDROOT
BRANCH   1   2
ATOM      2  C   UNL     1      34.927 -19.446 -20.723  0.00  0.00    -0.010 C 
ATOM      3  C   UNL     1      33.598 -19.787 -20.581  0.00  0.00    -0.004 C 
ATOM      4  C   UNL     1      35.948 -20.257 -20.275  0.00  0.00    -0.004 C 
ATOM      5  C   UNL     1      33.276 -20.995 -19.963  0.00  0.00    -0.000 C 
ATOM      6  C   UNL     1      35.625 -21.465 -19.658  0.00  0.00    -0.000 C 
ATOM      7  C   UNL     1      34.289 -21.835 -19.501  0.00  0.00    -0.000 C 
ENDBRANCH   1   2
BRANCH   1   8
ATOM      8  C   UNL     1      35.421 -18.258 -22.905  0.00  0.00    +0.102 C 
ATOM      9  C   UNL     1      34.922 -17.030 -23.664  0.00  0.00    +0.028 C 
ATOM     10  C   UNL     1      34.576 -19.382 -23.499  0.00  0.00    +0.028 C 
ATOM     11  C   UNL     1      34.705 -17.533 -25.092  0.00  0.00    +0.003 C 
ATOM     12  C   UNL     1      34.499 -19.044 -24.987  0.00  0.00    +0.003 C 
BRANCH   8  13
ATOM     13  O   UNL     1      36.796 -18.467 -23.224  0.00  0.00    -0.386 OA
ATOM     14  H   UNL     1      37.241 -17.611 -23.314  0.00  0.00    +0.210 HD
ENDBRANCH   8  13
ENDBRANCH   1   8
BRANCH   1  16
ATOM     15  O   UNL     1      33.062 -17.119 -21.144  0.00  0.00    -0.250 OA
ATOM     16  C   UNL     1      34.279 -17.032 -21.032  0.00  0.00    +0.323 C 
BRANCH  16  17
ATOM     17  O   UNL     1      34.951 -15.946 -20.545  0.00  0.00    -0.451 OA
BRANCH  17  18
ATOM     18  C   UNL     1      34.242 -14.704 -20.594  0.00  0.00    +0.186 C 
BRANCH  18  19
ATOM     19  C   UNL     1      34.287 -14.170 -22.016  0.00  0.00    -0.029 C 
BRANCH  19  20
ATOM     20  N   UNL     1      32.952 -14.130 -22.593  0.00  0.00    +0.387 N 
ATOM     21  C   UNL     1      32.139 -13.095 -21.950  0.00  0.00    -0.101 C 
ATOM     22  C   UNL     1      33.019 -13.895 -24.038  0.00  0.00    -0.101 C 
ATOM     23  H   UNL     1      32.512 -15.036 -22.432  0.00  0.00    -0.080 HD
ENDBRANCH  19  20
ENDBRANCH  18  19
ENDBRANCH  17  18
ENDBRANCH  16  17
ENDBRANCH   1  16
TORSDOF 8
ENDMDL
MODEL 2
REMARK VINA RESULT:      -8.3      1.406      3.589
REMARK  Name = 2905
REMARK  8 active torsions:
REMARK  status: ('A' for Active; 'I' for Inactive)
REMARK    1  A    between atoms: C_1  and  C_2
REMARK    2  A    between atoms: C_1  and  C_8
REMARK    3  A    between atoms: C_1  and  C_16
REMARK    4  A    between atoms: C_8  and  O_13
REMARK    5  A    between atoms: C_16  and  O_17
REMARK    6  A    between atoms: O_17  and  C_18
REMARK    7  A    between atoms: C_18  and  C_19
REMARK    8  A    between atoms: C_19  and  N_20
REMARK                            x       y       z     vdW  Elec       q    Type
REMARK                         _______ _______ _______ _____ _____    ______ ____
ROOT
ATOM      1  C   UNL     1      34.185 -17.984 -22.096  0.00  0.00    +0.146 C 
ENDROOT
BRANCH   1   2
ATOM      2  C   UNL     1      34.237 -19.218 -21.203  0.00  0.00    -0.010 C 
ATOM      3  C   UNL     1      35.463 -19.777 -20.911  0.00  0.00    -0.004 C 
ATOM      4  C   UNL     1      33.056 -19.737 -20.716  0.00  0.00    -0.004 C 
ATOM      5  C   UNL     1      35.511 -20.907 -20.095  0.00  0.00    -0.000 C 
ATOM      6  C   UNL     1      33.103 -20.866 -19.900  0.00  0.00    -0.000 C 
ATOM      7  C   UNL     1      34.331 -21.452 -19.589  0.00  0.00    -0.000 C 
ENDBRANCH   1   2
BRANCH   1   8
ATOM      8  C   UNL     1      34.275 -16.687 -21.308  0.00  0.00    +0.102 C 
ATOM      9  C   UNL     1      32.939 -16.255 -20.709  0.00  0.00    +0.028 C 
ATOM     10  C   UNL     1      34.662 -15.482 -22.162  0.00  0.00    +0.028 C 
ATOM     11  C   UNL     1      33.128 -14.770 -20.398  0.00  0.00    +0.003 C 
ATOM     12  C   UNL     1      34.245 -14.278 -21.318  0.00  0.00    +0.003 C 
BRANCH   8  13
ATOM     13  O   UNL     1      35.219 -16.853 -20.251  0.00  0.00    -0.386 OA
ATOM     14  H   UNL     1      35.094 -17.721 -19.838  0.00  0.00    +0.210 HD
ENDBRANCH   8  13
ENDBRANCH   1   8
BRANCH   1  16
ATOM     15  O   UNL     1      36.461 -18.100 -22.989  0.00  0.00    -0.250 OA
ATOM     16  C   UNL     1      35.254 -18.041 -23.184  0.00  0.00    +0.323 C 
BRANCH  16  17
ATOM     17  O   UNL     1      34.652 -18.035 -24.412  0.00  0.00    -0.451 OA
BRANCH  17  18
ATOM     18  C   UNL     1      34.866 -16.860 -25.201  0.00  0.00    +0.186 C 
BRANCH  18  19
ATOM     19  C   UNL     1      33.517 -16.255 -25.555  0.00  0.00    -0.029 C 
BRANCH  19  20
ATOM     20  N   UNL     1      33.616 -14.807 -25.664  0.00  0.00    +0.387 N 
ATOM     21  C   UNL     1      33.208 -14.359 -26.998  0.00  0.00    -0.101 C 
ATOM     22  C   UNL     1      32.799 -14.153 -24.640  0.00  0.00    -0.101 C 
ATOM     23  H   UNL     1      34.591 -14.546 -25.518  0.00  0.00    -0.080 HD
ENDBRANCH  19  20
ENDBRANCH  18  19
ENDBRANCH  17  18
ENDBRANCH  16  17
ENDBRANCH   1  16
TORSDOF 8
ENDMDL
MODEL 3
REMARK VINA RESULT:      -8.2      2.478      5.601
REMARK  Name = 2905
REMARK  8 active torsions:
REMARK  status: ('A' for Active; 'I' for Inactive)
REMARK    1  A    between atoms: C_1  and  C_2
REMARK    2  A    between atoms: C_1  and  C_8
REMARK    3  A    between atoms: C_1  and  C_16
REMARK    4  A    between atoms: C_8  and  O_13
REMARK    5  A    between atoms: C_16  and  O_17
REMARK    6  A    between atoms: O_17  and  C_18
REMARK    7  A    between atoms: C_18  and  C_19
REMARK    8  A    between atoms: C_19  and  N_20
REMARK                            x       y       z     vdW  Elec       q    Type
REMARK                         _______ _______ _______ _____ _____    ______ ____
ROOT
ATOM      1  C   UNL     1      33.453 -15.410 -23.301  0.00  0.00    +0.146 C 
ENDROOT
BRANCH   1   2
ATOM      2  C   UNL     1      33.475 -14.404 -24.446  0.00  0.00    -0.010 C 
ATOM      3  C   UNL     1      33.867 -13.108 -24.185  0.00  0.00    -0.004 C 
ATOM      4  C   UNL     1      33.102 -14.822 -25.706  0.00  0.00    -0.004 C 
ATOM      5  C   UNL     1      33.885 -12.187 -25.232  0.00  0.00    -0.000 C 
ATOM      6  C   UNL     1      33.122 -13.901 -26.753  0.00  0.00    -0.000 C 
ATOM      7  C   UNL     1      33.513 -12.583 -26.517  0.00  0.00    -0.000 C 
ENDBRANCH   1   2
BRANCH   1   8
ATOM      8  C   UNL     1      34.496 -16.505 -23.464  0.00  0.00    +0.102 C 
ATOM      9  C   UNL     1      34.240 -17.404 -24.671  0.00  0.00    +0.028 C 
ATOM     10  C   UNL     1      34.519 -17.500 -22.306  0.00  0.00    +0.028 C 
ATOM     11  C   UNL     1      35.064 -18.660 -24.387  0.00  0.00    +0.003 C 
ATOM     12  C   UNL     1      35.258 -18.713 -22.872  0.00  0.00    +0.003 C 
BRANCH   8  13
ATOM     13  O   UNL     1      35.782 -15.901 -23.607  0.00  0.00    -0.386 OA
ATOM     14  H   UNL     1      35.756 -14.998 -23.254  0.00  0.00    +0.210 HD
ENDBRANCH   8  13
ENDBRANCH   1   8
BRANCH   1  16
ATOM     15  O   UNL     1      34.648 -14.493 -21.372  0.00  0.00    -0.250 OA
ATOM     16  C   UNL     1      33.592 -14.716 -21.949  0.00  0.00    +0.323 C 
BRANCH  16  17
ATOM     17  O   UNL     1      32.352 -14.365 -21.491  0.00  0.00    -0.451 OA
BRANCH  17  18
ATOM     18  C   UNL     1      32.286 -13.132 -20.767  0.00  0.00    +0.186 C 
BRANCH  18  19
ATOM     19  C   UNL     1      31.554 -12.105 -21.614  0.00  0.00    -0.029 C 
BRANCH  19  20
ATOM     20  N   UNL     1      31.171 -10.954 -20.811  0.00  0.00    +0.387 N 
ATOM     21  C   UNL     1      31.510 -11.168 -19.402  0.00  0.00    -0.101 C 
ATOM     22  C   UNL     1      31.819  -9.737 -21.307  0.00  0.00    -0.101 C 
ATOM     23  H   UNL     1      30.160 -10.837 -20.888  0.00  0.00    -0.080 HD
ENDBRANCH  19  20
ENDBRANCH  18  19
ENDBRANCH  17  18
ENDBRANCH  16  17
ENDBRANCH   1  16
TORSDOF 8
ENDMDL
MODEL 4
REMARK VINA RESULT:      -8.0      5.252      9.756
REMARK  Name = 2905
REMARK  8 active torsions:
REMARK  status: ('A' for Active; 'I' for Inactive)
REMARK    1  A    between atoms: C_1  and  C_2
REMARK    2  A    between atoms: C_1  and  C_8
REMARK    3  A    between atoms: C_1  and  C_16
REMARK    4  A    between atoms: C_8  and  O_13
REMARK    5  A    between atoms: C_16  and  O_17
REMARK    6  A    between atoms: O_17  and  C_18
REMARK    7  A    between atoms: C_18  and  C_19
REMARK    8  A    between atoms: C_19  and  N_20
REMARK                            x       y       z     vdW  Elec       q    Type
REMARK                         _______ _______ _______ _____ _____    ______ ____
ROOT
ATOM      1  C   UNL     1      32.218  -8.854 -23.240  0.00  0.00    +0.146 C 
ENDROOT
BRANCH   1   2
ATOM      2  C   UNL     1      31.842  -9.501 -21.913  0.00  0.00    -0.010 C 
ATOM      3  C   UNL     1      31.042 -10.624 -21.924  0.00  0.00    -0.004 C 
ATOM      4  C   UNL     1      32.314  -8.943 -20.744  0.00  0.00    -0.004 C 
ATOM      5  C   UNL     1      30.697 -11.216 -20.709  0.00  0.00    -0.000 C 
ATOM      6  C   UNL     1      31.970  -9.536 -19.530  0.00  0.00    -0.000 C 
ATOM      7  C   UNL     1      31.161 -10.672 -19.511  0.00  0.00    -0.000 C 
ENDBRANCH   1   2
BRANCH   1   8
ATOM      8  C   UNL     1      32.248  -7.336 -23.164  0.00  0.00    +0.102 C 
ATOM      9  C   UNL     1      30.950  -6.736 -22.626  0.00  0.00    +0.028 C 
ATOM     10  C   UNL     1      32.387  -6.660 -24.526  0.00  0.00    +0.028 C 
ATOM     11  C   UNL     1      30.999  -5.274 -23.068  0.00  0.00    +0.003 C 
ATOM     12  C   UNL     1      31.934  -5.222 -24.277  0.00  0.00    +0.003 C 
BRANCH   8  13
ATOM     13  O   UNL     1      33.324  -6.937 -22.315  0.00  0.00    -0.386 OA
ATOM     14  H   UNL     1      34.162  -7.260 -22.681  0.00  0.00    +0.210 HD
ENDBRANCH   8  13
ENDBRANCH   1   8
BRANCH   1  16
ATOM     15  O   UNL     1      34.652  -8.992 -23.466  0.00  0.00    -0.250 OA
ATOM     16  C   UNL     1      33.540  -9.403 -23.772  0.00  0.00    +0.323 C 
BRANCH  16  17
ATOM     17  O   UNL     1      33.289 -10.439 -24.628  0.00  0.00    -0.451 OA
BRANCH  17  18
ATOM     18  C   UNL     1      34.154 -11.572 -24.500  0.00  0.00    +0.186 C 
BRANCH  18  19
ATOM     19  C   UNL     1      33.491 -12.594 -23.591  0.00  0.00    -0.029 C 
BRANCH  19  20
ATOM     20  N   UNL     1      34.217 -13.855 -23.620  0.00  0.00    +0.387 N 
ATOM     21  C   UNL     1      34.356 -14.405 -22.269  0.00  0.00    -0.101 C 
ATOM     22  C   UNL     1      33.543 -14.821 -24.492  0.00  0.00    -0.101 C 
ATOM     23  H   UNL     1      35.148 -13.675 -23.995  0.00  0.00    -0.080 HD
ENDBRANCH  19  20
ENDBRANCH  18  19
ENDBRANCH  17  18
ENDBRANCH  16  17
ENDBRANCH   1  16
TORSDOF 8
ENDMDL
MODEL 5
REMARK VINA RESULT:      -7.9      2.995      6.379
REMARK  Name = 2905
REMARK  8 active torsions:
REMARK  status: ('A' for Active; 'I' for Inactive)
REMARK    1  A    between atoms: C_1  and  C_2
REMARK    2  A    between atoms: C_1  and  C_8
REMARK    3  A    between atoms: C_1  and  C_16
REMARK    4  A    between atoms: C_8  and  O_13
REMARK    5  A    between atoms: C_16  and  O_17
REMARK    6  A    between atoms: O_17  and  C_18
REMARK    7  A    between atoms: C_18  and  C_19
REMARK    8  A    between atoms: C_19  and  N_20
REMARK                            x       y       z     vdW  Elec       q    Type
REMARK                         _______ _______ _______ _____ _____    ______ ____
ROOT
ATOM      1  C   UNL     1      32.861 -14.359 -22.887  0.00  0.00    +0.146 C 
ENDROOT
BRANCH   1   2
ATOM      2  C   UNL     1      33.163 -13.639 -24.196  0.00  0.00    -0.010 C 
ATOM      3  C   UNL     1      33.767 -12.400 -24.150  0.00  0.00    -0.004 C 
ATOM      4  C   UNL     1      32.822 -14.250 -25.385  0.00  0.00    -0.004 C 
ATOM      5  C   UNL     1      34.042 -11.741 -25.348  0.00  0.00    -0.000 C 
ATOM      6  C   UNL     1      33.099 -13.591 -26.582  0.00  0.00    -0.000 C 
ATOM      7  C   UNL     1      33.708 -12.336 -26.565  0.00  0.00    -0.000 C 
ENDBRANCH   1   2
BRANCH   1   8
ATOM      8  C   UNL     1      34.043 -15.170 -22.378  0.00  0.00    +0.102 C 
ATOM      9  C   UNL     1      34.681 -16.041 -23.457  0.00  0.00    +0.028 C 
ATOM     10  C   UNL     1      33.664 -16.190 -21.308  0.00  0.00    +0.028 C 
ATOM     11  C   UNL     1      35.482 -17.083 -22.676  0.00  0.00    +0.003 C 
ATOM     12  C   UNL     1      34.840 -17.166 -21.291  0.00  0.00    +0.003 C 
BRANCH   8  13
ATOM     13  O   UNL     1      35.031 -14.276 -21.866  0.00  0.00    -0.386 OA
ATOM     14  H   UNL     1      35.914 -14.625 -22.061  0.00  0.00    +0.210 HD
ENDBRANCH   8  13
ENDBRANCH   1   8
BRANCH   1  16
ATOM     15  O   UNL     1      32.663 -13.421 -20.634  0.00  0.00    -0.250 OA
ATOM     16  C   UNL     1      32.363 -13.386 -21.821  0.00  0.00    +0.323 C 
BRANCH  16  17
ATOM     17  O   UNL     1      31.544 -12.458 -22.402  0.00  0.00    -0.451 OA
BRANCH  17  18
ATOM     18  C   UNL     1      31.134 -11.378 -21.557  0.00  0.00    +0.186 C 
BRANCH  18  19
ATOM     19  C   UNL     1      31.490 -10.065 -22.234  0.00  0.00    -0.029 C 
BRANCH  19  20
ATOM     20  N   UNL     1      32.251  -9.211 -21.334  0.00  0.00    +0.387 N 
ATOM     21  C   UNL     1      31.989  -7.797 -21.615  0.00  0.00    -0.101 C 
ATOM     22  C   UNL     1      31.931  -9.516 -19.937  0.00  0.00    -0.101 C 
ATOM     23  H   UNL     1      33.242  -9.395 -21.488  0.00  0.00    -0.080 HD
ENDBRANCH  19  20
ENDBRANCH  18  19
ENDBRANCH  17  18
ENDBRANCH  16  17
ENDBRANCH   1  16
TORSDOF 8
ENDMDL
MODEL 6
REMARK VINA RESULT:      -7.8      1.488      1.906
REMARK  Name = 2905
REMARK  8 active torsions:
REMARK  status: ('A' for Active; 'I' for Inactive)
REMARK    1  A    between atoms: C_1  and  C_2
REMARK    2  A    between atoms: C_1  and  C_8
REMARK    3  A    between atoms: C_1  and  C_16
REMARK    4  A    between atoms: C_8  and  O_13
REMARK    5  A    between atoms: C_16  and  O_17
REMARK    6  A    between atoms: O_17  and  C_18
REMARK    7  A    between atoms: C_18  and  C_19
REMARK    8  A    between atoms: C_19  and  N_20
REMARK                            x       y       z     vdW  Elec       q    Type
REMARK                         _______ _______ _______ _____ _____    ______ ____
ROOT
ATOM      1  C   UNL     1      34.741 -16.752 -21.711  0.00  0.00    +0.146 C 
ENDROOT
BRANCH   1   2
ATOM      2  C   UNL     1      34.816 -18.183 -21.194  0.00  0.00    -0.010 C 
ATOM      3  C   UNL     1      33.643 -18.879 -20.986  0.00  0.00    -0.004 C 
ATOM      4  C   UNL     1      36.055 -18.737 -20.948  0.00  0.00    -0.004 C 
ATOM      5  C   UNL     1      33.712 -20.188 -20.512  0.00  0.00    -0.000 C 
ATOM      6  C   UNL     1      36.124 -20.047 -20.475  0.00  0.00    -0.000 C 
ATOM      7  C   UNL     1      34.953 -20.773 -20.256  0.00  0.00    -0.000 C 
ENDBRANCH   1   2
BRANCH   1   8
ATOM      8  C   UNL     1      34.834 -16.671 -23.226  0.00  0.00    +0.102 C 
ATOM      9  C   UNL     1      33.780 -15.755 -23.845  0.00  0.00    +0.028 C 
ATOM     10  C   UNL     1      34.568 -18.003 -23.924  0.00  0.00    +0.028 C 
ATOM     11  C   UNL     1      33.731 -16.175 -25.314  0.00  0.00    +0.003 C 
ATOM     12  C   UNL     1      34.252 -17.612 -25.367  0.00  0.00    +0.003 C 
BRANCH   8  13
ATOM     13  O   UNL     1      36.128 -16.189 -23.585  0.00  0.00    -0.386 OA
ATOM     14  H   UNL     1      36.215 -16.182 -24.551  0.00  0.00    +0.210 HD
ENDBRANCH   8  13
ENDBRANCH   1   8
BRANCH   1  16
ATOM     15  O   UNL     1      32.406 -16.574 -20.998  0.00  0.00    -0.250 OA
ATOM     16  C   UNL     1      33.490 -16.042 -21.199  0.00  0.00    +0.323 C 
BRANCH  16  17
ATOM     17  O   UNL     1      33.775 -14.722 -20.981  0.00  0.00    -0.451 OA
BRANCH  17  18
ATOM     18  C   UNL     1      32.664 -13.902 -20.606  0.00  0.00    +0.186 C 
BRANCH  18  19
ATOM     19  C   UNL     1      32.222 -13.092 -21.814  0.00  0.00    -0.029 C 
BRANCH  19  20
ATOM     20  N   UNL     1      31.319 -12.024 -21.415  0.00  0.00    +0.387 N 
ATOM     21  C   UNL     1      31.560 -11.634 -20.023  0.00  0.00    -0.101 C 
ATOM     22  C   UNL     1      31.467 -10.864 -22.297  0.00  0.00    -0.101 C 
ATOM     23  H   UNL     1      30.364 -12.372 -21.494  0.00  0.00    -0.080 HD
ENDBRANCH  19  20
ENDBRANCH  18  19
ENDBRANCH  17  18
ENDBRANCH  16  17
ENDBRANCH   1  16
TORSDOF 8
ENDMDL
MODEL 7
REMARK VINA RESULT:      -7.7      2.574      7.302
REMARK  Name = 2905
REMARK  8 active torsions:
REMARK  status: ('A' for Active; 'I' for Inactive)
REMARK    1  A    between atoms: C_1  and  C_2
REMARK    2  A    between atoms: C_1  and  C_8
REMARK    3  A    between atoms: C_1  and  C_16
REMARK    4  A    between atoms: C_8  and  O_13
REMARK    5  A    between atoms: C_16  and  O_17
REMARK    6  A    between atoms: O_17  and  C_18
REMARK    7  A    between atoms: C_18  and  C_19
REMARK    8  A    between atoms: C_19  and  N_20
REMARK                            x       y       z     vdW  Elec       q    Type
REMARK                         _______ _______ _______ _____ _____    ______ ____
ROOT
ATOM      1  C   UNL     1      33.341 -13.017 -22.654  0.00  0.00    +0.146 C 
ENDROOT
BRANCH   1   2
ATOM      2  C   UNL     1      33.346 -13.075 -24.177  0.00  0.00    -0.010 C 
ATOM      3  C   UNL     1      32.884 -14.215 -24.801  0.00  0.00    -0.004 C 
ATOM      4  C   UNL     1      33.812 -11.986 -24.883  0.00  0.00    -0.004 C 
ATOM      5  C   UNL     1      32.889 -14.269 -26.194  0.00  0.00    -0.000 C 
ATOM      6  C   UNL     1      33.816 -12.039 -26.276  0.00  0.00    -0.000 C 
ATOM      7  C   UNL     1      33.355 -13.181 -26.933  0.00  0.00    -0.000 C 
ENDBRANCH   1   2
BRANCH   1   8
ATOM      8  C   UNL     1      32.231 -12.135 -22.105  0.00  0.00    +0.102 C 
ATOM      9  C   UNL     1      32.483 -10.645 -22.325  0.00  0.00    +0.028 C 
ATOM     10  C   UNL     1      32.075 -12.226 -20.589  0.00  0.00    +0.028 C 
ATOM     11  C   UNL     1      31.556  -9.954 -21.325  0.00  0.00    +0.003 C 
ATOM     12  C   UNL     1      31.280 -10.974 -20.220  0.00  0.00    +0.003 C 
BRANCH   8  13
ATOM     13  O   UNL     1      31.002 -12.491 -22.739  0.00  0.00    -0.386 OA
ATOM     14  H   UNL     1      30.264 -12.069 -22.272  0.00  0.00    +0.210 HD
ENDBRANCH   8  13
ENDBRANCH   1   8
BRANCH   1  16
ATOM     15  O   UNL     1      32.261 -15.056 -21.837  0.00  0.00    -0.250 OA
ATOM     16  C   UNL     1      33.284 -14.416 -22.045  0.00  0.00    +0.323 C 
BRANCH  16  17
ATOM     17  O   UNL     1      34.554 -14.850 -21.786  0.00  0.00    -0.451 OA
BRANCH  17  18
ATOM     18  C   UNL     1      34.745 -16.268 -21.829  0.00  0.00    +0.186 C 
BRANCH  18  19
ATOM     19  C   UNL     1      35.225 -16.656 -23.218  0.00  0.00    -0.029 C 
BRANCH  19  20
ATOM     20  N   UNL     1      35.824 -17.982 -23.203  0.00  0.00    +0.387 N 
ATOM     21  C   UNL     1      36.084 -18.419 -21.829  0.00  0.00    -0.101 C 
ATOM     22  C   UNL     1      34.960 -18.948 -23.886  0.00  0.00    -0.101 C 
ATOM     23  H   UNL     1      36.713 -17.932 -23.702  0.00  0.00    -0.080 HD
ENDBRANCH  19  20
ENDBRANCH  18  19
ENDBRANCH  17  18
ENDBRANCH  16  17
ENDBRANCH   1  16
TORSDOF 8
ENDMDL
MODEL 8
REMARK VINA RESULT:      -7.6      5.221      8.115
REMARK  Name = 2905
REMARK  8 active torsions:
REMARK  status: ('A' for Active; 'I' for Inactive)
REMARK    1  A    between atoms: C_1  and  C_2
REMARK    2  A    between atoms: C_1  and  C_8
REMARK    3  A    between atoms: C_1  and  C_16
REMARK    4  A    between atoms: C_8  and  O_13
REMARK    5  A    between atoms: C_16  and  O_17
REMARK    6  A    between atoms: O_17  and  C_18
REMARK    7  A    between atoms: C_18  and  C_19
REMARK    8  A    between atoms: C_19  and  N_20
REMARK                            x       y       z     vdW  Elec       q    Type
REMARK                         _______ _______ _______ _____ _____    ______ ____
ROOT
ATOM      1  C   UNL     1      33.703 -22.931 -16.301  0.00  0.00    +0.146 C 
ENDROOT
BRANCH   1   2
ATOM      2  C   UNL     1      32.574 -23.541 -15.479  0.00  0.00    -0.010 C 
ATOM      3  C   UNL     1      32.888 -24.435 -14.477  0.00  0.00    -0.004 C 
ATOM      4  C   UNL     1      31.274 -23.179 -15.764  0.00  0.00    -0.004 C 
ATOM      5  C   UNL     1      31.854 -24.993 -13.726  0.00  0.00    -0.000 C 
ATOM      6  C   UNL     1      30.241 -23.737 -15.012  0.00  0.00    -0.000 C 
ATOM      7  C   UNL     1      30.530 -24.645 -13.993  0.00  0.00    -0.000 C 
ENDBRANCH   1   2
BRANCH   1   8
ATOM      8  C   UNL     1      35.078 -23.378 -15.829  0.00  0.00    +0.102 C 
ATOM      9  C   UNL     1      35.329 -23.089 -14.351  0.00  0.00    +0.028 C 
ATOM     10  C   UNL     1      36.226 -22.639 -16.512  0.00  0.00    +0.028 C 
ATOM     11  C   UNL     1      36.849 -23.156 -14.206  0.00  0.00    +0.003 C 
ATOM     12  C   UNL     1      37.424 -22.884 -15.597  0.00  0.00    +0.003 C 
BRANCH   8  13
ATOM     13  O   UNL     1      35.208 -24.782 -16.050  0.00  0.00    -0.386 OA
ATOM     14  H   UNL     1      35.495 -25.214 -15.230  0.00  0.00    +0.210 HD
ENDBRANCH   8  13
ENDBRANCH   1   8
BRANCH   1  16
ATOM     15  O   UNL     1      33.605 -24.305 -18.324  0.00  0.00    -0.250 OA
ATOM     16  C   UNL     1      33.517 -23.207 -17.791  0.00  0.00    +0.323 C 
BRANCH  16  17
ATOM     17  O   UNL     1      33.219 -22.038 -18.434  0.00  0.00    -0.451 OA
BRANCH  17  18
ATOM     18  C   UNL     1      34.080 -21.693 -19.524  0.00  0.00    +0.186 C 
BRANCH  18  19
ATOM     19  C   UNL     1      33.523 -20.459 -20.216  0.00  0.00    -0.029 C 
BRANCH  19  20
ATOM     20  N   UNL     1      34.601 -19.575 -20.635  0.00  0.00    +0.387 N 
ATOM     21  C   UNL     1      35.903 -20.220 -20.450  0.00  0.00    -0.101 C 
ATOM     22  C   UNL     1      34.429 -19.175 -22.034  0.00  0.00    -0.101 C 
ATOM     23  H   UNL     1      34.567 -18.739 -20.052  0.00  0.00    -0.080 HD
ENDBRANCH  19  20
ENDBRANCH  18  19
ENDBRANCH  17  18
ENDBRANCH  16  17
ENDBRANCH   1  16
TORSDOF 8
ENDMDL
MODEL 9
REMARK VINA RESULT:      -7.6      5.927      8.928
REMARK  Name = 2905
REMARK  8 active torsions:
REMARK  status: ('A' for Active; 'I' for Inactive)
REMARK    1  A    between atoms: C_1  and  C_2
REMARK    2  A    between atoms: C_1  and  C_8
REMARK    3  A    between atoms: C_1  and  C_16
REMARK    4  A    between atoms: C_8  and  O_13
REMARK    5  A    between atoms: C_16  and  O_17
REMARK    6  A    between atoms: O_17  and  C_18
REMARK    7  A    between atoms: C_18  and  C_19
REMARK    8  A    between atoms: C_19  and  N_20
REMARK                            x       y       z     vdW  Elec       q    Type
REMARK                         _______ _______ _______ _____ _____    ______ ____
ROOT
ATOM      1  C   UNL     1      34.922 -24.053 -15.734  0.00  0.00    +0.146 C 
ENDROOT
BRANCH   1   2
ATOM      2  C   UNL     1      35.759 -24.844 -14.736  0.00  0.00    -0.010 C 
ATOM      3  C   UNL     1      35.897 -24.359 -13.452  0.00  0.00    -0.004 C 
ATOM      4  C   UNL     1      36.351 -26.019 -15.149  0.00  0.00    -0.004 C 
ATOM      5  C   UNL     1      36.664 -25.083 -12.540  0.00  0.00    -0.000 C 
ATOM      6  C   UNL     1      37.117 -26.743 -14.236  0.00  0.00    -0.000 C 
ATOM      7  C   UNL     1      37.274 -26.275 -12.930  0.00  0.00    -0.000 C 
ENDBRANCH   1   2
BRANCH   1   8
ATOM      8  C   UNL     1      33.578 -23.628 -15.164  0.00  0.00    +0.102 C 
ATOM      9  C   UNL     1      32.955 -24.678 -14.247  0.00  0.00    +0.028 C 
ATOM     10  C   UNL     1      32.500 -23.433 -16.228  0.00  0.00    +0.028 C 
ATOM     11  C   UNL     1      31.478 -24.292 -14.181  0.00  0.00    +0.003 C 
ATOM     12  C   UNL     1      31.189 -23.479 -15.443  0.00  0.00    +0.003 C 
BRANCH   8  13
ATOM     13  O   UNL     1      33.751 -22.418 -14.426  0.00  0.00    -0.386 OA
ATOM     14  H   UNL     1      33.469 -22.556 -13.508  0.00  0.00    +0.210 HD
ENDBRANCH   8  13
ENDBRANCH   1   8
BRANCH   1  16
ATOM     15  O   UNL     1      36.419 -22.119 -15.617  0.00  0.00    -0.250 OA
ATOM     16  C   UNL     1      35.693 -22.853 -16.277  0.00  0.00    +0.323 C 
BRANCH  16  17
ATOM     17  O   UNL     1      35.463 -22.735 -17.619  0.00  0.00    -0.451 OA
BRANCH  17  18
ATOM     18  C   UNL     1      36.239 -21.741 -18.297  0.00  0.00    +0.186 C 
BRANCH  18  19
ATOM     19  C   UNL     1      35.749 -21.631 -19.731  0.00  0.00    -0.029 C 
BRANCH  19  20
ATOM     20  N   UNL     1      34.867 -20.484 -19.888  0.00  0.00    +0.387 N 
ATOM     21  C   UNL     1      35.203 -19.733 -21.099  0.00  0.00    -0.101 C 
ATOM     22  C   UNL     1      33.466 -20.910 -19.930  0.00  0.00    -0.101 C 
ATOM     23  H   UNL     1      34.997 -19.874 -19.080  0.00  0.00    -0.080 HD
ENDBRANCH  19  20
ENDBRANCH  18  19
ENDBRANCH  17  18
ENDBRANCH  16  17
ENDBRANCH   1  16
TORSDOF 8
ENDMDL
