MODEL 1
REMARK VINA RESULT:      -8.9      0.000      0.000
REMARK  Name = 6918532
REMARK  8 active torsions:
REMARK  status: ('A' for Active; 'I' for Inactive)
REMARK    1  A    between atoms: C_1  and  O_12
REMARK    2  A    between atoms: C_2  and  N_8
REMARK    3  A    between atoms: O_12  and  C_14
REMARK    4  A    between atoms: C_14  and  C_15
REMARK    5  A    between atoms: C_15  and  C_16
REMARK    6  A    between atoms: C_16  and  C_17
REMARK    7  A    between atoms: C_17  and  O_18
REMARK    8  A    between atoms: O_18  and  N_21
REMARK                            x       y       z     vdW  Elec       q    Type
REMARK                         _______ _______ _______ _____ _____    ______ ____
ROOT
ATOM      1  C   UNL     1      34.051 -22.165 -19.373  0.00  0.00    +0.149 C 
ATOM      2  C   UNL     1      34.700 -19.827 -20.673  0.00  0.00    +0.051 C 
ATOM      3  C   UNL     1      33.033 -21.362 -19.836  0.00  0.00    +0.039 C 
ATOM      4  C   UNL     1      35.380 -21.846 -19.534  0.00  0.00    +0.039 C 
ATOM      5  C   UNL     1      33.362 -20.178 -20.494  0.00  0.00    +0.018 C 
ATOM      6  C   UNL     1      35.709 -20.660 -20.192  0.00  0.00    +0.018 C 
ENDROOT
BRANCH   2   8
ATOM      7  O   UNL     1      34.654 -19.145 -23.606  0.00  0.00    -0.275 OA
ATOM      8  N   UNL     1      35.029 -18.642 -21.333  0.00  0.00    -0.284 N 
ATOM      9  C   UNL     1      34.990 -18.379 -22.709  0.00  0.00    +0.227 C 
ATOM     10  C   UNL     1      35.425 -16.968 -23.020  0.00  0.00    +0.095 C 
ATOM     11  H   UNL     1      35.325 -17.898 -20.761  0.00  0.00    +0.155 HD
ENDBRANCH   2   8
BRANCH   1  12
ATOM     12  O   UNL     1      33.722 -23.352 -18.713  0.00  0.00    -0.424 OA
BRANCH  12  14
ATOM     13  O   UNL     1      34.274 -23.212 -16.446  0.00  0.00    -0.250 OA
ATOM     14  C   UNL     1      33.460 -23.165 -17.358  0.00  0.00    +0.322 C 
BRANCH  14  15
ATOM     15  C   UNL     1      31.986 -22.855 -17.201  0.00  0.00    +0.114 C 
BRANCH  15  16
ATOM     16  C   UNL     1      31.426 -23.280 -15.847  0.00  0.00    +0.062 C 
BRANCH  16  17
ATOM     17  C   UNL     1      29.926 -23.041 -15.728  0.00  0.00    +0.244 C 
BRANCH  17  18
ATOM     18  O   UNL     1      29.458 -22.465 -16.941  0.00  0.00    -0.336 OA
BRANCH  18  21
ATOM     19  O   UNL     1      27.388 -21.704 -17.132  0.00  0.00    -0.090 OA
ATOM     20  O   UNL     1      27.753 -23.882 -17.445  0.00  0.00    -0.090 OA
ATOM     21  N   UNL     1      28.082 -22.720 -17.197  0.00  0.00    +0.218 N 
ENDBRANCH  18  21
ENDBRANCH  17  18
ENDBRANCH  16  17
ENDBRANCH  15  16
ENDBRANCH  14  15
ENDBRANCH  12  14
ENDBRANCH   1  12
TORSDOF 8
ENDMDL
MODEL 2
REMARK VINA RESULT:      -8.7      3.059      4.859
REMARK  Name = 6918532
REMARK  8 active torsions:
REMARK  status: ('A' for Active; 'I' for Inactive)
REMARK    1  A    between atoms: C_1  and  O_12
REMARK    2  A    between atoms: C_2  and  N_8
REMARK    3  A    between atoms: O_12  and  C_14
REMARK    4  A    between atoms: C_14  and  C_15
REMARK    5  A    between atoms: C_15  and  C_16
REMARK    6  A    between atoms: C_16  and  C_17
REMARK    7  A    between atoms: C_17  and  O_18
REMARK    8  A    between atoms: O_18  and  N_21
REMARK                            x       y       z     vdW  Elec       q    Type
REMARK                         _______ _______ _______ _____ _____    ______ ____
ROOT
ATOM      1  C   UNL     1      34.296 -22.209 -19.248  0.00  0.00    +0.149 C 
ATOM      2  C   UNL     1      34.676 -19.870 -20.651  0.00  0.00    +0.051 C 
ATOM      3  C   UNL     1      35.582 -21.818 -19.545  0.00  0.00    +0.039 C 
ATOM      4  C   UNL     1      33.192 -21.476 -19.624  0.00  0.00    +0.039 C 
ATOM      5  C   UNL     1      35.775 -20.634 -20.256  0.00  0.00    +0.018 C 
ATOM      6  C   UNL     1      33.385 -20.292 -20.336  0.00  0.00    +0.018 C 
ENDROOT
BRANCH   2   8
ATOM      7  O   UNL     1      34.875 -19.380 -23.615  0.00  0.00    -0.275 OA
ATOM      8  N   UNL     1      34.869 -18.685 -21.362  0.00  0.00    -0.284 N 
ATOM      9  C   UNL     1      34.956 -18.514 -22.750  0.00  0.00    +0.227 C 
ATOM     10  C   UNL     1      35.168 -17.068 -23.122  0.00  0.00    +0.095 C 
ATOM     11  H   UNL     1      34.955 -17.867 -20.821  0.00  0.00    +0.155 HD
ENDBRANCH   2   8
BRANCH   1  12
ATOM     12  O   UNL     1      34.103 -23.394 -18.535  0.00  0.00    -0.424 OA
BRANCH  12  14
ATOM     13  O   UNL     1      32.611 -23.084 -16.762  0.00  0.00    -0.250 OA
ATOM     14  C   UNL     1      33.747 -23.177 -17.206  0.00  0.00    +0.322 C 
BRANCH  14  15
ATOM     15  C   UNL     1      35.017 -23.110 -16.383  0.00  0.00    +0.114 C 
BRANCH  15  16
ATOM     16  C   UNL     1      34.831 -23.610 -14.954  0.00  0.00    +0.062 C 
BRANCH  16  17
ATOM     17  C   UNL     1      35.233 -25.070 -14.783  0.00  0.00    +0.244 C 
BRANCH  17  18
ATOM     18  O   UNL     1      36.469 -25.284 -15.453  0.00  0.00    -0.336 OA
BRANCH  18  21
ATOM     19  O   UNL     1      36.624 -27.318 -16.314  0.00  0.00    -0.090 OA
ATOM     20  O   UNL     1      37.603 -26.918 -14.351  0.00  0.00    -0.090 OA
ATOM     21  N   UNL     1      36.947 -26.620 -15.351  0.00  0.00    +0.218 N 
ENDBRANCH  18  21
ENDBRANCH  17  18
ENDBRANCH  16  17
ENDBRANCH  15  16
ENDBRANCH  14  15
ENDBRANCH  12  14
ENDBRANCH   1  12
TORSDOF 8
ENDMDL
MODEL 3
REMARK VINA RESULT:      -8.5      3.024      8.191
REMARK  Name = 6918532
REMARK  8 active torsions:
REMARK  status: ('A' for Active; 'I' for Inactive)
REMARK    1  A    between atoms: C_1  and  O_12
REMARK    2  A    between atoms: C_2  and  N_8
REMARK    3  A    between atoms: O_12  and  C_14
REMARK    4  A    between atoms: C_14  and  C_15
REMARK    5  A    between atoms: C_15  and  C_16
REMARK    6  A    between atoms: C_16  and  C_17
REMARK    7  A    between atoms: C_17  and  O_18
REMARK    8  A    between atoms: O_18  and  N_21
REMARK                            x       y       z     vdW  Elec       q    Type
REMARK                         _______ _______ _______ _____ _____    ______ ____
ROOT
ATOM      1  C   UNL     1      35.046 -20.076 -20.837  0.00  0.00    +0.149 C 
ATOM      2  C   UNL     1      33.467 -21.621 -19.192  0.00  0.00    +0.051 C 
ATOM      3  C   UNL     1      33.691 -19.831 -20.800  0.00  0.00    +0.039 C 
ATOM      4  C   UNL     1      35.642 -21.063 -20.084  0.00  0.00    +0.039 C 
ATOM      5  C   UNL     1      32.892 -20.614 -19.967  0.00  0.00    +0.018 C 
ATOM      6  C   UNL     1      34.842 -21.846 -19.252  0.00  0.00    +0.018 C 
ENDROOT
BRANCH   2   8
ATOM      7  O   UNL     1      34.092 -22.938 -16.558  0.00  0.00    -0.275 OA
ATOM      8  N   UNL     1      32.667 -22.403 -18.359  0.00  0.00    -0.284 N 
ATOM      9  C   UNL     1      33.012 -22.996 -17.136  0.00  0.00    +0.227 C 
ATOM     10  C   UNL     1      31.859 -23.765 -16.543  0.00  0.00    +0.095 C 
ATOM     11  H   UNL     1      31.746 -22.559 -18.667  0.00  0.00    +0.155 HD
ENDBRANCH   2   8
BRANCH   1  12
ATOM     12  O   UNL     1      35.847 -19.292 -21.671  0.00  0.00    -0.424 OA
BRANCH  12  14
ATOM     13  O   UNL     1      35.330 -17.289 -20.582  0.00  0.00    -0.250 OA
ATOM     14  C   UNL     1      35.539 -17.935 -21.600  0.00  0.00    +0.322 C 
BRANCH  14  15
ATOM     15  C   UNL     1      35.540 -17.378 -23.007  0.00  0.00    +0.114 C 
BRANCH  15  16
ATOM     16  C   UNL     1      35.177 -18.419 -24.063  0.00  0.00    +0.062 C 
BRANCH  16  17
ATOM     17  C   UNL     1      34.185 -17.892 -25.092  0.00  0.00    +0.244 C 
BRANCH  17  18
ATOM     18  O   UNL     1      34.716 -16.709 -25.676  0.00  0.00    -0.336 OA
BRANCH  18  21
ATOM     19  O   UNL     1      33.429 -15.269 -24.595  0.00  0.00    -0.090 OA
ATOM     20  O   UNL     1      33.469 -15.194 -26.823  0.00  0.00    -0.090 OA
ATOM     21  N   UNL     1      33.791 -15.629 -25.716  0.00  0.00    +0.218 N 
ENDBRANCH  18  21
ENDBRANCH  17  18
ENDBRANCH  16  17
ENDBRANCH  15  16
ENDBRANCH  14  15
ENDBRANCH  12  14
ENDBRANCH   1  12
TORSDOF 8
ENDMDL
MODEL 4
REMARK VINA RESULT:      -8.4      1.613      1.968
REMARK  Name = 6918532
REMARK  8 active torsions:
REMARK  status: ('A' for Active; 'I' for Inactive)
REMARK    1  A    between atoms: C_1  and  O_12
REMARK    2  A    between atoms: C_2  and  N_8
REMARK    3  A    between atoms: O_12  and  C_14
REMARK    4  A    between atoms: C_14  and  C_15
REMARK    5  A    between atoms: C_15  and  C_16
REMARK    6  A    between atoms: C_16  and  C_17
REMARK    7  A    between atoms: C_17  and  O_18
REMARK    8  A    between atoms: O_18  and  N_21
REMARK                            x       y       z     vdW  Elec       q    Type
REMARK                         _______ _______ _______ _____ _____    ______ ____
ROOT
ATOM      1  C   UNL     1      34.815 -21.544 -19.560  0.00  0.00    +0.149 C 
ATOM      2  C   UNL     1      34.649 -19.231 -21.045  0.00  0.00    +0.051 C 
ATOM      3  C   UNL     1      33.572 -21.010 -19.815  0.00  0.00    +0.039 C 
ATOM      4  C   UNL     1      35.979 -20.966 -20.017  0.00  0.00    +0.039 C 
ATOM      5  C   UNL     1      33.488 -19.839 -20.568  0.00  0.00    +0.018 C 
ATOM      6  C   UNL     1      35.895 -19.794 -20.769  0.00  0.00    +0.018 C 
ENDROOT
BRANCH   2   8
ATOM      7  O   UNL     1      35.125 -16.364 -20.258  0.00  0.00    -0.275 OA
ATOM      8  N   UNL     1      34.564 -18.059 -21.798  0.00  0.00    -0.284 N 
ATOM      9  C   UNL     1      34.797 -16.742 -21.378  0.00  0.00    +0.227 C 
ATOM     10  C   UNL     1      34.600 -15.755 -22.501  0.00  0.00    +0.095 C 
ATOM     11  H   UNL     1      34.310 -18.171 -22.742  0.00  0.00    +0.155 HD
ENDBRANCH   2   8
BRANCH   1  12
ATOM     12  O   UNL     1      34.900 -22.717 -18.807  0.00  0.00    -0.424 OA
BRANCH  12  14
ATOM     13  O   UNL     1      36.435 -21.938 -17.226  0.00  0.00    -0.250 OA
ATOM     14  C   UNL     1      35.392 -22.503 -17.521  0.00  0.00    +0.322 C 
BRANCH  14  15
ATOM     15  C   UNL     1      34.388 -23.061 -16.534  0.00  0.00    +0.114 C 
BRANCH  15  16
ATOM     16  C   UNL     1      33.082 -23.498 -17.192  0.00  0.00    +0.062 C 
BRANCH  16  17
ATOM     17  C   UNL     1      31.867 -23.260 -16.304  0.00  0.00    +0.244 C 
BRANCH  17  18
ATOM     18  O   UNL     1      30.881 -22.564 -17.055  0.00  0.00    -0.336 OA
BRANCH  18  21
ATOM     19  O   UNL     1      29.610 -22.945 -15.283  0.00  0.00    -0.090 OA
ATOM     20  O   UNL     1      28.628 -22.287 -17.174  0.00  0.00    -0.090 OA
ATOM     21  N   UNL     1      29.587 -22.597 -16.465  0.00  0.00    +0.218 N 
ENDBRANCH  18  21
ENDBRANCH  17  18
ENDBRANCH  16  17
ENDBRANCH  15  16
ENDBRANCH  14  15
ENDBRANCH  12  14
ENDBRANCH   1  12
TORSDOF 8
ENDMDL
MODEL 5
REMARK VINA RESULT:      -8.4      3.156      5.129
REMARK  Name = 6918532
REMARK  8 active torsions:
REMARK  status: ('A' for Active; 'I' for Inactive)
REMARK    1  A    between atoms: C_1  and  O_12
REMARK    2  A    between atoms: C_2  and  N_8
REMARK    3  A    between atoms: O_12  and  C_14
REMARK    4  A    between atoms: C_14  and  C_15
REMARK    5  A    between atoms: C_15  and  C_16
REMARK    6  A    between atoms: C_16  and  C_17
REMARK    7  A    between atoms: C_17  and  O_18
REMARK    8  A    between atoms: O_18  and  N_21
REMARK                            x       y       z     vdW  Elec       q    Type
REMARK                         _______ _______ _______ _____ _____    ______ ____
ROOT
ATOM      1  C   UNL     1      34.251 -22.231 -19.267  0.00  0.00    +0.149 C 
ATOM      2  C   UNL     1      34.653 -19.872 -20.630  0.00  0.00    +0.051 C 
ATOM      3  C   UNL     1      33.155 -21.470 -19.609  0.00  0.00    +0.039 C 
ATOM      4  C   UNL     1      35.540 -21.858 -19.579  0.00  0.00    +0.039 C 
ATOM      5  C   UNL     1      33.359 -20.276 -20.300  0.00  0.00    +0.018 C 
ATOM      6  C   UNL     1      35.743 -20.663 -20.268  0.00  0.00    +0.018 C 
ENDROOT
BRANCH   2   8
ATOM      7  O   UNL     1      34.814 -19.328 -23.587  0.00  0.00    -0.275 OA
ATOM      8  N   UNL     1      34.856 -18.677 -21.321  0.00  0.00    -0.284 N 
ATOM      9  C   UNL     1      34.924 -18.481 -22.707  0.00  0.00    +0.227 C 
ATOM     10  C   UNL     1      35.157 -17.032 -23.054  0.00  0.00    +0.095 C 
ATOM     11  H   UNL     1      34.965 -17.872 -20.766  0.00  0.00    +0.155 HD
ENDBRANCH   2   8
BRANCH   1  12
ATOM     12  O   UNL     1      34.048 -23.428 -18.576  0.00  0.00    -0.424 OA
BRANCH  12  14
ATOM     13  O   UNL     1      32.379 -23.179 -16.957  0.00  0.00    -0.250 OA
ATOM     14  C   UNL     1      33.556 -23.233 -17.287  0.00  0.00    +0.322 C 
BRANCH  14  15
ATOM     15  C   UNL     1      34.735 -23.135 -16.342  0.00  0.00    +0.114 C 
BRANCH  15  16
ATOM     16  C   UNL     1      34.697 -24.177 -15.228  0.00  0.00    +0.062 C 
BRANCH  16  17
ATOM     17  C   UNL     1      36.060 -24.399 -14.584  0.00  0.00    +0.244 C 
BRANCH  17  18
ATOM     18  O   UNL     1      36.771 -25.370 -15.342  0.00  0.00    -0.336 OA
BRANCH  18  21
ATOM     19  O   UNL     1      38.370 -26.771 -14.723  0.00  0.00    -0.090 OA
ATOM     20  O   UNL     1      38.813 -24.586 -14.724  0.00  0.00    -0.090 OA
ATOM     21  N   UNL     1      38.104 -25.580 -14.891  0.00  0.00    +0.218 N 
ENDBRANCH  18  21
ENDBRANCH  17  18
ENDBRANCH  16  17
ENDBRANCH  15  16
ENDBRANCH  14  15
ENDBRANCH  12  14
ENDBRANCH   1  12
TORSDOF 8
ENDMDL
MODEL 6
REMARK VINA RESULT:      -8.3      3.284      5.679
REMARK  Name = 6918532
REMARK  8 active torsions:
REMARK  status: ('A' for Active; 'I' for Inactive)
REMARK    1  A    between atoms: C_1  and  O_12
REMARK    2  A    between atoms: C_2  and  N_8
REMARK    3  A    between atoms: O_12  and  C_14
REMARK    4  A    between atoms: C_14  and  C_15
REMARK    5  A    between atoms: C_15  and  C_16
REMARK    6  A    between atoms: C_16  and  C_17
REMARK    7  A    between atoms: C_17  and  O_18
REMARK    8  A    between atoms: O_18  and  N_21
REMARK                            x       y       z     vdW  Elec       q    Type
REMARK                         _______ _______ _______ _____ _____    ______ ____
ROOT
ATOM      1  C   UNL     1      34.656 -16.882 -21.669  0.00  0.00    +0.149 C 
ATOM      2  C   UNL     1      33.941 -15.242 -23.762  0.00  0.00    +0.051 C 
ATOM      3  C   UNL     1      35.322 -17.011 -22.867  0.00  0.00    +0.039 C 
ATOM      4  C   UNL     1      33.647 -15.965 -21.476  0.00  0.00    +0.039 C 
ATOM      5  C   UNL     1      34.959 -16.180 -23.927  0.00  0.00    +0.018 C 
ATOM      6  C   UNL     1      33.283 -15.135 -22.536  0.00  0.00    +0.018 C 
ENDROOT
BRANCH   2   8
ATOM      7  O   UNL     1      32.948 -15.917 -26.524  0.00  0.00    -0.275 OA
ATOM      8  N   UNL     1      33.578 -14.411 -24.823  0.00  0.00    -0.284 N 
ATOM      9  C   UNL     1      33.121 -14.781 -26.095  0.00  0.00    +0.227 C 
ATOM     10  C   UNL     1      32.835 -13.578 -26.957  0.00  0.00    +0.095 C 
ATOM     11  H   UNL     1      33.652 -13.444 -24.657  0.00  0.00    +0.155 HD
ENDBRANCH   2   8
BRANCH   1  12
ATOM     12  O   UNL     1      35.019 -17.713 -20.607  0.00  0.00    -0.424 OA
BRANCH  12  14
ATOM     13  O   UNL     1      36.273 -19.658 -20.936  0.00  0.00    -0.250 OA
ATOM     14  C   UNL     1      35.223 -19.035 -20.997  0.00  0.00    +0.322 C 
BRANCH  14  15
ATOM     15  C   UNL     1      33.901 -19.591 -21.483  0.00  0.00    +0.114 C 
BRANCH  15  16
ATOM     16  C   UNL     1      33.027 -20.129 -20.353  0.00  0.00    +0.062 C 
BRANCH  16  17
ATOM     17  C   UNL     1      33.640 -21.341 -19.662  0.00  0.00    +0.244 C 
BRANCH  17  18
ATOM     18  O   UNL     1      32.626 -22.002 -18.915  0.00  0.00    -0.336 OA
BRANCH  18  21
ATOM     19  O   UNL     1      34.326 -23.111 -18.031  0.00  0.00    -0.090 OA
ATOM     20  O   UNL     1      32.354 -23.186 -16.994  0.00  0.00    -0.090 OA
ATOM     21  N   UNL     1      33.133 -22.839 -17.883  0.00  0.00    +0.218 N 
ENDBRANCH  18  21
ENDBRANCH  17  18
ENDBRANCH  16  17
ENDBRANCH  15  16
ENDBRANCH  14  15
ENDBRANCH  12  14
ENDBRANCH   1  12
TORSDOF 8
ENDMDL
MODEL 7
REMARK VINA RESULT:      -8.3      4.428      6.539
REMARK  Name = 6918532
REMARK  8 active torsions:
REMARK  status: ('A' for Active; 'I' for Inactive)
REMARK    1  A    between atoms: C_1  and  O_12
REMARK    2  A    between atoms: C_2  and  N_8
REMARK    3  A    between atoms: O_12  and  C_14
REMARK    4  A    between atoms: C_14  and  C_15
REMARK    5  A    between atoms: C_15  and  C_16
REMARK    6  A    between atoms: C_16  and  C_17
REMARK    7  A    between atoms: C_17  and  O_18
REMARK    8  A    between atoms: O_18  and  N_21
REMARK                            x       y       z     vdW  Elec       q    Type
REMARK                         _______ _______ _______ _____ _____    ______ ____
ROOT
ATOM      1  C   UNL     1      34.917 -23.481 -15.528  0.00  0.00    +0.149 C 
ATOM      2  C   UNL     1      37.465 -24.481 -15.228  0.00  0.00    +0.051 C 
ATOM      3  C   UNL     1      35.071 -24.793 -15.141  0.00  0.00    +0.039 C 
ATOM      4  C   UNL     1      35.986 -22.649 -15.771  0.00  0.00    +0.039 C 
ATOM      5  C   UNL     1      36.361 -25.299 -14.989  0.00  0.00    +0.018 C 
ATOM      6  C   UNL     1      37.277 -23.155 -15.621  0.00  0.00    +0.018 C 
ENDROOT
BRANCH   2   8
ATOM      7  O   UNL     1      38.712 -25.998 -12.946  0.00  0.00    -0.275 OA
ATOM      8  N   UNL     1      38.756 -24.987 -15.076  0.00  0.00    -0.284 N 
ATOM      9  C   UNL     1      39.287 -25.689 -13.985  0.00  0.00    +0.227 C 
ATOM     10  C   UNL     1      40.730 -26.064 -14.212  0.00  0.00    +0.095 C 
ATOM     11  H   UNL     1      39.371 -24.832 -15.828  0.00  0.00    +0.155 HD
ENDBRANCH   2   8
BRANCH   1  12
ATOM     12  O   UNL     1      33.624 -22.974 -15.679  0.00  0.00    -0.424 OA
BRANCH  12  14
ATOM     13  O   UNL     1      33.666 -23.731 -17.891  0.00  0.00    -0.250 OA
ATOM     14  C   UNL     1      33.085 -23.228 -16.939  0.00  0.00    +0.322 C 
BRANCH  14  15
ATOM     15  C   UNL     1      31.631 -22.807 -16.923  0.00  0.00    +0.114 C 
BRANCH  15  16
ATOM     16  C   UNL     1      30.889 -23.267 -15.671  0.00  0.00    +0.062 C 
BRANCH  16  17
ATOM     17  C   UNL     1      29.416 -22.877 -15.682  0.00  0.00    +0.244 C 
BRANCH  17  18
ATOM     18  O   UNL     1      29.099 -22.326 -16.954  0.00  0.00    -0.336 OA
BRANCH  18  21
ATOM     19  O   UNL     1      27.496 -23.678 -17.663  0.00  0.00    -0.090 OA
ATOM     20  O   UNL     1      26.995 -21.537 -17.297  0.00  0.00    -0.090 OA
ATOM     21  N   UNL     1      27.742 -22.516 -17.335  0.00  0.00    +0.218 N 
ENDBRANCH  18  21
ENDBRANCH  17  18
ENDBRANCH  16  17
ENDBRANCH  15  16
ENDBRANCH  14  15
ENDBRANCH  12  14
ENDBRANCH   1  12
TORSDOF 8
ENDMDL
MODEL 8
REMARK VINA RESULT:      -8.2      2.309      3.014
REMARK  Name = 6918532
REMARK  8 active torsions:
REMARK  status: ('A' for Active; 'I' for Inactive)
REMARK    1  A    between atoms: C_1  and  O_12
REMARK    2  A    between atoms: C_2  and  N_8
REMARK    3  A    between atoms: O_12  and  C_14
REMARK    4  A    between atoms: C_14  and  C_15
REMARK    5  A    between atoms: C_15  and  C_16
REMARK    6  A    between atoms: C_16  and  C_17
REMARK    7  A    between atoms: C_17  and  O_18
REMARK    8  A    between atoms: O_18  and  N_21
REMARK                            x       y       z     vdW  Elec       q    Type
REMARK                         _______ _______ _______ _____ _____    ______ ____
ROOT
ATOM      1  C   UNL     1      33.998 -22.252 -19.325  0.00  0.00    +0.149 C 
ATOM      2  C   UNL     1      34.602 -19.899 -20.622  0.00  0.00    +0.051 C 
ATOM      3  C   UNL     1      35.321 -21.944 -19.556  0.00  0.00    +0.039 C 
ATOM      4  C   UNL     1      32.966 -21.430 -19.718  0.00  0.00    +0.039 C 
ATOM      5  C   UNL     1      35.626 -20.752 -20.213  0.00  0.00    +0.018 C 
ATOM      6  C   UNL     1      33.271 -20.238 -20.376  0.00  0.00    +0.018 C 
ENDROOT
BRANCH   2   8
ATOM      7  O   UNL     1      34.749 -19.271 -23.564  0.00  0.00    -0.275 OA
ATOM      8  N   UNL     1      34.907 -18.707 -21.280  0.00  0.00    -0.284 N 
ATOM      9  C   UNL     1      34.962 -18.470 -22.660  0.00  0.00    +0.227 C 
ATOM     10  C   UNL     1      35.331 -17.040 -22.966  0.00  0.00    +0.095 C 
ATOM     11  H   UNL     1      35.109 -17.936 -20.702  0.00  0.00    +0.155 HD
ENDBRANCH   2   8
BRANCH   1  12
ATOM     12  O   UNL     1      33.692 -23.445 -18.666  0.00  0.00    -0.424 OA
BRANCH  12  14
ATOM     13  O   UNL     1      32.084 -23.036 -17.019  0.00  0.00    -0.250 OA
ATOM     14  C   UNL     1      33.239 -23.245 -17.364  0.00  0.00    +0.322 C 
BRANCH  14  15
ATOM     15  C   UNL     1      34.424 -23.367 -16.429  0.00  0.00    +0.114 C 
BRANCH  15  16
ATOM     16  C   UNL     1      34.059 -23.127 -14.967  0.00  0.00    +0.062 C 
BRANCH  16  17
ATOM     17  C   UNL     1      33.792 -24.420 -14.207  0.00  0.00    +0.244 C 
BRANCH  17  18
ATOM     18  O   UNL     1      32.825 -24.165 -13.195  0.00  0.00    -0.336 OA
BRANCH  18  21
ATOM     19  O   UNL     1      30.654 -24.224 -12.768  0.00  0.00    -0.090 OA
ATOM     20  O   UNL     1      31.448 -25.500 -14.415  0.00  0.00    -0.090 OA
ATOM     21  N   UNL     1      31.535 -24.683 -13.497  0.00  0.00    +0.218 N 
ENDBRANCH  18  21
ENDBRANCH  17  18
ENDBRANCH  16  17
ENDBRANCH  15  16
ENDBRANCH  14  15
ENDBRANCH  12  14
ENDBRANCH   1  12
TORSDOF 8
ENDMDL
MODEL 9
REMARK VINA RESULT:      -8.1      4.098      5.727
REMARK  Name = 6918532
REMARK  8 active torsions:
REMARK  status: ('A' for Active; 'I' for Inactive)
REMARK    1  A    between atoms: C_1  and  O_12
REMARK    2  A    between atoms: C_2  and  N_8
REMARK    3  A    between atoms: O_12  and  C_14
REMARK    4  A    between atoms: C_14  and  C_15
REMARK    5  A    between atoms: C_15  and  C_16
REMARK    6  A    between atoms: C_16  and  C_17
REMARK    7  A    between atoms: C_17  and  O_18
REMARK    8  A    between atoms: O_18  and  N_21
REMARK                            x       y       z     vdW  Elec       q    Type
REMARK                         _______ _______ _______ _____ _____    ______ ____
ROOT
ATOM      1  C   UNL     1      35.261 -21.812 -18.924  0.00  0.00    +0.149 C 
ATOM      2  C   UNL     1      35.142 -19.802 -20.802  0.00  0.00    +0.051 C 
ATOM      3  C   UNL     1      34.025 -21.379 -19.352  0.00  0.00    +0.039 C 
ATOM      4  C   UNL     1      36.439 -21.280 -19.398  0.00  0.00    +0.039 C 
ATOM      5  C   UNL     1      33.966 -20.361 -20.303  0.00  0.00    +0.018 C 
ATOM      6  C   UNL     1      36.379 -20.260 -20.349  0.00  0.00    +0.018 C 
ENDROOT
BRANCH   2   8
ATOM      7  O   UNL     1      35.252 -16.811 -20.473  0.00  0.00    -0.275 OA
ATOM      8  N   UNL     1      35.082 -18.783 -21.754  0.00  0.00    -0.284 N 
ATOM      9  C   UNL     1      35.137 -17.399 -21.543  0.00  0.00    +0.227 C 
ATOM     10  C   UNL     1      35.040 -16.633 -22.839  0.00  0.00    +0.095 C 
ATOM     11  H   UNL     1      34.990 -19.073 -22.690  0.00  0.00    +0.155 HD
ENDBRANCH   2   8
BRANCH   1  12
ATOM     12  O   UNL     1      35.321 -22.833 -17.972  0.00  0.00    -0.424 OA
BRANCH  12  14
ATOM     13  O   UNL     1      36.857 -21.611 -16.703  0.00  0.00    -0.250 OA
ATOM     14  C   UNL     1      35.968 -22.445 -16.801  0.00  0.00    +0.322 C 
BRANCH  14  15
ATOM     15  C   UNL     1      35.355 -23.211 -15.648  0.00  0.00    +0.114 C 
BRANCH  15  16
ATOM     16  C   UNL     1      36.202 -23.161 -14.380  0.00  0.00    +0.062 C 
BRANCH  16  17
ATOM     17  C   UNL     1      37.101 -24.382 -14.223  0.00  0.00    +0.244 C 
BRANCH  17  18
ATOM     18  O   UNL     1      38.290 -23.991 -13.549  0.00  0.00    -0.336 OA
BRANCH  18  21
ATOM     19  O   UNL     1      37.743 -24.971 -11.642  0.00  0.00    -0.090 OA
ATOM     20  O   UNL     1      38.429 -22.851 -11.588  0.00  0.00    -0.090 OA
ATOM     21  N   UNL     1      38.147 -23.918 -12.136  0.00  0.00    +0.218 N 
ENDBRANCH  18  21
ENDBRANCH  17  18
ENDBRANCH  16  17
ENDBRANCH  15  16
ENDBRANCH  14  15
ENDBRANCH  12  14
ENDBRANCH   1  12
TORSDOF 8
ENDMDL
