MODEL 1
REMARK VINA RESULT:      -8.0      0.000      0.000
REMARK  Name = 6971044
REMARK  5 active torsions:
REMARK  status: ('A' for Active; 'I' for Inactive)
REMARK    1  A    between atoms: C_2  and  C_13
REMARK    2  A    between atoms: C_8  and  O_11
REMARK    3  A    between atoms: C_13  and  CA_14
REMARK    4  A    between atoms: CA_14  and  N_15
REMARK    5  A    between atoms: CA_14  and  C_21
REMARK                            x       y       z     vdW  Elec       q    Type
REMARK                         _______ _______ _______ _____ _____    ______ ____
ROOT
ATOM      1  N   UNL     1      37.189 -19.572 -20.774  0.00  0.00    -0.312 N 
ATOM      2  C   UNL     1      35.301 -18.773 -21.626  0.00  0.00    -0.008 C 
ATOM      3  C   UNL     1      34.975 -19.849 -20.753  0.00  0.00    +0.014 C 
ATOM      4  C   UNL     1      36.177 -20.332 -20.231  0.00  0.00    +0.048 C 
ATOM      5  C   UNL     1      36.668 -18.627 -21.617  0.00  0.00    +0.058 C 
ATOM      6  C   UNL     1      33.769 -20.459 -20.355  0.00  0.00    +0.038 C 
ATOM      7  C   UNL     1      36.233 -21.400 -19.330  0.00  0.00    +0.018 C 
ATOM      8  C   UNL     1      33.810 -21.529 -19.453  0.00  0.00    +0.134 C 
ATOM      9  C   UNL     1      35.025 -21.990 -18.949  0.00  0.00    +0.038 C 
ATOM     10  H   UNL     1      38.146 -19.690 -20.582  0.00  0.00    +0.152 HD
ENDROOT
BRANCH   8  11
ATOM     11  O   UNL     1      32.648 -22.125 -19.065  0.00  0.00    -0.506 OA
ATOM     12  H   UNL     1      32.309 -22.851 -19.549  0.00  0.00    +0.292 HD
ENDBRANCH   8  11
BRANCH   2  13
ATOM     13  C   UNL     1      34.350 -17.953 -22.404  0.00  0.00    +0.017 C 
BRANCH  13  14
ATOM     14  CA  UNL     1      35.028 -17.096 -23.498  0.00  0.00    +0.045 C 
BRANCH  14  15
ATOM     15  N   UNL     1      34.677 -15.660 -23.253  0.00  0.00    +0.389 N 
ATOM     16  H1  UNL     1      34.004 -15.351 -23.955  0.00  0.00    -0.088 HD
ATOM     17  H2  UNL     1      35.520 -15.089 -23.313  0.00  0.00    -0.088 HD
ATOM     18  H3  UNL     1      34.267 -15.564 -22.324  0.00  0.00    -0.088 HD
ENDBRANCH  14  15
BRANCH  14  21
ATOM     19  O   UNL     1      34.192 -18.739 -24.974  0.00  0.00    -0.248 OA
ATOM     20  OXT UNL     1      34.771 -16.697 -25.823  0.00  0.00    -0.248 OA
ATOM     21  C   UNL     1      34.627 -17.554 -24.907  0.00  0.00    +0.345 C 
ENDBRANCH  14  21
ENDBRANCH  13  14
ENDBRANCH   2  13
TORSDOF 5
ENDMDL
MODEL 2
REMARK VINA RESULT:      -7.8      2.512      3.164
REMARK  Name = 6971044
REMARK  5 active torsions:
REMARK  status: ('A' for Active; 'I' for Inactive)
REMARK    1  A    between atoms: C_2  and  C_13
REMARK    2  A    between atoms: C_8  and  O_11
REMARK    3  A    between atoms: C_13  and  CA_14
REMARK    4  A    between atoms: CA_14  and  N_15
REMARK    5  A    between atoms: CA_14  and  C_21
REMARK                            x       y       z     vdW  Elec       q    Type
REMARK                         _______ _______ _______ _____ _____    ______ ____
ROOT
ATOM      1  N   UNL     1      32.630 -20.685 -20.463  0.00  0.00    -0.312 N 
ATOM      2  C   UNL     1      34.538 -19.700 -21.024  0.00  0.00    -0.008 C 
ATOM      3  C   UNL     1      34.812 -20.648 -20.000  0.00  0.00    +0.014 C 
ATOM      4  C   UNL     1      33.598 -21.254 -19.665  0.00  0.00    +0.048 C 
ATOM      5  C   UNL     1      33.189 -19.747 -21.288  0.00  0.00    +0.058 C 
ATOM      6  C   UNL     1      35.979 -21.053 -19.322  0.00  0.00    +0.038 C 
ATOM      7  C   UNL     1      33.493 -22.244 -18.683  0.00  0.00    +0.018 C 
ATOM      8  C   UNL     1      35.890 -22.043 -18.337  0.00  0.00    +0.134 C 
ATOM      9  C   UNL     1      34.664 -22.629 -18.025  0.00  0.00    +0.038 C 
ATOM     10  H   UNL     1      31.675 -20.921 -20.444  0.00  0.00    +0.152 HD
ENDROOT
BRANCH   8  11
ATOM     11  O   UNL     1      37.014 -22.438 -17.677  0.00  0.00    -0.506 OA
ATOM     12  H   UNL     1      36.960 -23.092 -17.008  0.00  0.00    +0.292 HD
ENDBRANCH   8  11
BRANCH   2  13
ATOM     13  C   UNL     1      35.519 -18.821 -21.693  0.00  0.00    +0.017 C 
BRANCH  13  14
ATOM     14  CA  UNL     1      34.870 -17.630 -22.437  0.00  0.00    +0.045 C 
BRANCH  14  15
ATOM     15  N   UNL     1      35.594 -17.439 -23.735  0.00  0.00    +0.389 N 
ATOM     16  H1  UNL     1      36.352 -18.118 -23.804  0.00  0.00    -0.088 HD
ATOM     17  H2  UNL     1      35.978 -16.495 -23.773  0.00  0.00    -0.088 HD
ATOM     18  H3  UNL     1      34.945 -17.573 -24.509  0.00  0.00    -0.088 HD
ENDBRANCH  14  15
BRANCH  14  21
ATOM     19  O   UNL     1      34.564 -15.300 -22.203  0.00  0.00    -0.248 OA
ATOM     20  OXT UNL     1      35.185 -16.513 -20.367  0.00  0.00    -0.248 OA
ATOM     21  C   UNL     1      34.877 -16.356 -21.581  0.00  0.00    +0.345 C 
ENDBRANCH  14  21
ENDBRANCH  13  14
ENDBRANCH   2  13
TORSDOF 5
ENDMDL
MODEL 3
REMARK VINA RESULT:      -7.6      1.625      1.930
REMARK  Name = 6971044
REMARK  5 active torsions:
REMARK  status: ('A' for Active; 'I' for Inactive)
REMARK    1  A    between atoms: C_2  and  C_13
REMARK    2  A    between atoms: C_8  and  O_11
REMARK    3  A    between atoms: C_13  and  CA_14
REMARK    4  A    between atoms: CA_14  and  N_15
REMARK    5  A    between atoms: CA_14  and  C_21
REMARK                            x       y       z     vdW  Elec       q    Type
REMARK                         _______ _______ _______ _____ _____    ______ ____
ROOT
ATOM      1  N   UNL     1      37.017 -19.529 -20.840  0.00  0.00    -0.312 N 
ATOM      2  C   UNL     1      35.073 -18.626 -21.417  0.00  0.00    -0.008 C 
ATOM      3  C   UNL     1      34.810 -19.783 -20.632  0.00  0.00    +0.014 C 
ATOM      4  C   UNL     1      36.046 -20.332 -20.282  0.00  0.00    +0.048 C 
ATOM      5  C   UNL     1      36.438 -18.496 -21.526  0.00  0.00    +0.058 C 
ATOM      6  C   UNL     1      33.635 -20.419 -20.183  0.00  0.00    +0.038 C 
ATOM      7  C   UNL     1      36.167 -21.488 -19.505  0.00  0.00    +0.018 C 
ATOM      8  C   UNL     1      33.740 -21.578 -19.404  0.00  0.00    +0.134 C 
ATOM      9  C   UNL     1      34.988 -22.102 -19.071  0.00  0.00    +0.038 C 
ATOM     10  H   UNL     1      37.986 -19.677 -20.756  0.00  0.00    +0.152 HD
ENDROOT
BRANCH   8  11
ATOM     11  O   UNL     1      32.609 -22.198 -18.968  0.00  0.00    -0.506 OA
ATOM     12  H   UNL     1      32.652 -23.075 -18.640  0.00  0.00    +0.292 HD
ENDBRANCH   8  11
BRANCH   2  13
ATOM     13  C   UNL     1      34.069 -17.720 -22.010  0.00  0.00    +0.017 C 
BRANCH  13  14
ATOM     14  CA  UNL     1      34.172 -16.265 -21.494  0.00  0.00    +0.045 C 
BRANCH  14  15
ATOM     15  N   UNL     1      32.844 -15.877 -20.918  0.00  0.00    +0.389 N 
ATOM     16  H1  UNL     1      32.972 -15.549 -19.961  0.00  0.00    -0.088 HD
ATOM     17  H2  UNL     1      32.224 -16.687 -20.920  0.00  0.00    -0.088 HD
ATOM     18  H3  UNL     1      32.433 -15.134 -21.482  0.00  0.00    -0.088 HD
ENDBRANCH  14  15
BRANCH  14  21
ATOM     19  O   UNL     1      34.214 -14.113 -22.467  0.00  0.00    -0.248 OA
ATOM     20  OXT UNL     1      35.346 -15.806 -23.505  0.00  0.00    -0.248 OA
ATOM     21  C   UNL     1      34.622 -15.302 -22.602  0.00  0.00    +0.345 C 
ENDBRANCH  14  21
ENDBRANCH  13  14
ENDBRANCH   2  13
TORSDOF 5
ENDMDL
MODEL 4
REMARK VINA RESULT:      -7.6      6.624      8.822
REMARK  Name = 6971044
REMARK  5 active torsions:
REMARK  status: ('A' for Active; 'I' for Inactive)
REMARK    1  A    between atoms: C_2  and  C_13
REMARK    2  A    between atoms: C_8  and  O_11
REMARK    3  A    between atoms: C_13  and  CA_14
REMARK    4  A    between atoms: CA_14  and  N_15
REMARK    5  A    between atoms: CA_14  and  C_21
REMARK                            x       y       z     vdW  Elec       q    Type
REMARK                         _______ _______ _______ _____ _____    ______ ____
ROOT
ATOM      1  N   UNL     1      32.978 -23.587 -13.875  0.00  0.00    -0.312 N 
ATOM      2  C   UNL     1      31.020 -22.989 -14.733  0.00  0.00    -0.008 C 
ATOM      3  C   UNL     1      31.986 -22.973 -15.777  0.00  0.00    +0.014 C 
ATOM      4  C   UNL     1      33.206 -23.352 -15.213  0.00  0.00    +0.048 C 
ATOM      5  C   UNL     1      31.660 -23.371 -13.577  0.00  0.00    +0.058 C 
ATOM      6  C   UNL     1      31.940 -22.672 -17.153  0.00  0.00    +0.038 C 
ATOM      7  C   UNL     1      34.387 -23.444 -15.958  0.00  0.00    +0.018 C 
ATOM      8  C   UNL     1      33.113 -22.759 -17.912  0.00  0.00    +0.134 C 
ATOM      9  C   UNL     1      34.317 -23.140 -17.321  0.00  0.00    +0.038 C 
ATOM     10  H   UNL     1      33.663 -23.871 -13.229  0.00  0.00    +0.152 HD
ENDROOT
BRANCH   8  11
ATOM     11  O   UNL     1      33.076 -22.468 -19.242  0.00  0.00    -0.506 OA
ATOM     12  H   UNL     1      33.848 -22.163 -19.676  0.00  0.00    +0.292 HD
ENDBRANCH   8  11
BRANCH   2  13
ATOM     13  C   UNL     1      29.585 -22.660 -14.857  0.00  0.00    +0.017 C 
BRANCH  13  14
ATOM     14  CA  UNL     1      28.760 -23.761 -15.563  0.00  0.00    +0.045 C 
BRANCH  14  15
ATOM     15  N   UNL     1      29.626 -24.974 -15.710  0.00  0.00    +0.389 N 
ATOM     16  H1  UNL     1      30.170 -25.109 -14.857  0.00  0.00    -0.088 HD
ATOM     17  H2  UNL     1      30.259 -24.846 -16.500  0.00  0.00    -0.088 HD
ATOM     18  H3  UNL     1      29.041 -25.792 -15.873  0.00  0.00    -0.088 HD
ENDBRANCH  14  15
BRANCH  14  21
ATOM     19  O   UNL     1      28.378 -22.047 -17.143  0.00  0.00    -0.248 OA
ATOM     20  OXT UNL     1      27.668 -24.165 -17.631  0.00  0.00    -0.248 OA
ATOM     21  C   UNL     1      28.211 -23.279 -16.913  0.00  0.00    +0.345 C 
ENDBRANCH  14  21
ENDBRANCH  13  14
ENDBRANCH   2  13
TORSDOF 5
ENDMDL
MODEL 5
REMARK VINA RESULT:      -7.5      7.718     10.277
REMARK  Name = 6971044
REMARK  5 active torsions:
REMARK  status: ('A' for Active; 'I' for Inactive)
REMARK    1  A    between atoms: C_2  and  C_13
REMARK    2  A    between atoms: C_8  and  O_11
REMARK    3  A    between atoms: C_13  and  CA_14
REMARK    4  A    between atoms: CA_14  and  N_15
REMARK    5  A    between atoms: CA_14  and  C_21
REMARK                            x       y       z     vdW  Elec       q    Type
REMARK                         _______ _______ _______ _____ _____    ______ ____
ROOT
ATOM      1  N   UNL     1      34.728 -24.662 -12.469  0.00  0.00    -0.312 N 
ATOM      2  C   UNL     1      36.759 -24.516 -13.353  0.00  0.00    -0.008 C 
ATOM      3  C   UNL     1      35.819 -24.066 -14.322  0.00  0.00    +0.014 C 
ATOM      4  C   UNL     1      34.552 -24.167 -13.743  0.00  0.00    +0.048 C 
ATOM      5  C   UNL     1      36.058 -24.875 -12.225  0.00  0.00    +0.058 C 
ATOM      6  C   UNL     1      35.925 -23.580 -15.640  0.00  0.00    +0.038 C 
ATOM      7  C   UNL     1      33.382 -23.808 -14.419  0.00  0.00    +0.018 C 
ATOM      8  C   UNL     1      34.762 -23.215 -16.330  0.00  0.00    +0.134 C 
ATOM      9  C   UNL     1      33.511 -23.328 -15.725  0.00  0.00    +0.038 C 
ATOM     10  H   UNL     1      34.002 -24.836 -11.828  0.00  0.00    +0.152 HD
ENDROOT
BRANCH   8  11
ATOM     11  O   UNL     1      34.856 -22.746 -17.604  0.00  0.00    -0.506 OA
ATOM     12  H   UNL     1      34.180 -22.934 -18.225  0.00  0.00    +0.292 HD
ENDBRANCH   8  11
BRANCH   2  13
ATOM     13  C   UNL     1      38.225 -24.587 -13.517  0.00  0.00    +0.017 C 
BRANCH  13  14
ATOM     14  CA  UNL     1      38.671 -25.509 -14.676  0.00  0.00    +0.045 C 
BRANCH  14  15
ATOM     15  N   UNL     1      38.205 -26.900 -14.373  0.00  0.00    +0.389 N 
ATOM     16  H1  UNL     1      37.302 -26.860 -13.899  0.00  0.00    -0.088 HD
ATOM     17  H2  UNL     1      38.886 -27.362 -13.770  0.00  0.00    -0.088 HD
ATOM     18  H3  UNL     1      38.110 -27.424 -15.242  0.00  0.00    -0.088 HD
ENDBRANCH  14  15
BRANCH  14  21
ATOM     19  O   UNL     1      40.607 -26.114 -15.887  0.00  0.00    -0.248 OA
ATOM     20  OXT UNL     1      40.833 -24.734 -14.078  0.00  0.00    -0.248 OA
ATOM     21  C   UNL     1      40.189 -25.446 -14.898  0.00  0.00    +0.345 C 
ENDBRANCH  14  21
ENDBRANCH  13  14
ENDBRANCH   2  13
TORSDOF 5
ENDMDL
MODEL 6
REMARK VINA RESULT:      -7.5      2.977      6.747
REMARK  Name = 6971044
REMARK  5 active torsions:
REMARK  status: ('A' for Active; 'I' for Inactive)
REMARK    1  A    between atoms: C_2  and  C_13
REMARK    2  A    between atoms: C_8  and  O_11
REMARK    3  A    between atoms: C_13  and  CA_14
REMARK    4  A    between atoms: CA_14  and  N_15
REMARK    5  A    between atoms: CA_14  and  C_21
REMARK                            x       y       z     vdW  Elec       q    Type
REMARK                         _______ _______ _______ _____ _____    ______ ____
ROOT
ATOM      1  N   UNL     1      33.071 -21.372 -19.627  0.00  0.00    -0.312 N 
ATOM      2  C   UNL     1      35.215 -21.617 -19.105  0.00  0.00    -0.008 C 
ATOM      3  C   UNL     1      35.113 -20.609 -20.104  0.00  0.00    +0.014 C 
ATOM      4  C   UNL     1      33.757 -20.473 -20.414  0.00  0.00    +0.048 C 
ATOM      5  C   UNL     1      33.943 -22.066 -18.833  0.00  0.00    +0.058 C 
ATOM      6  C   UNL     1      36.046 -19.794 -20.776  0.00  0.00    +0.038 C 
ATOM      7  C   UNL     1      33.288 -19.562 -21.366  0.00  0.00    +0.018 C 
ATOM      8  C   UNL     1      35.591 -18.878 -21.731  0.00  0.00    +0.134 C 
ATOM      9  C   UNL     1      34.232 -18.765 -22.020  0.00  0.00    +0.038 C 
ATOM     10  H   UNL     1      32.095 -21.495 -19.634  0.00  0.00    +0.152 HD
ENDROOT
BRANCH   8  11
ATOM     11  O   UNL     1      36.487 -18.088 -22.385  0.00  0.00    -0.506 OA
ATOM     12  H   UNL     1      37.389 -18.092 -22.130  0.00  0.00    +0.292 HD
ENDBRANCH   8  11
BRANCH   2  13
ATOM     13  C   UNL     1      36.456 -22.101 -18.468  0.00  0.00    +0.017 C 
BRANCH  13  14
ATOM     14  CA  UNL     1      36.566 -21.726 -16.971  0.00  0.00    +0.045 C 
BRANCH  14  15
ATOM     15  N   UNL     1      37.567 -20.620 -16.837  0.00  0.00    +0.389 N 
ATOM     16  H1  UNL     1      37.088 -19.758 -16.579  0.00  0.00    -0.088 HD
ATOM     17  H2  UNL     1      38.049 -20.489 -17.727  0.00  0.00    -0.088 HD
ATOM     18  H3  UNL     1      38.246 -20.861 -16.116  0.00  0.00    -0.088 HD
ENDBRANCH  14  15
BRANCH  14  21
ATOM     19  O   UNL     1      38.123 -22.948 -15.682  0.00  0.00    -0.248 OA
ATOM     20  OXT UNL     1      36.008 -23.782 -15.924  0.00  0.00    -0.248 OA
ATOM     21  C   UNL     1      36.933 -22.943 -16.109  0.00  0.00    +0.345 C 
ENDBRANCH  14  21
ENDBRANCH  13  14
ENDBRANCH   2  13
TORSDOF 5
ENDMDL
MODEL 7
REMARK VINA RESULT:      -7.5      4.965      9.016
REMARK  Name = 6971044
REMARK  5 active torsions:
REMARK  status: ('A' for Active; 'I' for Inactive)
REMARK    1  A    between atoms: C_2  and  C_13
REMARK    2  A    between atoms: C_8  and  O_11
REMARK    3  A    between atoms: C_13  and  CA_14
REMARK    4  A    between atoms: CA_14  and  N_15
REMARK    5  A    between atoms: CA_14  and  C_21
REMARK                            x       y       z     vdW  Elec       q    Type
REMARK                         _______ _______ _______ _____ _____    ______ ____
ROOT
ATOM      1  N   UNL     1      37.569 -21.920 -16.671  0.00  0.00    -0.312 N 
ATOM      2  C   UNL     1      35.927 -23.030 -15.672  0.00  0.00    -0.008 C 
ATOM      3  C   UNL     1      35.472 -22.626 -16.958  0.00  0.00    +0.014 C 
ATOM      4  C   UNL     1      36.521 -21.931 -17.565  0.00  0.00    +0.048 C 
ATOM      5  C   UNL     1      37.219 -22.582 -15.525  0.00  0.00    +0.058 C 
ATOM      6  C   UNL     1      34.266 -22.786 -17.668  0.00  0.00    +0.038 C 
ATOM      7  C   UNL     1      36.423 -21.385 -18.849  0.00  0.00    +0.018 C 
ATOM      8  C   UNL     1      34.152 -22.244 -18.954  0.00  0.00    +0.134 C 
ATOM      9  C   UNL     1      35.216 -21.556 -19.533  0.00  0.00    +0.038 C 
ATOM     10  H   UNL     1      38.443 -21.497 -16.833  0.00  0.00    +0.152 HD
ENDROOT
BRANCH   8  11
ATOM     11  O   UNL     1      32.988 -22.394 -19.645  0.00  0.00    -0.506 OA
ATOM     12  H   UNL     1      32.378 -23.061 -19.398  0.00  0.00    +0.292 HD
ENDBRANCH   8  11
BRANCH   2  13
ATOM     13  C   UNL     1      35.159 -23.795 -14.668  0.00  0.00    +0.017 C 
BRANCH  13  14
ATOM     14  CA  UNL     1      36.045 -24.677 -13.757  0.00  0.00    +0.045 C 
BRANCH  14  15
ATOM     15  N   UNL     1      36.069 -26.062 -14.326  0.00  0.00    +0.389 N 
ATOM     16  H1  UNL     1      36.091 -26.010 -15.345  0.00  0.00    -0.088 HD
ATOM     17  H2  UNL     1      35.233 -26.566 -14.029  0.00  0.00    -0.088 HD
ATOM     18  H3  UNL     1      36.898 -26.553 -13.993  0.00  0.00    -0.088 HD
ENDBRANCH  14  15
BRANCH  14  21
ATOM     19  O   UNL     1      34.569 -23.898 -12.086  0.00  0.00    -0.248 OA
ATOM     20  OXT UNL     1      36.182 -25.411 -11.504  0.00  0.00    -0.248 OA
ATOM     21  C   UNL     1      35.554 -24.661 -12.302  0.00  0.00    +0.345 C 
ENDBRANCH  14  21
ENDBRANCH  13  14
ENDBRANCH   2  13
TORSDOF 5
ENDMDL
MODEL 8
REMARK VINA RESULT:      -7.5      8.079      9.729
REMARK  Name = 6971044
REMARK  5 active torsions:
REMARK  status: ('A' for Active; 'I' for Inactive)
REMARK    1  A    between atoms: C_2  and  C_13
REMARK    2  A    between atoms: C_8  and  O_11
REMARK    3  A    between atoms: C_13  and  CA_14
REMARK    4  A    between atoms: CA_14  and  N_15
REMARK    5  A    between atoms: CA_14  and  C_21
REMARK                            x       y       z     vdW  Elec       q    Type
REMARK                         _______ _______ _______ _____ _____    ______ ____
ROOT
ATOM      1  N   UNL     1      36.020 -22.464 -16.654  0.00  0.00    -0.312 N 
ATOM      2  C   UNL     1      37.027 -23.637 -15.061  0.00  0.00    -0.008 C 
ATOM      3  C   UNL     1      35.621 -23.792 -14.906  0.00  0.00    +0.014 C 
ATOM      4  C   UNL     1      35.012 -23.047 -15.918  0.00  0.00    +0.048 C 
ATOM      5  C   UNL     1      37.240 -22.816 -16.144  0.00  0.00    +0.058 C 
ATOM      6  C   UNL     1      34.805 -24.498 -13.999  0.00  0.00    +0.038 C 
ATOM      7  C   UNL     1      33.623 -22.971 -16.068  0.00  0.00    +0.018 C 
ATOM      8  C   UNL     1      33.414 -24.431 -14.137  0.00  0.00    +0.134 C 
ATOM      9  C   UNL     1      32.834 -23.679 -15.157  0.00  0.00    +0.038 C 
ATOM     10  H   UNL     1      35.882 -21.881 -17.434  0.00  0.00    +0.152 HD
ENDROOT
BRANCH   8  11
ATOM     11  O   UNL     1      32.619 -25.110 -13.264  0.00  0.00    -0.506 OA
ATOM     12  H   UNL     1      32.971 -25.421 -12.453  0.00  0.00    +0.292 HD
ENDBRANCH   8  11
BRANCH   2  13
ATOM     13  C   UNL     1      38.077 -24.244 -14.218  0.00  0.00    +0.017 C 
BRANCH  13  14
ATOM     14  CA  UNL     1      38.667 -25.545 -14.812  0.00  0.00    +0.045 C 
BRANCH  14  15
ATOM     15  N   UNL     1      38.222 -26.693 -13.959  0.00  0.00    +0.389 N 
ATOM     16  H1  UNL     1      38.307 -27.562 -14.487  0.00  0.00    -0.088 HD
ATOM     17  H2  UNL     1      37.249 -26.556 -13.685  0.00  0.00    -0.088 HD
ATOM     18  H3  UNL     1      38.806 -26.743 -13.125  0.00  0.00    -0.088 HD
ENDBRANCH  14  15
BRANCH  14  21
ATOM     19  O   UNL     1      40.683 -26.102 -15.909  0.00  0.00    -0.248 OA
ATOM     20  OXT UNL     1      40.780 -24.790 -14.038  0.00  0.00    -0.248 OA
ATOM     21  C   UNL     1      40.196 -25.472 -14.927  0.00  0.00    +0.345 C 
ENDBRANCH  14  21
ENDBRANCH  13  14
ENDBRANCH   2  13
TORSDOF 5
ENDMDL
MODEL 9
REMARK VINA RESULT:      -7.5      6.973      9.649
REMARK  Name = 6971044
REMARK  5 active torsions:
REMARK  status: ('A' for Active; 'I' for Inactive)
REMARK    1  A    between atoms: C_2  and  C_13
REMARK    2  A    between atoms: C_8  and  O_11
REMARK    3  A    between atoms: C_13  and  CA_14
REMARK    4  A    between atoms: CA_14  and  N_15
REMARK    5  A    between atoms: CA_14  and  C_21
REMARK                            x       y       z     vdW  Elec       q    Type
REMARK                         _______ _______ _______ _____ _____    ______ ____
ROOT
ATOM      1  N   UNL     1      32.959 -23.964 -13.569  0.00  0.00    -0.312 N 
ATOM      2  C   UNL     1      34.913 -24.038 -14.619  0.00  0.00    -0.008 C 
ATOM      3  C   UNL     1      33.929 -23.594 -15.544  0.00  0.00    +0.014 C 
ATOM      4  C   UNL     1      32.711 -23.556 -14.861  0.00  0.00    +0.048 C 
ATOM      5  C   UNL     1      34.287 -24.256 -13.413  0.00  0.00    +0.058 C 
ATOM      6  C   UNL     1      33.955 -23.219 -16.902  0.00  0.00    +0.038 C 
ATOM      7  C   UNL     1      31.515 -23.161 -15.470  0.00  0.00    +0.018 C 
ATOM      8  C   UNL     1      32.766 -22.822 -17.526  0.00  0.00    +0.134 C 
ATOM      9  C   UNL     1      31.566 -22.794 -16.818  0.00  0.00    +0.038 C 
ATOM     10  H   UNL     1      32.280 -24.034 -12.861  0.00  0.00    +0.152 HD
ENDROOT
BRANCH   8  11
ATOM     11  O   UNL     1      32.785 -22.459 -18.838  0.00  0.00    -0.506 OA
ATOM     12  H   UNL     1      33.497 -22.721 -19.387  0.00  0.00    +0.292 HD
ENDBRANCH   8  11
BRANCH   2  13
ATOM     13  C   UNL     1      36.352 -24.231 -14.891  0.00  0.00    +0.017 C 
BRANCH  13  14
ATOM     14  CA  UNL     1      36.978 -25.400 -14.095  0.00  0.00    +0.045 C 
BRANCH  14  15
ATOM     15  N   UNL     1      38.220 -24.898 -13.424  0.00  0.00    +0.389 N 
ATOM     16  H1  UNL     1      38.591 -24.105 -13.947  0.00  0.00    -0.088 HD
ATOM     17  H2  UNL     1      38.916 -25.643 -13.397  0.00  0.00    -0.088 HD
ATOM     18  H3  UNL     1      37.998 -24.606 -12.473  0.00  0.00    -0.088 HD
ENDBRANCH  14  15
BRANCH  14  21
ATOM     19  O   UNL     1      38.356 -27.199 -14.764  0.00  0.00    -0.248 OA
ATOM     20  OXT UNL     1      36.368 -26.880 -15.848  0.00  0.00    -0.248 OA
ATOM     21  C   UNL     1      37.260 -26.612 -14.995  0.00  0.00    +0.345 C 
ENDBRANCH  14  21
ENDBRANCH  13  14
ENDBRANCH   2  13
TORSDOF 5
ENDMDL
