MODEL 1
REMARK VINA RESULT:      -7.3      0.000      0.000
REMARK  Name = 5287673
REMARK  4 active torsions:
REMARK  status: ('A' for Active; 'I' for Inactive)
REMARK    1  A    between atoms: C_4  and  C_16
REMARK    2  A    between atoms: C_7  and  O_12
REMARK    3  A    between atoms: C_8  and  O_14
REMARK    4  A    between atoms: C_16  and  O_17
REMARK                            x       y       z     vdW  Elec       q    Type
REMARK                         _______ _______ _______ _____ _____    ______ ____
ROOT
ATOM      1  O   UNL     1      35.236 -24.623 -14.484  0.00  0.00    -0.451 OA
ATOM      2  N   UNL     1      34.173 -23.901 -12.591  0.00  0.00    -0.220 NA
ATOM      3  N   UNL     1      33.304 -23.441 -14.769  0.00  0.00    -0.261 N 
ATOM      4  C   UNL     1      37.366 -24.119 -13.408  0.00  0.00    +0.101 C 
ATOM      5  C   UNL     1      36.108 -24.991 -13.432  0.00  0.00    +0.198 C 
ATOM      6  C   UNL     1      35.350 -24.665 -12.153  0.00  0.00    +0.177 C 
ATOM      7  C   UNL     1      37.666 -24.010 -11.915  0.00  0.00    +0.145 C 
ATOM      8  C   UNL     1      36.280 -23.789 -11.312  0.00  0.00    +0.163 C 
ATOM      9  C   UNL     1      34.200 -23.965 -13.886  0.00  0.00    +0.283 C 
ATOM     10  C   UNL     1      33.485 -23.607 -16.199  0.00  0.00    +0.117 C 
ATOM     11  C   UNL     1      32.025 -22.928 -14.317  0.00  0.00    +0.117 C 
ENDROOT
BRANCH   7  12
ATOM     12  O   UNL     1      38.505 -22.904 -11.626  0.00  0.00    -0.382 OA
ATOM     13  H   UNL     1      39.194 -23.176 -11.002  0.00  0.00    +0.210 HD
ENDBRANCH   7  12
BRANCH   8  14
ATOM     14  O   UNL     1      36.250 -24.204  -9.954  0.00  0.00    -0.380 OA
ATOM     15  H   UNL     1      35.915 -23.479  -9.403  0.00  0.00    +0.211 HD
ENDBRANCH   8  14
BRANCH   4  16
ATOM     16  C   UNL     1      38.511 -24.721 -14.212  0.00  0.00    +0.143 C 
BRANCH  16  17
ATOM     17  O   UNL     1      37.968 -25.464 -15.289  0.00  0.00    -0.382 OA
ATOM     18  H   UNL     1      37.031 -25.642 -15.119  0.00  0.00    +0.210 HD
ENDBRANCH  16  17
ENDBRANCH   4  16
TORSDOF 4
ENDMDL
MODEL 2
REMARK VINA RESULT:      -7.0      1.987      3.386
REMARK  Name = 5287673
REMARK  4 active torsions:
REMARK  status: ('A' for Active; 'I' for Inactive)
REMARK    1  A    between atoms: C_4  and  C_16
REMARK    2  A    between atoms: C_7  and  O_12
REMARK    3  A    between atoms: C_8  and  O_14
REMARK    4  A    between atoms: C_16  and  O_17
REMARK                            x       y       z     vdW  Elec       q    Type
REMARK                         _______ _______ _______ _____ _____    ______ ____
ROOT
ATOM      1  O   UNL     1      34.723 -23.380 -14.332  0.00  0.00    -0.451 OA
ATOM      2  N   UNL     1      35.962 -23.309 -16.253  0.00  0.00    -0.220 NA
ATOM      3  N   UNL     1      33.574 -23.386 -16.304  0.00  0.00    -0.261 N 
ATOM      4  C   UNL     1      36.409 -24.857 -13.369  0.00  0.00    +0.101 C 
ATOM      5  C   UNL     1      36.064 -23.458 -13.885  0.00  0.00    +0.198 C 
ATOM      6  C   UNL     1      36.912 -23.251 -15.133  0.00  0.00    +0.177 C 
ATOM      7  C   UNL     1      37.873 -25.008 -13.777  0.00  0.00    +0.145 C 
ATOM      8  C   UNL     1      37.888 -24.428 -15.190  0.00  0.00    +0.163 C 
ATOM      9  C   UNL     1      34.793 -23.354 -15.694  0.00  0.00    +0.283 C 
ATOM     10  C   UNL     1      32.353 -23.435 -15.523  0.00  0.00    +0.117 C 
ATOM     11  C   UNL     1      33.444 -23.119 -17.723  0.00  0.00    +0.117 C 
ENDROOT
BRANCH   7  12
ATOM     12  O   UNL     1      38.273 -26.368 -13.805  0.00  0.00    -0.382 OA
ATOM     13  H   UNL     1      37.861 -26.810 -14.564  0.00  0.00    +0.210 HD
ENDBRANCH   7  12
BRANCH   8  14
ATOM     14  O   UNL     1      39.187 -23.971 -15.533  0.00  0.00    -0.380 OA
ATOM     15  H   UNL     1      39.818 -24.705 -15.458  0.00  0.00    +0.211 HD
ENDBRANCH   8  14
BRANCH   4  16
ATOM     16  C   UNL     1      36.181 -25.001 -11.870  0.00  0.00    +0.143 C 
BRANCH  16  17
ATOM     17  O   UNL     1      34.789 -24.953 -11.616  0.00  0.00    -0.382 OA
ATOM     18  H   UNL     1      34.573 -25.551 -10.885  0.00  0.00    +0.210 HD
ENDBRANCH  16  17
ENDBRANCH   4  16
TORSDOF 4
ENDMDL
MODEL 3
REMARK VINA RESULT:      -6.8      1.783      3.141
REMARK  Name = 5287673
REMARK  4 active torsions:
REMARK  status: ('A' for Active; 'I' for Inactive)
REMARK    1  A    between atoms: C_4  and  C_16
REMARK    2  A    between atoms: C_7  and  O_12
REMARK    3  A    between atoms: C_8  and  O_14
REMARK    4  A    between atoms: C_16  and  O_17
REMARK                            x       y       z     vdW  Elec       q    Type
REMARK                         _______ _______ _______ _____ _____    ______ ____
ROOT
ATOM      1  O   UNL     1      34.506 -24.400 -13.406  0.00  0.00    -0.451 OA
ATOM      2  N   UNL     1      34.778 -23.115 -15.279  0.00  0.00    -0.220 NA
ATOM      3  N   UNL     1      32.666 -24.081 -14.718  0.00  0.00    -0.261 N 
ATOM      4  C   UNL     1      36.711 -25.359 -13.816  0.00  0.00    +0.101 C 
ATOM      5  C   UNL     1      35.893 -24.121 -13.439  0.00  0.00    +0.198 C 
ATOM      6  C   UNL     1      36.074 -23.136 -14.586  0.00  0.00    +0.177 C 
ATOM      7  C   UNL     1      37.864 -24.762 -14.619  0.00  0.00    +0.145 C 
ATOM      8  C   UNL     1      37.161 -23.721 -15.489  0.00  0.00    +0.163 C 
ATOM      9  C   UNL     1      33.990 -23.821 -14.529  0.00  0.00    +0.283 C 
ATOM     10  C   UNL     1      31.926 -24.897 -13.774  0.00  0.00    +0.117 C 
ATOM     11  C   UNL     1      31.899 -23.356 -15.712  0.00  0.00    +0.117 C 
ENDROOT
BRANCH   7  12
ATOM     12  O   UNL     1      38.493 -25.735 -15.437  0.00  0.00    -0.382 OA
ATOM     13  H   UNL     1      38.056 -25.761 -16.302  0.00  0.00    +0.210 HD
ENDBRANCH   7  12
BRANCH   8  14
ATOM     14  O   UNL     1      38.068 -22.705 -15.888  0.00  0.00    -0.380 OA
ATOM     15  H   UNL     1      37.625 -21.842 -15.845  0.00  0.00    +0.211 HD
ENDBRANCH   8  14
BRANCH   4  16
ATOM     16  C   UNL     1      37.169 -26.151 -12.598  0.00  0.00    +0.143 C 
BRANCH  16  17
ATOM     17  O   UNL     1      36.435 -25.713 -11.469  0.00  0.00    -0.382 OA
ATOM     18  H   UNL     1      36.412 -26.418 -10.805  0.00  0.00    +0.210 HD
ENDBRANCH  16  17
ENDBRANCH   4  16
TORSDOF 4
ENDMDL
MODEL 4
REMARK VINA RESULT:      -6.8     11.094     13.196
REMARK  Name = 5287673
REMARK  4 active torsions:
REMARK  status: ('A' for Active; 'I' for Inactive)
REMARK    1  A    between atoms: C_4  and  C_16
REMARK    2  A    between atoms: C_7  and  O_12
REMARK    3  A    between atoms: C_8  and  O_14
REMARK    4  A    between atoms: C_16  and  O_17
REMARK                            x       y       z     vdW  Elec       q    Type
REMARK                         _______ _______ _______ _____ _____    ______ ____
ROOT
ATOM      1  O   UNL     1      34.667 -15.420 -23.599  0.00  0.00    -0.451 OA
ATOM      2  N   UNL     1      34.080 -16.750 -25.365  0.00  0.00    -0.220 NA
ATOM      3  N   UNL     1      33.242 -14.524 -25.140  0.00  0.00    -0.261 N 
ATOM      4  C   UNL     1      34.559 -17.386 -22.159  0.00  0.00    +0.101 C 
ATOM      5  C   UNL     1      35.268 -16.669 -23.310  0.00  0.00    +0.198 C 
ATOM      6  C   UNL     1      35.026 -17.523 -24.547  0.00  0.00    +0.177 C 
ATOM      7  C   UNL     1      34.682 -18.854 -22.558  0.00  0.00    +0.145 C 
ATOM      8  C   UNL     1      34.382 -18.820 -24.055  0.00  0.00    +0.163 C 
ATOM      9  C   UNL     1      33.977 -15.607 -24.762  0.00  0.00    +0.283 C 
ATOM     10  C   UNL     1      33.239 -13.312 -24.343  0.00  0.00    +0.117 C 
ATOM     11  C   UNL     1      32.647 -14.451 -26.460  0.00  0.00    +0.117 C 
ENDROOT
BRANCH   7  12
ATOM     12  O   UNL     1      33.729 -19.662 -21.889  0.00  0.00    -0.382 OA
ATOM     13  H   UNL     1      34.147 -20.491 -21.610  0.00  0.00    +0.210 HD
ENDBRANCH   7  12
BRANCH   8  14
ATOM     14  O   UNL     1      34.964 -19.936 -24.711  0.00  0.00    -0.380 OA
ATOM     15  H   UNL     1      34.821 -20.734 -24.178  0.00  0.00    +0.211 HD
ENDBRANCH   8  14
BRANCH   4  16
ATOM     16  C   UNL     1      35.180 -17.074 -20.804  0.00  0.00    +0.143 C 
BRANCH  16  17
ATOM     17  O   UNL     1      34.932 -15.714 -20.493  0.00  0.00    -0.382 OA
ATOM     18  H   UNL     1      35.675 -15.359 -19.980  0.00  0.00    +0.210 HD
ENDBRANCH  16  17
ENDBRANCH   4  16
TORSDOF 4
ENDMDL
MODEL 5
REMARK VINA RESULT:      -6.6     16.006     17.666
REMARK  Name = 5287673
REMARK  4 active torsions:
REMARK  status: ('A' for Active; 'I' for Inactive)
REMARK    1  A    between atoms: C_4  and  C_16
REMARK    2  A    between atoms: C_7  and  O_12
REMARK    3  A    between atoms: C_8  and  O_14
REMARK    4  A    between atoms: C_16  and  O_17
REMARK                            x       y       z     vdW  Elec       q    Type
REMARK                         _______ _______ _______ _____ _____    ______ ____
ROOT
ATOM      1  O   UNL     1      32.207 -10.850 -22.452  0.00  0.00    -0.451 OA
ATOM      2  N   UNL     1      33.012  -9.118 -23.709  0.00  0.00    -0.220 NA
ATOM      3  N   UNL     1      33.722 -11.370 -24.079  0.00  0.00    -0.261 N 
ATOM      4  C   UNL     1      32.278  -9.389 -20.500  0.00  0.00    +0.101 C 
ATOM      5  C   UNL     1      31.642  -9.697 -21.858  0.00  0.00    +0.198 C 
ATOM      6  C   UNL     1      32.034  -8.545 -22.774  0.00  0.00    +0.177 C 
ATOM      7  C   UNL     1      32.260  -7.863 -20.465  0.00  0.00    +0.145 C 
ATOM      8  C   UNL     1      32.692  -7.491 -21.882  0.00  0.00    +0.163 C 
ATOM      9  C   UNL     1      33.007 -10.390 -23.457  0.00  0.00    +0.283 C 
ATOM     10  C   UNL     1      33.595 -12.756 -23.669  0.00  0.00    +0.117 C 
ATOM     11  C   UNL     1      34.429 -11.105 -25.316  0.00  0.00    +0.117 C 
ENDROOT
BRANCH   7  12
ATOM     12  O   UNL     1      33.187  -7.349 -19.523  0.00  0.00    -0.382 OA
ATOM     13  H   UNL     1      33.689  -6.624 -19.926  0.00  0.00    +0.210 HD
ENDBRANCH   7  12
BRANCH   8  14
ATOM     14  O   UNL     1      32.224  -6.196 -22.226  0.00  0.00    -0.380 OA
ATOM     15  H   UNL     1      32.064  -6.154 -23.182  0.00  0.00    +0.211 HD
ENDBRANCH   8  14
BRANCH   4  16
ATOM     16  C   UNL     1      31.523 -10.030 -19.342  0.00  0.00    +0.143 C 
BRANCH  16  17
ATOM     17  O   UNL     1      31.547 -11.436 -19.507  0.00  0.00    -0.382 OA
ATOM     18  H   UNL     1      32.377 -11.698 -19.933  0.00  0.00    +0.210 HD
ENDBRANCH  16  17
ENDBRANCH   4  16
TORSDOF 4
ENDMDL
MODEL 6
REMARK VINA RESULT:      -6.6     10.565     12.721
REMARK  Name = 5287673
REMARK  4 active torsions:
REMARK  status: ('A' for Active; 'I' for Inactive)
REMARK    1  A    between atoms: C_4  and  C_16
REMARK    2  A    between atoms: C_7  and  O_12
REMARK    3  A    between atoms: C_8  and  O_14
REMARK    4  A    between atoms: C_16  and  O_17
REMARK                            x       y       z     vdW  Elec       q    Type
REMARK                         _______ _______ _______ _____ _____    ______ ____
ROOT
ATOM      1  O   UNL     1      34.351 -16.095 -21.447  0.00  0.00    -0.451 OA
ATOM      2  N   UNL     1      33.925 -15.063 -23.443  0.00  0.00    -0.220 NA
ATOM      3  N   UNL     1      32.737 -14.481 -21.453  0.00  0.00    -0.261 N 
ATOM      4  C   UNL     1      34.628 -18.194 -22.658  0.00  0.00    +0.101 C 
ATOM      5  C   UNL     1      35.163 -16.787 -22.377  0.00  0.00    +0.198 C 
ATOM      6  C   UNL     1      35.018 -16.016 -23.682  0.00  0.00    +0.177 C 
ATOM      7  C   UNL     1      34.979 -18.392 -24.131  0.00  0.00    +0.145 C 
ATOM      8  C   UNL     1      34.619 -17.041 -24.746  0.00  0.00    +0.163 C 
ATOM      9  C   UNL     1      33.657 -15.176 -22.179  0.00  0.00    +0.283 C 
ATOM     10  C   UNL     1      32.564 -14.734 -20.035  0.00  0.00    +0.117 C 
ATOM     11  C   UNL     1      32.087 -13.307 -22.002  0.00  0.00    +0.117 C 
ENDROOT
BRANCH   7  12
ATOM     12  O   UNL     1      34.200 -19.419 -24.723  0.00  0.00    -0.382 OA
ATOM     13  H   UNL     1      33.445 -19.025 -25.187  0.00  0.00    +0.210 HD
ENDBRANCH   7  12
BRANCH   8  14
ATOM     14  O   UNL     1      35.352 -16.820 -25.940  0.00  0.00    -0.380 OA
ATOM     15  H   UNL     1      36.247 -17.181 -25.841  0.00  0.00    +0.211 HD
ENDBRANCH   8  14
BRANCH   4  16
ATOM     16  C   UNL     1      35.241 -19.246 -21.744  0.00  0.00    +0.143 C 
BRANCH  16  17
ATOM     17  O   UNL     1      35.862 -18.593 -20.651  0.00  0.00    -0.382 OA
ATOM     18  H   UNL     1      36.657 -19.082 -20.391  0.00  0.00    +0.210 HD
ENDBRANCH  16  17
ENDBRANCH   4  16
TORSDOF 4
ENDMDL
MODEL 7
REMARK VINA RESULT:      -6.5     12.734     14.498
REMARK  Name = 5287673
REMARK  4 active torsions:
REMARK  status: ('A' for Active; 'I' for Inactive)
REMARK    1  A    between atoms: C_4  and  C_16
REMARK    2  A    between atoms: C_7  and  O_12
REMARK    3  A    between atoms: C_8  and  O_14
REMARK    4  A    between atoms: C_16  and  O_17
REMARK                            x       y       z     vdW  Elec       q    Type
REMARK                         _______ _______ _______ _____ _____    ______ ____
ROOT
ATOM      1  O   UNL     1      33.636 -13.694 -24.727  0.00  0.00    -0.451 OA
ATOM      2  N   UNL     1      32.923 -12.898 -22.704  0.00  0.00    -0.220 NA
ATOM      3  N   UNL     1      33.826 -11.446 -24.374  0.00  0.00    -0.261 N 
ATOM      4  C   UNL     1      34.524 -15.652 -23.576  0.00  0.00    +0.101 C 
ATOM      5  C   UNL     1      33.287 -14.856 -23.998  0.00  0.00    +0.198 C 
ATOM      6  C   UNL     1      32.660 -14.344 -22.708  0.00  0.00    +0.177 C 
ATOM      7  C   UNL     1      34.107 -16.220 -22.222  0.00  0.00    +0.145 C 
ATOM      8  C   UNL     1      33.406 -15.033 -21.564  0.00  0.00    +0.163 C 
ATOM      9  C   UNL     1      33.437 -12.651 -23.869  0.00  0.00    +0.283 C 
ATOM     10  C   UNL     1      34.386 -11.346 -25.708  0.00  0.00    +0.117 C 
ATOM     11  C   UNL     1      33.467 -10.209 -23.710  0.00  0.00    +0.117 C 
ENDROOT
BRANCH   7  12
ATOM     12  O   UNL     1      35.228 -16.612 -21.448  0.00  0.00    -0.382 OA
ATOM     13  H   UNL     1      34.944 -17.231 -20.758  0.00  0.00    +0.210 HD
ENDBRANCH   7  12
BRANCH   8  14
ATOM     14  O   UNL     1      32.488 -15.475 -20.576  0.00  0.00    -0.380 OA
ATOM     15  H   UNL     1      32.939 -16.076 -19.962  0.00  0.00    +0.211 HD
ENDBRANCH   8  14
BRANCH   4  16
ATOM     16  C   UNL     1      34.904 -16.724 -24.590  0.00  0.00    +0.143 C 
BRANCH  16  17
ATOM     17  O   UNL     1      34.418 -16.338 -25.863  0.00  0.00    -0.382 OA
ATOM     18  H   UNL     1      34.749 -16.952 -26.535  0.00  0.00    +0.210 HD
ENDBRANCH  16  17
ENDBRANCH   4  16
TORSDOF 4
ENDMDL
MODEL 8
REMARK VINA RESULT:      -6.5      3.484      5.504
REMARK  Name = 5287673
REMARK  4 active torsions:
REMARK  status: ('A' for Active; 'I' for Inactive)
REMARK    1  A    between atoms: C_4  and  C_16
REMARK    2  A    between atoms: C_7  and  O_12
REMARK    3  A    between atoms: C_8  and  O_14
REMARK    4  A    between atoms: C_16  and  O_17
REMARK                            x       y       z     vdW  Elec       q    Type
REMARK                         _______ _______ _______ _____ _____    ______ ____
ROOT
ATOM      1  O   UNL     1      34.859 -22.791 -18.073  0.00  0.00    -0.451 OA
ATOM      2  N   UNL     1      32.653 -22.331 -18.465  0.00  0.00    -0.220 NA
ATOM      3  N   UNL     1      34.399 -21.142 -19.582  0.00  0.00    -0.261 N 
ATOM      4  C   UNL     1      34.314 -23.108 -15.717  0.00  0.00    +0.101 C 
ATOM      5  C   UNL     1      34.163 -23.613 -17.154  0.00  0.00    +0.198 C 
ATOM      6  C   UNL     1      32.691 -23.443 -17.505  0.00  0.00    +0.177 C 
ATOM      7  C   UNL     1      32.960 -23.454 -15.101  0.00  0.00    +0.145 C 
ATOM      8  C   UNL     1      31.981 -23.061 -16.205  0.00  0.00    +0.163 C 
ATOM      9  C   UNL     1      33.897 -22.073 -18.722  0.00  0.00    +0.283 C 
ATOM     10  C   UNL     1      35.830 -20.982 -19.753  0.00  0.00    +0.117 C 
ATOM     11  C   UNL     1      33.537 -20.463 -20.530  0.00  0.00    +0.117 C 
ENDROOT
BRANCH   7  12
ATOM     12  O   UNL     1      32.705 -22.695 -13.931  0.00  0.00    -0.382 OA
ATOM     13  H   UNL     1      33.526 -22.597 -13.425  0.00  0.00    +0.210 HD
ENDBRANCH   7  12
BRANCH   8  14
ATOM     14  O   UNL     1      30.765 -23.782 -16.080  0.00  0.00    -0.380 OA
ATOM     15  H   UNL     1      30.037 -23.254 -16.443  0.00  0.00    +0.211 HD
ENDBRANCH   8  14
BRANCH   4  16
ATOM     16  C   UNL     1      35.490 -23.750 -14.992  0.00  0.00    +0.143 C 
BRANCH  16  17
ATOM     17  O   UNL     1      36.526 -23.987 -15.928  0.00  0.00    -0.382 OA
ATOM     18  H   UNL     1      37.298 -24.352 -15.469  0.00  0.00    +0.210 HD
ENDBRANCH  16  17
ENDBRANCH   4  16
TORSDOF 4
ENDMDL
MODEL 9
REMARK VINA RESULT:      -6.4     14.041     16.247
REMARK  Name = 5287673
REMARK  4 active torsions:
REMARK  status: ('A' for Active; 'I' for Inactive)
REMARK    1  A    between atoms: C_4  and  C_16
REMARK    2  A    between atoms: C_7  and  O_12
REMARK    3  A    between atoms: C_8  and  O_14
REMARK    4  A    between atoms: C_16  and  O_17
REMARK                            x       y       z     vdW  Elec       q    Type
REMARK                         _______ _______ _______ _____ _____    ______ ____
ROOT
ATOM      1  O   UNL     1      33.546 -14.905 -23.830  0.00  0.00    -0.451 OA
ATOM      2  N   UNL     1      33.414 -15.639 -25.992  0.00  0.00    -0.220 NA
ATOM      3  N   UNL     1      34.467 -16.943 -24.289  0.00  0.00    -0.261 N 
ATOM      4  C   UNL     1      33.947 -12.655 -24.681  0.00  0.00    +0.101 C 
ATOM      5  C   UNL     1      32.967 -13.821 -24.532  0.00  0.00    +0.198 C 
ATOM      6  C   UNL     1      32.722 -14.344 -25.940  0.00  0.00    +0.177 C 
ATOM      7  C   UNL     1      33.577 -12.084 -26.048  0.00  0.00    +0.145 C 
ATOM      8  C   UNL     1      33.378 -13.342 -26.892  0.00  0.00    +0.163 C 
ATOM      9  C   UNL     1      33.804 -15.856 -24.775  0.00  0.00    +0.283 C 
ATOM     10  C   UNL     1      34.831 -17.026 -22.887  0.00  0.00    +0.117 C 
ATOM     11  C   UNL     1      34.606 -18.148 -25.083  0.00  0.00    +0.117 C 
ENDROOT
BRANCH   7  12
ATOM     12  O   UNL     1      34.623 -11.295 -26.589  0.00  0.00    -0.382 OA
ATOM     13  H   UNL     1      34.337 -10.370 -26.640  0.00  0.00    +0.210 HD
ENDBRANCH   7  12
BRANCH   8  14
ATOM     14  O   UNL     1      32.522 -13.078 -27.993  0.00  0.00    -0.380 OA
ATOM     15  H   UNL     1      31.826 -13.753 -28.030  0.00  0.00    +0.211 HD
ENDBRANCH   8  14
BRANCH   4  16
ATOM     16  C   UNL     1      33.827 -11.641 -23.550  0.00  0.00    +0.143 C 
BRANCH  16  17
ATOM     17  O   UNL     1      34.720 -10.570 -23.804  0.00  0.00    -0.382 OA
ATOM     18  H   UNL     1      35.452 -10.884 -24.355  0.00  0.00    +0.210 HD
ENDBRANCH  16  17
ENDBRANCH   4  16
TORSDOF 4
ENDMDL
