MODEL 1
REMARK VINA RESULT:      -8.8      0.000      0.000
REMARK  Name = 19371515
REMARK  1 active torsions:
REMARK  status: ('A' for Active; 'I' for Inactive)
REMARK    1  A    between atoms: C_16  and  C_24
REMARK                            x       y       z     vdW  Elec       q    Type
REMARK                         _______ _______ _______ _____ _____    ______ ____
ROOT
ATOM      1  N   UNL     1      31.633  -4.588 -24.226  0.00  0.00    +0.386 N 
ATOM      2  N   UNL     1      31.869  -9.451 -21.218  0.00  0.00    -0.268 N 
ATOM      3  N   UNL     1      33.112  -7.887 -20.265  0.00  0.00    -0.227 NA
ATOM      4  C   UNL     1      33.007  -6.881 -23.134  0.00  0.00    -0.046 C 
ATOM      5  C   UNL     1      32.433  -5.826 -22.227  0.00  0.00    -0.001 C 
ATOM      6  C   UNL     1      33.312  -6.393 -24.524  0.00  0.00    -0.001 C 
ATOM      7  C   UNL     1      33.199  -8.149 -22.747  0.00  0.00    +0.024 C 
ATOM      8  C   UNL     1      31.255  -5.120 -22.906  0.00  0.00    -0.073 C 
ATOM      9  C   UNL     1      32.099  -5.666 -25.115  0.00  0.00    -0.073 C 
ATOM     10  C   UNL     1      33.774  -9.139 -23.706  0.00  0.00    -0.002 C 
ATOM     11  C   UNL     1      32.789  -8.450 -21.416  0.00  0.00    +0.135 C 
ATOM     12  C   UNL     1      31.251 -10.241 -22.261  0.00  0.00    +0.102 C 
ATOM     13  C   UNL     1      32.262 -11.140 -22.960  0.00  0.00    +0.048 C 
ATOM     14  C   UNL     1      33.343 -10.483 -23.801  0.00  0.00    -0.020 C 
ATOM     15  C   UNL     1      30.509  -3.875 -24.832  0.00  0.00    -0.101 C 
ATOM     16  C   UNL     1      31.622  -9.548 -19.879  0.00  0.00    +0.115 C 
ATOM     17  C   UNL     1      34.853  -8.726 -24.523  0.00  0.00    -0.000 C 
ATOM     18  C   UNL     1      33.990 -11.343 -24.718  0.00  0.00    -0.004 C 
ATOM     19  C   UNL     1      32.402  -8.571 -19.310  0.00  0.00    +0.118 C 
ATOM     20  C   UNL     1      35.468  -9.593 -25.426  0.00  0.00    -0.000 C 
ATOM     21  C   UNL     1      35.033 -10.904 -25.527  0.00  0.00    -0.000 C 
ATOM     22  H   UNL     1      32.403  -3.932 -24.094  0.00  0.00    -0.080 HD
ENDROOT
BRANCH  16  24
ATOM     23  O   UNL     1      31.021 -11.195 -18.261  0.00  0.00    -0.282 OA
ATOM     24  C   UNL     1      30.743 -10.459 -19.223  0.00  0.00    +0.251 C 
ENDBRANCH  16  24
TORSDOF 1
ENDMDL
MODEL 2
REMARK VINA RESULT:      -7.4      4.684      7.233
REMARK  Name = 19371515
REMARK  1 active torsions:
REMARK  status: ('A' for Active; 'I' for Inactive)
REMARK    1  A    between atoms: C_16  and  C_24
REMARK                            x       y       z     vdW  Elec       q    Type
REMARK                         _______ _______ _______ _____ _____    ______ ____
ROOT
ATOM      1  N   UNL     1      35.104 -10.319 -26.204  0.00  0.00    +0.386 N 
ATOM      2  N   UNL     1      34.025 -15.665 -24.472  0.00  0.00    -0.268 N 
ATOM      3  N   UNL     1      32.602 -15.060 -26.056  0.00  0.00    -0.227 NA
ATOM      4  C   UNL     1      33.459 -12.349 -24.975  0.00  0.00    -0.046 C 
ATOM      5  C   UNL     1      33.796 -12.418 -26.439  0.00  0.00    -0.001 C 
ATOM      6  C   UNL     1      33.531 -10.963 -24.393  0.00  0.00    -0.001 C 
ATOM      7  C   UNL     1      33.155 -13.431 -24.245  0.00  0.00    +0.024 C 
ATOM      8  C   UNL     1      35.121 -11.699 -26.719  0.00  0.00    -0.073 C 
ATOM      9  C   UNL     1      34.866 -10.301 -24.751  0.00  0.00    -0.073 C 
ATOM     10  C   UNL     1      32.831 -13.282 -22.795  0.00  0.00    -0.002 C 
ATOM     11  C   UNL     1      33.203 -14.671 -24.945  0.00  0.00    +0.135 C 
ATOM     12  C   UNL     1      34.878 -15.565 -23.308  0.00  0.00    +0.102 C 
ATOM     13  C   UNL     1      34.069 -15.454 -22.023  0.00  0.00    +0.048 C 
ATOM     14  C   UNL     1      33.252 -14.193 -21.798  0.00  0.00    -0.020 C 
ATOM     15  C   UNL     1      36.358  -9.638 -26.526  0.00  0.00    -0.101 C 
ATOM     16  C   UNL     1      33.917 -16.743 -25.302  0.00  0.00    +0.115 C 
ATOM     17  C   UNL     1      32.006 -12.201 -22.404  0.00  0.00    -0.000 C 
ATOM     18  C   UNL     1      32.850 -13.974 -20.461  0.00  0.00    -0.004 C 
ATOM     19  C   UNL     1      33.031 -16.346 -26.274  0.00  0.00    +0.118 C 
ATOM     20  C   UNL     1      31.632 -12.002 -21.076  0.00  0.00    -0.000 C 
ATOM     21  C   UNL     1      32.058 -12.889 -20.100  0.00  0.00    -0.000 C 
ATOM     22  H   UNL     1      34.336  -9.822 -26.656  0.00  0.00    -0.080 HD
ENDROOT
BRANCH  16  24
ATOM     23  O   UNL     1      34.399 -18.856 -24.304  0.00  0.00    -0.282 OA
ATOM     24  C   UNL     1      34.582 -17.999 -25.185  0.00  0.00    +0.251 C 
ENDBRANCH  16  24
TORSDOF 1
ENDMDL
MODEL 3
REMARK VINA RESULT:      -7.4      3.507      6.773
REMARK  Name = 19371515
REMARK  1 active torsions:
REMARK  status: ('A' for Active; 'I' for Inactive)
REMARK    1  A    between atoms: C_16  and  C_24
REMARK                            x       y       z     vdW  Elec       q    Type
REMARK                         _______ _______ _______ _____ _____    ______ ____
ROOT
ATOM      1  N   UNL     1      34.211 -16.288 -21.158  0.00  0.00    +0.386 N 
ATOM      2  N   UNL     1      32.865 -10.952 -22.730  0.00  0.00    -0.268 N 
ATOM      3  N   UNL     1      31.060 -12.042 -22.057  0.00  0.00    -0.227 NA
ATOM      4  C   UNL     1      32.880 -14.352 -22.837  0.00  0.00    -0.046 C 
ATOM      5  C   UNL     1      32.509 -14.493 -21.386  0.00  0.00    -0.001 C 
ATOM      6  C   UNL     1      33.504 -15.584 -23.433  0.00  0.00    -0.001 C 
ATOM      7  C   UNL     1      32.701 -13.218 -23.529  0.00  0.00    +0.024 C 
ATOM      8  C   UNL     1      33.694 -15.035 -20.580  0.00  0.00    -0.073 C 
ATOM      9  C   UNL     1      34.652 -16.084 -22.548  0.00  0.00    -0.073 C 
ATOM     10  C   UNL     1      33.094 -13.156 -24.968  0.00  0.00    -0.002 C 
ATOM     11  C   UNL     1      32.160 -12.130 -22.785  0.00  0.00    +0.135 C 
ATOM     12  C   UNL     1      34.144 -10.710 -23.360  0.00  0.00    +0.102 C 
ATOM     13  C   UNL     1      34.035 -10.716 -24.879  0.00  0.00    +0.048 C 
ATOM     14  C   UNL     1      33.701 -12.028 -25.568  0.00  0.00    -0.020 C 
ATOM     15  C   UNL     1      35.307 -16.812 -20.344  0.00  0.00    -0.101 C 
ATOM     16  C   UNL     1      32.166 -10.069 -21.959  0.00  0.00    +0.115 C 
ATOM     17  C   UNL     1      32.788 -14.265 -25.791  0.00  0.00    -0.000 C 
ATOM     18  C   UNL     1      33.993 -12.066 -26.951  0.00  0.00    -0.004 C 
ATOM     19  C   UNL     1      31.053 -10.765 -21.554  0.00  0.00    +0.118 C 
ATOM     20  C   UNL     1      33.095 -14.281 -27.151  0.00  0.00    -0.000 C 
ATOM     21  C   UNL     1      33.702 -13.180 -27.732  0.00  0.00    -0.000 C 
ATOM     22  H   UNL     1      33.452 -16.969 -21.163  0.00  0.00    -0.080 HD
ENDROOT
BRANCH  16  24
ATOM     23  O   UNL     1      32.700  -8.251 -20.508  0.00  0.00    -0.282 OA
ATOM     24  C   UNL     1      32.520  -8.724 -21.642  0.00  0.00    +0.251 C 
ENDBRANCH  16  24
TORSDOF 1
ENDMDL
MODEL 4
REMARK VINA RESULT:      -7.1      2.652      5.735
REMARK  Name = 19371515
REMARK  1 active torsions:
REMARK  status: ('A' for Active; 'I' for Inactive)
REMARK    1  A    between atoms: C_16  and  C_24
REMARK                            x       y       z     vdW  Elec       q    Type
REMARK                         _______ _______ _______ _____ _____    ______ ____
ROOT
ATOM      1  N   UNL     1      33.249 -14.593 -21.372  0.00  0.00    +0.386 N 
ATOM      2  N   UNL     1      33.168  -9.074 -22.884  0.00  0.00    -0.268 N 
ATOM      3  N   UNL     1      31.135  -9.942 -23.004  0.00  0.00    -0.227 NA
ATOM      4  C   UNL     1      32.853 -12.440 -23.256  0.00  0.00    -0.046 C 
ATOM      5  C   UNL     1      31.957 -12.584 -22.055  0.00  0.00    -0.001 C 
ATOM      6  C   UNL     1      33.516 -13.722 -23.683  0.00  0.00    -0.001 C 
ATOM      7  C   UNL     1      33.066 -11.269 -23.870  0.00  0.00    +0.024 C 
ATOM      8  C   UNL     1      32.694 -13.306 -20.921  0.00  0.00    -0.073 C 
ATOM      9  C   UNL     1      34.193 -14.399 -22.486  0.00  0.00    -0.073 C 
ATOM     10  C   UNL     1      33.969 -11.206 -25.058  0.00  0.00    -0.002 C 
ATOM     11  C   UNL     1      32.410 -10.147 -23.287  0.00  0.00    +0.135 C 
ATOM     12  C   UNL     1      34.607  -8.979 -22.985  0.00  0.00    +0.102 C 
ATOM     13  C   UNL     1      35.068  -8.915 -24.435  0.00  0.00    +0.048 C 
ATOM     14  C   UNL     1      34.874 -10.146 -25.302  0.00  0.00    -0.020 C 
ATOM     15  C   UNL     1      33.903 -15.285 -20.262  0.00  0.00    -0.101 C 
ATOM     16  C   UNL     1      32.333  -8.135 -22.349  0.00  0.00    +0.115 C 
ATOM     17  C   UNL     1      33.871 -12.236 -26.024  0.00  0.00    -0.000 C 
ATOM     18  C   UNL     1      35.651 -10.172 -26.483  0.00  0.00    -0.004 C 
ATOM     19  C   UNL     1      31.081  -8.694 -22.435  0.00  0.00    +0.118 C 
ATOM     20  C   UNL     1      34.657 -12.242 -27.176  0.00  0.00    -0.000 C 
ATOM     21  C   UNL     1      35.551 -11.210 -27.405  0.00  0.00    -0.000 C 
ATOM     22  H   UNL     1      32.478 -15.169 -21.709  0.00  0.00    -0.080 HD
ENDROOT
BRANCH  16  24
ATOM     23  O   UNL     1      32.073  -6.223 -20.946  0.00  0.00    -0.282 OA
ATOM     24  C   UNL     1      32.688  -6.861 -21.817  0.00  0.00    +0.251 C 
ENDBRANCH  16  24
TORSDOF 1
ENDMDL
MODEL 5
REMARK VINA RESULT:      -6.8     14.021     16.987
REMARK  Name = 19371515
REMARK  1 active torsions:
REMARK  status: ('A' for Active; 'I' for Inactive)
REMARK    1  A    between atoms: C_16  and  C_24
REMARK                            x       y       z     vdW  Elec       q    Type
REMARK                         _______ _______ _______ _____ _____    ______ ____
ROOT
ATOM      1  N   UNL     1      30.930 -23.111 -14.572  0.00  0.00    +0.386 N 
ATOM      2  N   UNL     1      35.446 -22.069 -17.930  0.00  0.00    -0.268 N 
ATOM      3  N   UNL     1      34.086 -23.530 -18.888  0.00  0.00    -0.227 NA
ATOM      4  C   UNL     1      33.345 -23.877 -15.958  0.00  0.00    -0.046 C 
ATOM      5  C   UNL     1      32.118 -23.464 -16.725  0.00  0.00    -0.001 C 
ATOM      6  C   UNL     1      33.058 -24.392 -14.574  0.00  0.00    -0.001 C 
ATOM      7  C   UNL     1      34.586 -23.765 -16.452  0.00  0.00    +0.024 C 
ATOM      8  C   UNL     1      31.252 -22.520 -15.883  0.00  0.00    -0.073 C 
ATOM      9  C   UNL     1      32.156 -23.412 -13.814  0.00  0.00    -0.073 C 
ATOM     10  C   UNL     1      35.755 -24.197 -15.629  0.00  0.00    -0.002 C 
ATOM     11  C   UNL     1      34.674 -23.192 -17.753  0.00  0.00    +0.135 C 
ATOM     12  C   UNL     1      36.186 -21.388 -16.890  0.00  0.00    +0.102 C 
ATOM     13  C   UNL     1      37.331 -22.242 -16.361  0.00  0.00    +0.048 C 
ATOM     14  C   UNL     1      36.986 -23.502 -15.587  0.00  0.00    -0.020 C 
ATOM     15  C   UNL     1      30.063 -22.215 -13.807  0.00  0.00    -0.101 C 
ATOM     16  C   UNL     1      35.369 -21.697 -19.241  0.00  0.00    +0.115 C 
ATOM     17  C   UNL     1      35.644 -25.403 -14.896  0.00  0.00    -0.000 C 
ATOM     18  C   UNL     1      38.039 -24.028 -14.804  0.00  0.00    -0.004 C 
ATOM     19  C   UNL     1      34.523 -22.615 -19.814  0.00  0.00    +0.118 C 
ATOM     20  C   UNL     1      36.696 -25.895 -14.123  0.00  0.00    -0.000 C 
ATOM     21  C   UNL     1      37.895 -25.204 -14.074  0.00  0.00    -0.000 C 
ATOM     22  H   UNL     1      30.435 -23.987 -14.734  0.00  0.00    -0.080 HD
ENDROOT
BRANCH  16  24
ATOM     23  O   UNL     1      35.475 -19.600 -20.374  0.00  0.00    -0.282 OA
ATOM     24  C   UNL     1      36.020 -20.596 -19.870  0.00  0.00    +0.251 C 
ENDBRANCH  16  24
TORSDOF 1
ENDMDL
MODEL 6
REMARK VINA RESULT:      -6.1      3.082      6.169
REMARK  Name = 19371515
REMARK  1 active torsions:
REMARK  status: ('A' for Active; 'I' for Inactive)
REMARK    1  A    between atoms: C_16  and  C_24
REMARK                            x       y       z     vdW  Elec       q    Type
REMARK                         _______ _______ _______ _____ _____    ______ ____
ROOT
ATOM      1  N   UNL     1      33.527 -13.480 -26.214  0.00  0.00    +0.386 N 
ATOM      2  N   UNL     1      32.825  -8.327 -23.825  0.00  0.00    -0.268 N 
ATOM      3  N   UNL     1      34.973  -8.852 -23.922  0.00  0.00    -0.227 NA
ATOM      4  C   UNL     1      33.693 -11.610 -24.020  0.00  0.00    -0.046 C 
ATOM      5  C   UNL     1      34.523 -11.414 -25.259  0.00  0.00    -0.001 C 
ATOM      6  C   UNL     1      33.270 -13.034 -23.784  0.00  0.00    -0.001 C 
ATOM      7  C   UNL     1      33.335 -10.600 -23.215  0.00  0.00    +0.024 C 
ATOM      8  C   UNL     1      33.841 -12.063 -26.469  0.00  0.00    -0.073 C 
ATOM      9  C   UNL     1      32.635 -13.621 -25.050  0.00  0.00    -0.073 C 
ATOM     10  C   UNL     1      32.509 -10.874 -22.001  0.00  0.00    -0.002 C 
ATOM     11  C   UNL     1      33.767  -9.307 -23.630  0.00  0.00    +0.135 C 
ATOM     12  C   UNL     1      31.398  -8.490 -23.658  0.00  0.00    +0.102 C 
ATOM     13  C   UNL     1      31.024  -8.729 -22.202  0.00  0.00    +0.048 C 
ATOM     14  C   UNL     1      31.465 -10.031 -21.555  0.00  0.00    -0.020 C 
ATOM     15  C   UNL     1      32.923 -14.090 -27.398  0.00  0.00    -0.101 C 
ATOM     16  C   UNL     1      33.465  -7.190 -24.229  0.00  0.00    +0.115 C 
ATOM     17  C   UNL     1      32.829 -12.010 -21.220  0.00  0.00    -0.000 C 
ATOM     18  C   UNL     1      30.777 -10.369 -20.366  0.00  0.00    -0.004 C 
ATOM     19  C   UNL     1      34.793  -7.540 -24.281  0.00  0.00    +0.118 C 
ATOM     20  C   UNL     1      32.128 -12.326 -20.057  0.00  0.00    -0.000 C 
ATOM     21  C   UNL     1      31.097 -11.505 -19.631  0.00  0.00    -0.000 C 
ATOM     22  H   UNL     1      34.399 -13.964 -26.004  0.00  0.00    -0.080 HD
ENDROOT
BRANCH  16  24
ATOM     23  O   UNL     1      32.900  -5.343 -25.630  0.00  0.00    -0.282 OA
ATOM     24  C   UNL     1      32.880  -5.926 -24.533  0.00  0.00    +0.251 C 
ENDBRANCH  16  24
TORSDOF 1
ENDMDL
MODEL 7
REMARK VINA RESULT:      -6.0      3.343      6.593
REMARK  Name = 19371515
REMARK  1 active torsions:
REMARK  status: ('A' for Active; 'I' for Inactive)
REMARK    1  A    between atoms: C_16  and  C_24
REMARK                            x       y       z     vdW  Elec       q    Type
REMARK                         _______ _______ _______ _____ _____    ______ ____
ROOT
ATOM      1  N   UNL     1      34.079 -11.559 -24.673  0.00  0.00    +0.386 N 
ATOM      2  N   UNL     1      33.050  -5.992 -25.509  0.00  0.00    -0.268 N 
ATOM      3  N   UNL     1      35.227  -6.368 -25.376  0.00  0.00    -0.227 NA
ATOM      4  C   UNL     1      34.127  -8.781 -23.887  0.00  0.00    -0.046 C 
ATOM      5  C   UNL     1      34.941  -9.262 -25.056  0.00  0.00    -0.001 C 
ATOM      6  C   UNL     1      33.795  -9.856 -22.887  0.00  0.00    -0.001 C 
ATOM      7  C   UNL     1      33.705  -7.515 -23.762  0.00  0.00    +0.024 C 
ATOM      8  C   UNL     1      34.302 -10.507 -25.679  0.00  0.00    -0.073 C 
ATOM      9  C   UNL     1      33.199 -11.079 -23.594  0.00  0.00    -0.073 C 
ATOM     10  C   UNL     1      32.900  -7.114 -22.571  0.00  0.00    -0.002 C 
ATOM     11  C   UNL     1      34.053  -6.648 -24.838  0.00  0.00    +0.135 C 
ATOM     12  C   UNL     1      31.636  -6.111 -25.228  0.00  0.00    +0.102 C 
ATOM     13  C   UNL     1      31.279  -5.522 -23.870  0.00  0.00    +0.048 C 
ATOM     14  C   UNL     1      31.804  -6.221 -22.627  0.00  0.00    -0.020 C 
ATOM     15  C   UNL     1      33.515 -12.755 -25.298  0.00  0.00    -0.101 C 
ATOM     16  C   UNL     1      33.616  -5.238 -26.497  0.00  0.00    +0.115 C 
ATOM     17  C   UNL     1      33.292  -7.608 -21.304  0.00  0.00    -0.000 C 
ATOM     18  C   UNL     1      31.140  -5.880 -21.426  0.00  0.00    -0.004 C 
ATOM     19  C   UNL     1      34.963  -5.487 -26.395  0.00  0.00    +0.118 C 
ATOM     20  C   UNL     1      32.614  -7.263 -20.135  0.00  0.00    -0.000 C 
ATOM     21  C   UNL     1      31.532  -6.399 -20.197  0.00  0.00    -0.000 C 
ATOM     22  H   UNL     1      34.981 -11.799 -24.262  0.00  0.00    -0.080 HD
ENDROOT
BRANCH  16  24
ATOM     23  O   UNL     1      32.784  -4.600 -28.640  0.00  0.00    -0.282 OA
ATOM     24  C   UNL     1      32.950  -4.387 -27.427  0.00  0.00    +0.251 C 
ENDBRANCH  16  24
TORSDOF 1
ENDMDL
