MODEL 1
REMARK VINA RESULT:      -6.1      0.000      0.000
REMARK  Name = 443408
REMARK  6 active torsions:
REMARK  status: ('A' for Active; 'I' for Inactive)
REMARK    1  A    between atoms: N_2  and  C_31
REMARK    2  A    between atoms: C_5  and  O_27
REMARK    3  A    between atoms: C_9  and  C_22
REMARK    4  A    between atoms: C_19  and  O_29
REMARK    5  A    between atoms: C_22  and  O_25
REMARK    6  A    between atoms: C_31  and  C_32
REMARK                            x       y       z     vdW  Elec       q    Type
REMARK                         _______ _______ _______ _____ _____    ______ ____
ROOT
ATOM      1  O   UNL     1      34.787  -7.486 -24.900  0.00  0.00    -0.474 OA
ATOM      2  N   UNL     1      31.830  -8.192 -20.545  0.00  0.00    +0.388 N 
ATOM      3  C   UNL     1      31.809  -7.405 -22.888  0.00  0.00    -0.010 C 
ATOM      4  C   UNL     1      33.346  -7.577 -22.927  0.00  0.00    +0.057 C 
ATOM      5  C   UNL     1      32.936  -5.784 -24.623  0.00  0.00    +0.132 C 
ATOM      6  C   UNL     1      34.029  -6.664 -23.956  0.00  0.00    +0.194 C 
ATOM      7  C   UNL     1      31.298  -8.503 -21.893  0.00  0.00    -0.053 C 
ATOM      8  C   UNL     1      31.509  -5.931 -22.495  0.00  0.00    +0.003 C 
ATOM      9  C   UNL     1      32.231  -4.970 -23.486  0.00  0.00    +0.053 C 
ATOM     10  C   UNL     1      31.167  -7.551 -24.312  0.00  0.00    +0.001 C 
ATOM     11  C   UNL     1      31.896  -6.665 -25.332  0.00  0.00    +0.031 C 
ATOM     12  C   UNL     1      33.992  -7.461 -21.532  0.00  0.00    -0.015 C 
ATOM     13  C   UNL     1      33.612  -8.900 -23.533  0.00  0.00    +0.013 C 
ATOM     14  C   UNL     1      31.673  -9.966 -22.382  0.00  0.00    +0.005 C 
ATOM     15  C   UNL     1      33.288  -8.304 -20.460  0.00  0.00    -0.077 C 
ATOM     16  C   UNL     1      32.911 -10.060 -23.252  0.00  0.00    -0.025 C 
ATOM     17  C   UNL     1      34.487  -8.790 -24.588  0.00  0.00    +0.168 C 
ATOM     18  C   UNL     1      33.284 -11.208 -23.951  0.00  0.00    -0.001 C 
ATOM     19  C   UNL     1      34.863  -9.907 -25.301  0.00  0.00    +0.167 C 
ATOM     20  C   UNL     1      34.276 -11.132 -24.951  0.00  0.00    +0.039 C 
ATOM     21  H   UNL     1      31.601  -7.209 -20.398  0.00  0.00    -0.080 HD
ENDROOT
BRANCH   9  22
ATOM     22  C   UNL     1      31.269  -3.896 -24.001  0.00  0.00    +0.091 C 
ATOM     23  C   UNL     1      32.036  -2.757 -24.670  0.00  0.00    +0.029 C 
ATOM     24  C   UNL     1      30.401  -3.366 -22.862  0.00  0.00    +0.029 C 
BRANCH  22  25
ATOM     25  O   UNL     1      30.401  -4.490 -24.965  0.00  0.00    -0.387 OA
ATOM     26  H   UNL     1      29.479  -4.344 -24.703  0.00  0.00    +0.210 HD
ENDBRANCH  22  25
ENDBRANCH   9  22
BRANCH   5  27
ATOM     27  O   UNL     1      33.549  -4.902 -25.553  0.00  0.00    -0.352 OA
ATOM     28  C   UNL     1      33.182  -5.216 -26.891  0.00  0.00    +0.174 C 
ENDBRANCH   5  27
BRANCH  19  29
ATOM     29  O   UNL     1      35.734  -9.827 -26.337  0.00  0.00    -0.503 OA
ATOM     30  H   UNL     1      36.635 -10.049 -26.211  0.00  0.00    +0.292 HD
ENDBRANCH  19  29
BRANCH   2  31
ATOM     31  C   UNL     1      31.172  -8.937 -19.477  0.00  0.00    -0.077 C 
BRANCH  31  32
ATOM     32  C   UNL     1      31.973 -10.132 -19.074  0.00  0.00    -0.021 C 
ATOM     33  C   UNL     1      31.368 -11.122 -18.131  0.00  0.00    -0.002 C 
ATOM     34  C   UNL     1      31.562 -11.478 -19.575  0.00  0.00    -0.002 C 
ENDBRANCH  31  32
ENDBRANCH   2  31
TORSDOF 6
ENDMDL
MODEL 2
REMARK VINA RESULT:      -4.8     14.844     19.280
REMARK  Name = 443408
REMARK  6 active torsions:
REMARK  status: ('A' for Active; 'I' for Inactive)
REMARK    1  A    between atoms: N_2  and  C_31
REMARK    2  A    between atoms: C_5  and  O_27
REMARK    3  A    between atoms: C_9  and  C_22
REMARK    4  A    between atoms: C_19  and  O_29
REMARK    5  A    between atoms: C_22  and  O_25
REMARK    6  A    between atoms: C_31  and  C_32
REMARK                            x       y       z     vdW  Elec       q    Type
REMARK                         _______ _______ _______ _____ _____    ______ ____
ROOT
ATOM      1  O   UNL     1      33.971 -23.567 -12.777  0.00  0.00    -0.474 OA
ATOM      2  N   UNL     1      36.467 -22.366 -17.309  0.00  0.00    +0.388 N 
ATOM      3  C   UNL     1      35.989 -24.172 -15.690  0.00  0.00    -0.010 C 
ATOM      4  C   UNL     1      35.321 -23.126 -14.767  0.00  0.00    +0.057 C 
ATOM      5  C   UNL     1      36.101 -24.878 -13.161  0.00  0.00    +0.132 C 
ATOM      6  C   UNL     1      35.344 -23.527 -13.284  0.00  0.00    +0.194 C 
ATOM      7  C   UNL     1      35.743 -23.649 -17.148  0.00  0.00    -0.053 C 
ATOM      8  C   UNL     1      37.475 -24.308 -15.252  0.00  0.00    +0.003 C 
ATOM      9  C   UNL     1      37.541 -24.663 -13.737  0.00  0.00    +0.053 C 
ATOM     10  C   UNL     1      35.400 -25.609 -15.469  0.00  0.00    +0.001 C 
ATOM     11  C   UNL     1      35.389 -25.970 -13.977  0.00  0.00    +0.031 C 
ATOM     12  C   UNL     1      35.870 -21.701 -14.988  0.00  0.00    -0.015 C 
ATOM     13  C   UNL     1      33.867 -23.186 -15.034  0.00  0.00    +0.013 C 
ATOM     14  C   UNL     1      34.196 -23.532 -17.481  0.00  0.00    +0.005 C 
ATOM     15  C   UNL     1      35.933 -21.294 -16.466  0.00  0.00    -0.077 C 
ATOM     16  C   UNL     1      33.292 -23.297 -16.288  0.00  0.00    -0.025 C 
ATOM     17  C   UNL     1      33.161 -23.361 -13.867  0.00  0.00    +0.168 C 
ATOM     18  C   UNL     1      31.901 -23.377 -16.339  0.00  0.00    -0.001 C 
ATOM     19  C   UNL     1      31.787 -23.453 -13.892  0.00  0.00    +0.167 C 
ATOM     20  C   UNL     1      31.154 -23.426 -15.143  0.00  0.00    +0.039 C 
ATOM     21  H   UNL     1      37.412 -22.559 -16.978  0.00  0.00    -0.080 HD
ENDROOT
BRANCH   9  22
ATOM     22  C   UNL     1      38.485 -25.844 -13.495  0.00  0.00    +0.091 C 
ATOM     23  C   UNL     1      39.937 -25.435 -13.734  0.00  0.00    +0.029 C 
ATOM     24  C   UNL     1      38.104 -27.023 -14.387  0.00  0.00    +0.029 C 
BRANCH  22  25
ATOM     25  O   UNL     1      38.346 -26.265 -12.140  0.00  0.00    -0.387 OA
ATOM     26  H   UNL     1      38.598 -25.538 -11.548  0.00  0.00    +0.210 HD
ENDBRANCH  22  25
ENDBRANCH   9  22
BRANCH   5  27
ATOM     27  O   UNL     1      36.168 -25.253 -11.793  0.00  0.00    -0.352 OA
ATOM     28  C   UNL     1      36.245 -24.116 -10.942  0.00  0.00    +0.174 C 
ENDBRANCH   5  27
BRANCH  19  29
ATOM     29  O   UNL     1      31.066 -23.612 -12.754  0.00  0.00    -0.503 OA
ATOM     30  H   UNL     1      31.418 -23.332 -11.933  0.00  0.00    +0.292 HD
ENDBRANCH  19  29
BRANCH   2  31
ATOM     31  C   UNL     1      36.592 -21.943 -18.700  0.00  0.00    -0.077 C 
BRANCH  31  32
ATOM     32  C   UNL     1      35.616 -20.861 -19.029  0.00  0.00    -0.021 C 
ATOM     33  C   UNL     1      35.543 -20.357 -20.435  0.00  0.00    -0.002 C 
ATOM     34  C   UNL     1      34.429 -21.192 -19.874  0.00  0.00    -0.002 C 
ENDBRANCH  31  32
ENDBRANCH   2  31
TORSDOF 6
ENDMDL
MODEL 3
REMARK VINA RESULT:      -4.1     15.753     19.008
REMARK  Name = 443408
REMARK  6 active torsions:
REMARK  status: ('A' for Active; 'I' for Inactive)
REMARK    1  A    between atoms: N_2  and  C_31
REMARK    2  A    between atoms: C_5  and  O_27
REMARK    3  A    between atoms: C_9  and  C_22
REMARK    4  A    between atoms: C_19  and  O_29
REMARK    5  A    between atoms: C_22  and  O_25
REMARK    6  A    between atoms: C_31  and  C_32
REMARK                            x       y       z     vdW  Elec       q    Type
REMARK                         _______ _______ _______ _____ _____    ______ ____
ROOT
ATOM      1  O   UNL     1      33.853 -25.315 -12.250  0.00  0.00    -0.474 OA
ATOM      2  N   UNL     1      36.074 -23.180 -16.577  0.00  0.00    +0.388 N 
ATOM      3  C   UNL     1      34.194 -23.003 -14.982  0.00  0.00    -0.010 C 
ATOM      4  C   UNL     1      34.648 -24.337 -14.345  0.00  0.00    +0.057 C 
ATOM      5  C   UNL     1      32.194 -24.290 -13.862  0.00  0.00    +0.132 C 
ATOM      6  C   UNL     1      33.506 -25.097 -13.655  0.00  0.00    +0.194 C 
ATOM      7  C   UNL     1      35.509 -22.328 -15.504  0.00  0.00    -0.053 C 
ATOM      8  C   UNL     1      33.120 -23.334 -16.056  0.00  0.00    +0.003 C 
ATOM      9  C   UNL     1      31.966 -24.153 -15.405  0.00  0.00    +0.053 C 
ATOM     10  C   UNL     1      33.429 -22.095 -13.956  0.00  0.00    +0.001 C 
ATOM     11  C   UNL     1      32.323 -22.888 -13.245  0.00  0.00    +0.031 C 
ATOM     12  C   UNL     1      35.424 -25.233 -15.333  0.00  0.00    -0.015 C 
ATOM     13  C   UNL     1      35.479 -23.990 -13.172  0.00  0.00    +0.013 C 
ATOM     14  C   UNL     1      36.539 -22.052 -14.328  0.00  0.00    +0.005 C 
ATOM     15  C   UNL     1      36.526 -24.488 -16.097  0.00  0.00    -0.077 C 
ATOM     16  C   UNL     1      36.430 -22.984 -13.138  0.00  0.00    -0.025 C 
ATOM     17  C   UNL     1      35.025 -24.630 -12.042  0.00  0.00    +0.168 C 
ATOM     18  C   UNL     1      37.090 -22.780 -11.927  0.00  0.00    -0.001 C 
ATOM     19  C   UNL     1      35.654 -24.437 -10.832  0.00  0.00    +0.167 C 
ATOM     20  C   UNL     1      36.720 -23.525 -10.789  0.00  0.00    +0.039 C 
ATOM     21  H   UNL     1      35.291 -23.353 -17.208  0.00  0.00    -0.080 HD
ENDROOT
BRANCH   9  22
ATOM     22  C   UNL     1      30.603 -23.564 -15.778  0.00  0.00    +0.091 C 
ATOM     23  C   UNL     1      29.590 -24.673 -16.054  0.00  0.00    +0.029 C 
ATOM     24  C   UNL     1      30.733 -22.639 -16.986  0.00  0.00    +0.029 C 
BRANCH  22  25
ATOM     25  O   UNL     1      30.134 -22.779 -14.683  0.00  0.00    -0.387 OA
ATOM     26  H   UNL     1      29.893 -23.363 -13.947  0.00  0.00    +0.210 HD
ENDBRANCH  22  25
ENDBRANCH   9  22
BRANCH   5  27
ATOM     27  O   UNL     1      31.114 -24.992 -13.264  0.00  0.00    -0.352 OA
ATOM     28  C   UNL     1      30.422 -24.182 -12.322  0.00  0.00    +0.174 C 
ENDBRANCH   5  27
BRANCH  19  29
ATOM     29  O   UNL     1      35.234 -25.065  -9.706  0.00  0.00    -0.503 OA
ATOM     30  H   UNL     1      35.755 -25.032  -8.928  0.00  0.00    +0.292 HD
ENDBRANCH  19  29
BRANCH   2  31
ATOM     31  C   UNL     1      37.104 -22.512 -17.365  0.00  0.00    -0.077 C 
BRANCH  31  32
ATOM     32  C   UNL     1      36.522 -21.426 -18.211  0.00  0.00    -0.021 C 
ATOM     33  C   UNL     1      36.745 -21.464 -19.689  0.00  0.00    -0.002 C 
ATOM     34  C   UNL     1      35.385 -21.753 -19.124  0.00  0.00    -0.002 C 
ENDBRANCH  31  32
ENDBRANCH   2  31
TORSDOF 6
ENDMDL
