MODEL 1
REMARK VINA RESULT:      -6.4      0.000      0.000
REMARK  Name = 17753995
REMARK  6 active torsions:
REMARK  status: ('A' for Active; 'I' for Inactive)
REMARK    1  A    between atoms: C_2  and  N_7
REMARK    2  A    between atoms: C_3  and  O_11
REMARK    3  A    between atoms: C_4  and  C_17
REMARK    4  A    between atoms: C_5  and  O_13
REMARK    5  A    between atoms: C_6  and  O_15
REMARK    6  A    between atoms: C_17  and  O_18
REMARK                            x       y       z     vdW  Elec       q    Type
REMARK                         _______ _______ _______ _____ _____    ______ ____
ROOT
ATOM      1  O   UNL     1      38.686 -25.978 -13.064  0.00  0.00    -0.331 OA
ATOM      2  C   UNL     1      38.008 -24.095 -14.467  0.00  0.00    -0.005 C 
ATOM      3  C   UNL     1      36.573 -24.204 -13.928  0.00  0.00    +0.125 C 
ATOM      4  C   UNL     1      38.728 -25.455 -14.400  0.00  0.00    +0.130 C 
ATOM      5  C   UNL     1      36.572 -24.891 -12.560  0.00  0.00    +0.192 C 
ATOM      6  C   UNL     1      37.360 -26.201 -12.583  0.00  0.00    +0.262 C 
ENDROOT
BRANCH   2   7
ATOM      7  N   UNL     1      37.971 -23.581 -15.839  0.00  0.00    +0.385 N 
ATOM      8  H   UNL     1      37.822 -22.571 -15.820  0.00  0.00    -0.089 HD
ATOM      9  H   UNL     1      37.210 -24.028 -16.350  0.00  0.00    -0.089 HD
ATOM     10  H   UNL     1      38.857 -23.784 -16.302  0.00  0.00    -0.089 HD
ENDBRANCH   2   7
BRANCH   3  11
ATOM     11  O   UNL     1      36.041 -22.885 -13.783  0.00  0.00    -0.384 OA
ATOM     12  H   UNL     1      36.446 -22.456 -13.013  0.00  0.00    +0.210 HD
ENDBRANCH   3  11
BRANCH   5  13
ATOM     13  O   UNL     1      35.241 -25.159 -12.134  0.00  0.00    -0.378 OA
ATOM     14  H   UNL     1      35.117 -26.117 -12.046  0.00  0.00    +0.211 HD
ENDBRANCH   5  13
BRANCH   6  15
ATOM     15  O   UNL     1      36.691 -27.233 -13.304  0.00  0.00    -0.358 OA
ATOM     16  H   UNL     1      35.867 -26.884 -13.679  0.00  0.00    +0.213 HD
ENDBRANCH   6  15
BRANCH   4  17
ATOM     17  C   UNL     1      40.205 -25.364 -14.780  0.00  0.00    +0.165 C 
BRANCH  17  18
ATOM     18  O   UNL     1      40.362 -25.860 -16.095  0.00  0.00    -0.380 OA
ATOM     19  H   UNL     1      39.942 -26.732 -16.164  0.00  0.00    +0.211 HD
ENDBRANCH  17  18
ENDBRANCH   4  17
TORSDOF 6
ENDMDL
MODEL 2
REMARK VINA RESULT:      -6.3      2.074      3.261
REMARK  Name = 17753995
REMARK  6 active torsions:
REMARK  status: ('A' for Active; 'I' for Inactive)
REMARK    1  A    between atoms: C_2  and  N_7
REMARK    2  A    between atoms: C_3  and  O_11
REMARK    3  A    between atoms: C_4  and  C_17
REMARK    4  A    between atoms: C_5  and  O_13
REMARK    5  A    between atoms: C_6  and  O_15
REMARK    6  A    between atoms: C_17  and  O_18
REMARK                            x       y       z     vdW  Elec       q    Type
REMARK                         _______ _______ _______ _____ _____    ______ ____
ROOT
ATOM      1  O   UNL     1      38.500 -25.722 -13.252  0.00  0.00    -0.331 OA
ATOM      2  C   UNL     1      36.382 -24.524 -13.477  0.00  0.00    -0.005 C 
ATOM      3  C   UNL     1      36.116 -25.236 -14.813  0.00  0.00    +0.125 C 
ATOM      4  C   UNL     1      37.892 -24.423 -13.196  0.00  0.00    +0.130 C 
ATOM      5  C   UNL     1      36.894 -26.553 -14.876  0.00  0.00    +0.192 C 
ATOM      6  C   UNL     1      38.369 -26.355 -14.525  0.00  0.00    +0.262 C 
ENDROOT
BRANCH   2   7
ATOM      7  N   UNL     1      35.756 -23.199 -13.503  0.00  0.00    +0.385 N 
ATOM      8  H   UNL     1      35.815 -22.777 -12.575  0.00  0.00    -0.089 HD
ATOM      9  H   UNL     1      34.777 -23.291 -13.773  0.00  0.00    -0.089 HD
ATOM     10  H   UNL     1      36.241 -22.607 -14.177  0.00  0.00    -0.089 HD
ENDBRANCH   2   7
BRANCH   3  11
ATOM     11  O   UNL     1      34.718 -25.521 -14.906  0.00  0.00    -0.384 OA
ATOM     12  H   UNL     1      34.245 -24.727 -15.198  0.00  0.00    +0.210 HD
ENDBRANCH   3  11
BRANCH   5  13
ATOM     13  O   UNL     1      36.800 -27.129 -16.173  0.00  0.00    -0.378 OA
ATOM     14  H   UNL     1      36.471 -26.465 -16.799  0.00  0.00    +0.211 HD
ENDBRANCH   5  13
BRANCH   6  15
ATOM     15  O   UNL     1      39.091 -25.670 -15.546  0.00  0.00    -0.358 OA
ATOM     16  H   UNL     1      38.551 -24.941 -15.891  0.00  0.00    +0.213 HD
ENDBRANCH   6  15
BRANCH   4  17
ATOM     17  C   UNL     1      38.201 -23.863 -11.809  0.00  0.00    +0.165 C 
BRANCH  17  18
ATOM     18  O   UNL     1      38.222 -22.450 -11.889  0.00  0.00    -0.380 OA
ATOM     19  H   UNL     1      37.537 -22.152 -12.508  0.00  0.00    +0.211 HD
ENDBRANCH  17  18
ENDBRANCH   4  17
TORSDOF 6
ENDMDL
MODEL 3
REMARK VINA RESULT:      -6.2      2.333      3.051
REMARK  Name = 17753995
REMARK  6 active torsions:
REMARK  status: ('A' for Active; 'I' for Inactive)
REMARK    1  A    between atoms: C_2  and  N_7
REMARK    2  A    between atoms: C_3  and  O_11
REMARK    3  A    between atoms: C_4  and  C_17
REMARK    4  A    between atoms: C_5  and  O_13
REMARK    5  A    between atoms: C_6  and  O_15
REMARK    6  A    between atoms: C_17  and  O_18
REMARK                            x       y       z     vdW  Elec       q    Type
REMARK                         _______ _______ _______ _____ _____    ______ ____
ROOT
ATOM      1  O   UNL     1      37.557 -22.656 -13.305  0.00  0.00    -0.331 OA
ATOM      2  C   UNL     1      35.896 -24.399 -13.727  0.00  0.00    -0.005 C 
ATOM      3  C   UNL     1      35.866 -24.741 -12.229  0.00  0.00    +0.125 C 
ATOM      4  C   UNL     1      37.253 -23.792 -14.128  0.00  0.00    +0.130 C 
ATOM      5  C   UNL     1      36.328 -23.538 -11.402  0.00  0.00    +0.192 C 
ATOM      6  C   UNL     1      37.653 -22.973 -11.916  0.00  0.00    +0.262 C 
ENDROOT
BRANCH   2   7
ATOM      7  N   UNL     1      35.604 -25.607 -14.504  0.00  0.00    +0.385 N 
ATOM      8  H   UNL     1      36.100 -25.567 -15.395  0.00  0.00    -0.089 HD
ATOM      9  H   UNL     1      34.600 -25.666 -14.676  0.00  0.00    -0.089 HD
ATOM     10  H   UNL     1      35.908 -26.429 -13.982  0.00  0.00    -0.089 HD
ENDBRANCH   2   7
BRANCH   3  11
ATOM     11  O   UNL     1      34.523 -25.064 -11.863  0.00  0.00    -0.384 OA
ATOM     12  H   UNL     1      34.461 -25.147 -10.899  0.00  0.00    +0.210 HD
ENDBRANCH   3  11
BRANCH   5  13
ATOM     13  O   UNL     1      36.477 -23.897 -10.034  0.00  0.00    -0.378 OA
ATOM     14  H   UNL     1      37.322 -24.357  -9.911  0.00  0.00    +0.211 HD
ENDBRANCH   5  13
BRANCH   6  15
ATOM     15  O   UNL     1      38.761 -23.824 -11.631  0.00  0.00    -0.358 OA
ATOM     16  H   UNL     1      38.936 -23.819 -10.676  0.00  0.00    +0.213 HD
ENDBRANCH   6  15
BRANCH   4  17
ATOM     17  C   UNL     1      37.276 -23.294 -15.572  0.00  0.00    +0.165 C 
BRANCH  17  18
ATOM     18  O   UNL     1      38.610 -23.340 -16.042  0.00  0.00    -0.380 OA
ATOM     19  H   UNL     1      38.981 -24.221 -15.876  0.00  0.00    +0.211 HD
ENDBRANCH  17  18
ENDBRANCH   4  17
TORSDOF 6
ENDMDL
MODEL 4
REMARK VINA RESULT:      -6.2      2.092      3.871
REMARK  Name = 17753995
REMARK  6 active torsions:
REMARK  status: ('A' for Active; 'I' for Inactive)
REMARK    1  A    between atoms: C_2  and  N_7
REMARK    2  A    between atoms: C_3  and  O_11
REMARK    3  A    between atoms: C_4  and  C_17
REMARK    4  A    between atoms: C_5  and  O_13
REMARK    5  A    between atoms: C_6  and  O_15
REMARK    6  A    between atoms: C_17  and  O_18
REMARK                            x       y       z     vdW  Elec       q    Type
REMARK                         _______ _______ _______ _____ _____    ______ ____
ROOT
ATOM      1  O   UNL     1      37.767 -25.395 -11.936  0.00  0.00    -0.331 OA
ATOM      2  C   UNL     1      35.886 -24.627 -13.295  0.00  0.00    -0.005 C 
ATOM      3  C   UNL     1      36.654 -24.994 -14.575  0.00  0.00    +0.125 C 
ATOM      4  C   UNL     1      36.854 -24.307 -12.142  0.00  0.00    +0.130 C 
ATOM      5  C   UNL     1      37.708 -26.063 -14.273  0.00  0.00    +0.192 C 
ATOM      6  C   UNL     1      38.579 -25.676 -13.077  0.00  0.00    +0.262 C 
ENDROOT
BRANCH   2   7
ATOM      7  N   UNL     1      34.996 -23.497 -13.573  0.00  0.00    +0.385 N 
ATOM      8  H   UNL     1      34.299 -23.774 -14.265  0.00  0.00    -0.089 HD
ATOM      9  H   UNL     1      35.541 -22.715 -13.933  0.00  0.00    -0.089 HD
ATOM     10  H   UNL     1      34.526 -23.215 -12.712  0.00  0.00    -0.089 HD
ENDBRANCH   2   7
BRANCH   3  11
ATOM     11  O   UNL     1      35.727 -25.516 -15.528  0.00  0.00    -0.384 OA
ATOM     12  H   UNL     1      35.130 -24.810 -15.820  0.00  0.00    +0.210 HD
ENDBRANCH   3  11
BRANCH   5  13
ATOM     13  O   UNL     1      38.544 -26.277 -15.404  0.00  0.00    -0.378 OA
ATOM     14  H   UNL     1      38.022 -26.175 -16.215  0.00  0.00    +0.211 HD
ENDBRANCH   5  13
BRANCH   6  15
ATOM     15  O   UNL     1      39.481 -24.612 -13.373  0.00  0.00    -0.358 OA
ATOM     16  H   UNL     1      40.390 -24.896 -13.185  0.00  0.00    +0.213 HD
ENDBRANCH   6  15
BRANCH   4  17
ATOM     17  C   UNL     1      36.138 -24.088 -10.810  0.00  0.00    +0.165 C 
BRANCH  17  18
ATOM     18  O   UNL     1      35.198 -25.130 -10.629  0.00  0.00    -0.380 OA
ATOM     19  H   UNL     1      34.757 -25.317 -11.472  0.00  0.00    +0.211 HD
ENDBRANCH  17  18
ENDBRANCH   4  17
TORSDOF 6
ENDMDL
MODEL 5
REMARK VINA RESULT:      -6.0      1.824      1.910
REMARK  Name = 17753995
REMARK  6 active torsions:
REMARK  status: ('A' for Active; 'I' for Inactive)
REMARK    1  A    between atoms: C_2  and  N_7
REMARK    2  A    between atoms: C_3  and  O_11
REMARK    3  A    between atoms: C_4  and  C_17
REMARK    4  A    between atoms: C_5  and  O_13
REMARK    5  A    between atoms: C_6  and  O_15
REMARK    6  A    between atoms: C_17  and  O_18
REMARK                            x       y       z     vdW  Elec       q    Type
REMARK                         _______ _______ _______ _____ _____    ______ ____
ROOT
ATOM      1  O   UNL     1      39.167 -24.293 -12.949  0.00  0.00    -0.331 OA
ATOM      2  C   UNL     1      37.808 -25.298 -14.714  0.00  0.00    -0.005 C 
ATOM      3  C   UNL     1      36.532 -24.767 -14.041  0.00  0.00    +0.125 C 
ATOM      4  C   UNL     1      38.932 -25.503 -13.682  0.00  0.00    +0.130 C 
ATOM      5  C   UNL     1      36.861 -23.556 -13.164  0.00  0.00    +0.192 C 
ATOM      6  C   UNL     1      38.026 -23.843 -12.217  0.00  0.00    +0.262 C 
ENDROOT
BRANCH   2   7
ATOM      7  N   UNL     1      37.500 -26.544 -15.420  0.00  0.00    +0.385 N 
ATOM      8  H   UNL     1      37.608 -26.402 -16.425  0.00  0.00    -0.089 HD
ATOM      9  H   UNL     1      36.539 -26.821 -15.217  0.00  0.00    -0.089 HD
ATOM     10  H   UNL     1      38.137 -27.278 -15.110  0.00  0.00    -0.089 HD
ENDBRANCH   2   7
BRANCH   3  11
ATOM     11  O   UNL     1      35.616 -24.363 -15.061  0.00  0.00    -0.384 OA
ATOM     12  H   UNL     1      35.550 -23.395 -15.072  0.00  0.00    +0.210 HD
ENDBRANCH   3  11
BRANCH   5  13
ATOM     13  O   UNL     1      35.726 -23.169 -12.398  0.00  0.00    -0.378 OA
ATOM     14  H   UNL     1      35.733 -22.207 -12.273  0.00  0.00    +0.211 HD
ENDBRANCH   5  13
BRANCH   6  15
ATOM     15  O   UNL     1      37.672 -24.738 -11.164  0.00  0.00    -0.358 OA
ATOM     16  H   UNL     1      37.340 -25.567 -11.543  0.00  0.00    +0.213 HD
ENDBRANCH   6  15
BRANCH   4  17
ATOM     17  C   UNL     1      40.266 -25.882 -14.324  0.00  0.00    +0.165 C 
BRANCH  17  18
ATOM     18  O   UNL     1      40.169 -25.666 -15.719  0.00  0.00    -0.380 OA
ATOM     19  H   UNL     1      40.492 -24.777 -15.932  0.00  0.00    +0.211 HD
ENDBRANCH  17  18
ENDBRANCH   4  17
TORSDOF 6
ENDMDL
MODEL 6
REMARK VINA RESULT:      -5.9      1.987      3.135
REMARK  Name = 17753995
REMARK  6 active torsions:
REMARK  status: ('A' for Active; 'I' for Inactive)
REMARK    1  A    between atoms: C_2  and  N_7
REMARK    2  A    between atoms: C_3  and  O_11
REMARK    3  A    between atoms: C_4  and  C_17
REMARK    4  A    between atoms: C_5  and  O_13
REMARK    5  A    between atoms: C_6  and  O_15
REMARK    6  A    between atoms: C_17  and  O_18
REMARK                            x       y       z     vdW  Elec       q    Type
REMARK                         _______ _______ _______ _____ _____    ______ ____
ROOT
ATOM      1  O   UNL     1      36.334 -22.877 -13.562  0.00  0.00    -0.331 OA
ATOM      2  C   UNL     1      37.275 -24.968 -14.409  0.00  0.00    -0.005 C 
ATOM      3  C   UNL     1      37.098 -25.614 -13.026  0.00  0.00    +0.125 C 
ATOM      4  C   UNL     1      37.435 -23.441 -14.290  0.00  0.00    +0.130 C 
ATOM      5  C   UNL     1      36.002 -24.889 -12.239  0.00  0.00    +0.192 C 
ATOM      6  C   UNL     1      36.220 -23.375 -12.229  0.00  0.00    +0.262 C 
ENDROOT
BRANCH   2   7
ATOM      7  N   UNL     1      38.428 -25.572 -15.081  0.00  0.00    +0.385 N 
ATOM      8  H   UNL     1      38.338 -26.589 -15.065  0.00  0.00    -0.089 HD
ATOM      9  H   UNL     1      39.284 -25.299 -14.598  0.00  0.00    -0.089 HD
ATOM     10  H   UNL     1      38.466 -25.250 -16.048  0.00  0.00    -0.089 HD
ENDBRANCH   2   7
BRANCH   3  11
ATOM     11  O   UNL     1      36.710 -26.977 -13.208  0.00  0.00    -0.384 OA
ATOM     12  H   UNL     1      36.498 -27.370 -12.347  0.00  0.00    +0.210 HD
ENDBRANCH   3  11
BRANCH   5  13
ATOM     13  O   UNL     1      35.954 -25.359 -10.897  0.00  0.00    -0.378 OA
ATOM     14  H   UNL     1      35.155 -25.019 -10.465  0.00  0.00    +0.211 HD
ENDBRANCH   5  13
BRANCH   6  15
ATOM     15  O   UNL     1      37.320 -22.983 -11.410  0.00  0.00    -0.358 OA
ATOM     16  H   UNL     1      37.002 -22.780 -10.516  0.00  0.00    +0.213 HD
ENDBRANCH   6  15
BRANCH   4  17
ATOM     17  C   UNL     1      37.459 -22.739 -15.646  0.00  0.00    +0.165 C 
BRANCH  17  18
ATOM     18  O   UNL     1      36.527 -23.376 -16.498  0.00  0.00    -0.380 OA
ATOM     19  H   UNL     1      36.662 -23.073 -17.410  0.00  0.00    +0.211 HD
ENDBRANCH  17  18
ENDBRANCH   4  17
TORSDOF 6
ENDMDL
MODEL 7
REMARK VINA RESULT:      -5.7      2.019      3.621
REMARK  Name = 17753995
REMARK  6 active torsions:
REMARK  status: ('A' for Active; 'I' for Inactive)
REMARK    1  A    between atoms: C_2  and  N_7
REMARK    2  A    between atoms: C_3  and  O_11
REMARK    3  A    between atoms: C_4  and  C_17
REMARK    4  A    between atoms: C_5  and  O_13
REMARK    5  A    between atoms: C_6  and  O_15
REMARK    6  A    between atoms: C_17  and  O_18
REMARK                            x       y       z     vdW  Elec       q    Type
REMARK                         _______ _______ _______ _____ _____    ______ ____
ROOT
ATOM      1  O   UNL     1      37.958 -23.648 -15.138  0.00  0.00    -0.331 OA
ATOM      2  C   UNL     1      35.979 -24.466 -13.960  0.00  0.00    -0.005 C 
ATOM      3  C   UNL     1      36.821 -25.573 -13.305  0.00  0.00    +0.125 C 
ATOM      4  C   UNL     1      36.587 -24.034 -15.308  0.00  0.00    +0.130 C 
ATOM      5  C   UNL     1      38.296 -25.167 -13.271  0.00  0.00    +0.192 C 
ATOM      6  C   UNL     1      38.787 -24.700 -14.642  0.00  0.00    +0.262 C 
ENDROOT
BRANCH   2   7
ATOM      7  N   UNL     1      34.602 -24.938 -14.124  0.00  0.00    +0.385 N 
ATOM      8  H   UNL     1      34.084 -24.281 -14.708  0.00  0.00    -0.089 HD
ATOM      9  H   UNL     1      34.155 -25.007 -13.210  0.00  0.00    -0.089 HD
ATOM     10  H   UNL     1      34.608 -25.856 -14.569  0.00  0.00    -0.089 HD
ENDBRANCH   2   7
BRANCH   3  11
ATOM     11  O   UNL     1      36.362 -25.758 -11.964  0.00  0.00    -0.384 OA
ATOM     12  H   UNL     1      35.472 -25.385 -11.872  0.00  0.00    +0.210 HD
ENDBRANCH   3  11
BRANCH   5  13
ATOM     13  O   UNL     1      39.106 -26.252 -12.834  0.00  0.00    -0.378 OA
ATOM     14  H   UNL     1      40.010 -26.134 -13.164  0.00  0.00    +0.211 HD
ENDBRANCH   5  13
BRANCH   6  15
ATOM     15  O   UNL     1      38.916 -25.772 -15.574  0.00  0.00    -0.358 OA
ATOM     16  H   UNL     1      39.843 -25.851 -15.850  0.00  0.00    +0.213 HD
ENDBRANCH   6  15
BRANCH   4  17
ATOM     17  C   UNL     1      35.874 -22.831 -15.922  0.00  0.00    +0.165 C 
BRANCH  17  18
ATOM     18  O   UNL     1      34.824 -23.303 -16.745  0.00  0.00    -0.380 OA
ATOM     19  H   UNL     1      35.122 -24.086 -17.233  0.00  0.00    +0.211 HD
ENDBRANCH  17  18
ENDBRANCH   4  17
TORSDOF 6
ENDMDL
MODEL 8
REMARK VINA RESULT:      -5.7      2.135      4.075
REMARK  Name = 17753995
REMARK  6 active torsions:
REMARK  status: ('A' for Active; 'I' for Inactive)
REMARK    1  A    between atoms: C_2  and  N_7
REMARK    2  A    between atoms: C_3  and  O_11
REMARK    3  A    between atoms: C_4  and  C_17
REMARK    4  A    between atoms: C_5  and  O_13
REMARK    5  A    between atoms: C_6  and  O_15
REMARK    6  A    between atoms: C_17  and  O_18
REMARK                            x       y       z     vdW  Elec       q    Type
REMARK                         _______ _______ _______ _____ _____    ______ ____
ROOT
ATOM      1  O   UNL     1      35.728 -25.191 -15.320  0.00  0.00    -0.331 OA
ATOM      2  C   UNL     1      36.654 -24.006 -13.393  0.00  0.00    -0.005 C 
ATOM      3  C   UNL     1      37.818 -25.008 -13.331  0.00  0.00    +0.125 C 
ATOM      4  C   UNL     1      35.407 -24.647 -14.031  0.00  0.00    +0.130 C 
ATOM      5  C   UNL     1      38.031 -25.660 -14.700  0.00  0.00    +0.192 C 
ATOM      6  C   UNL     1      36.725 -26.212 -15.272  0.00  0.00    +0.262 C 
ENDROOT
BRANCH   2   7
ATOM      7  N   UNL     1      36.368 -23.513 -12.044  0.00  0.00    +0.385 N 
ATOM      8  H   UNL     1      35.409 -23.755 -11.789  0.00  0.00    -0.089 HD
ATOM      9  H   UNL     1      36.481 -22.500 -12.021  0.00  0.00    -0.089 HD
ATOM     10  H   UNL     1      37.013 -23.942 -11.381  0.00  0.00    -0.089 HD
ENDBRANCH   2   7
BRANCH   3  11
ATOM     11  O   UNL     1      39.006 -24.302 -12.966  0.00  0.00    -0.384 OA
ATOM     12  H   UNL     1      39.525 -24.110 -13.763  0.00  0.00    +0.210 HD
ENDBRANCH   3  11
BRANCH   5  13
ATOM     13  O   UNL     1      38.980 -26.715 -14.611  0.00  0.00    -0.378 OA
ATOM     14  H   UNL     1      39.504 -26.612 -13.801  0.00  0.00    +0.211 HD
ENDBRANCH   5  13
BRANCH   6  15
ATOM     15  O   UNL     1      36.272 -27.378 -14.585  0.00  0.00    -0.358 OA
ATOM     16  H   UNL     1      35.497 -27.155 -14.047  0.00  0.00    +0.213 HD
ENDBRANCH   6  15
BRANCH   4  17
ATOM     17  C   UNL     1      34.276 -23.646 -14.256  0.00  0.00    +0.165 C 
BRANCH  17  18
ATOM     18  O   UNL     1      33.527 -23.538 -13.061  0.00  0.00    -0.380 OA
ATOM     19  H   UNL     1      33.441 -22.604 -12.816  0.00  0.00    +0.211 HD
ENDBRANCH  17  18
ENDBRANCH   4  17
TORSDOF 6
ENDMDL
MODEL 9
REMARK VINA RESULT:      -5.6      2.038      3.109
REMARK  Name = 17753995
REMARK  6 active torsions:
REMARK  status: ('A' for Active; 'I' for Inactive)
REMARK    1  A    between atoms: C_2  and  N_7
REMARK    2  A    between atoms: C_3  and  O_11
REMARK    3  A    between atoms: C_4  and  C_17
REMARK    4  A    between atoms: C_5  and  O_13
REMARK    5  A    between atoms: C_6  and  O_15
REMARK    6  A    between atoms: C_17  and  O_18
REMARK                            x       y       z     vdW  Elec       q    Type
REMARK                         _______ _______ _______ _____ _____    ______ ____
ROOT
ATOM      1  O   UNL     1      36.180 -24.640 -14.833  0.00  0.00    -0.331 OA
ATOM      2  C   UNL     1      36.973 -24.601 -12.522  0.00  0.00    -0.005 C 
ATOM      3  C   UNL     1      35.664 -23.929 -12.079  0.00  0.00    +0.125 C 
ATOM      4  C   UNL     1      37.288 -24.281 -13.995  0.00  0.00    +0.130 C 
ATOM      5  C   UNL     1      34.547 -24.233 -13.080  0.00  0.00    +0.192 C 
ATOM      6  C   UNL     1      34.978 -23.937 -14.517  0.00  0.00    +0.262 C 
ENDROOT
BRANCH   2   7
ATOM      7  N   UNL     1      38.061 -24.170 -11.640  0.00  0.00    +0.385 N 
ATOM      8  H   UNL     1      38.733 -24.931 -11.531  0.00  0.00    -0.089 HD
ATOM      9  H   UNL     1      37.680 -23.919 -10.728  0.00  0.00    -0.089 HD
ATOM     10  H   UNL     1      38.528 -23.360 -12.048  0.00  0.00    -0.089 HD
ENDBRANCH   2   7
BRANCH   3  11
ATOM     11  O   UNL     1      35.295 -24.452 -10.801  0.00  0.00    -0.384 OA
ATOM     12  H   UNL     1      35.684 -25.333 -10.687  0.00  0.00    +0.210 HD
ENDBRANCH   3  11
BRANCH   5  13
ATOM     13  O   UNL     1      33.383 -23.472 -12.780  0.00  0.00    -0.378 OA
ATOM     14  H   UNL     1      32.916 -23.258 -13.602  0.00  0.00    +0.211 HD
ENDBRANCH   5  13
BRANCH   6  15
ATOM     15  O   UNL     1      35.083 -22.540 -14.783  0.00  0.00    -0.358 OA
ATOM     16  H   UNL     1      36.016 -22.275 -14.757  0.00  0.00    +0.213 HD
ENDBRANCH   6  15
BRANCH   4  17
ATOM     17  C   UNL     1      38.495 -25.052 -14.525  0.00  0.00    +0.165 C 
BRANCH  17  18
ATOM     18  O   UNL     1      38.034 -26.066 -15.398  0.00  0.00    -0.380 OA
ATOM     19  H   UNL     1      38.323 -26.931 -15.070  0.00  0.00    +0.211 HD
ENDBRANCH  17  18
ENDBRANCH   4  17
TORSDOF 6
ENDMDL
