MODEL 1
REMARK VINA RESULT:      -5.9      0.000      0.000
REMARK  Name = 76635
REMARK  2 active torsions:
REMARK  status: ('A' for Active; 'I' for Inactive)
REMARK    1  A    between atoms: C_3  and  N_9
REMARK    2  A    between atoms: C_4  and  N_12
REMARK                            x       y       z     vdW  Elec       q    Type
REMARK                         _______ _______ _______ _____ _____    ______ ____
ROOT
ATOM      1  C   UNL     1      33.886 -14.975 -22.905  0.00  0.00    -0.024 C 
ATOM      2  C   UNL     1      33.690 -15.041 -21.526  0.00  0.00    -0.024 C 
ATOM      3  C   UNL     1      35.209 -16.994 -22.813  0.00  0.00    +0.054 C 
ATOM      4  C   UNL     1      35.013 -17.060 -21.433  0.00  0.00    +0.054 C 
ATOM      5  C   UNL     1      34.645 -15.951 -23.549  0.00  0.00    +0.011 C 
ATOM      6  C   UNL     1      34.253 -16.083 -20.790  0.00  0.00    +0.011 C 
ATOM      7  C   UNL     1      33.292 -13.868 -23.713  0.00  0.00    +0.031 C 
ATOM      8  C   UNL     1      32.880 -14.006 -20.814  0.00  0.00    +0.031 C 
ENDROOT
BRANCH   3   9
ATOM      9  N   UNL     1      35.976 -17.972 -23.485  0.00  0.00    -0.356 N 
ATOM     10  H   UNL     1      35.529 -18.730 -23.925  0.00  0.00    +0.142 HD
ATOM     11  H   UNL     1      36.957 -17.895 -23.512  0.00  0.00    +0.142 HD
ENDBRANCH   3   9
BRANCH   4  12
ATOM     12  N   UNL     1      35.574 -18.108 -20.670  0.00  0.00    -0.356 N 
ATOM     13  H   UNL     1      36.339 -18.617 -21.021  0.00  0.00    +0.142 HD
ATOM     14  H   UNL     1      35.199 -18.328 -19.786  0.00  0.00    +0.142 HD
ENDBRANCH   4  12
TORSDOF 2
ENDMDL
MODEL 2
REMARK VINA RESULT:      -5.9      2.152      4.245
REMARK  Name = 76635
REMARK  2 active torsions:
REMARK  status: ('A' for Active; 'I' for Inactive)
REMARK    1  A    between atoms: C_3  and  N_9
REMARK    2  A    between atoms: C_4  and  N_12
REMARK                            x       y       z     vdW  Elec       q    Type
REMARK                         _______ _______ _______ _____ _____    ______ ____
ROOT
ATOM      1  C   UNL     1      34.940 -18.309 -21.920  0.00  0.00    -0.024 C 
ATOM      2  C   UNL     1      34.835 -18.095 -23.294  0.00  0.00    -0.024 C 
ATOM      3  C   UNL     1      34.672 -15.939 -21.532  0.00  0.00    +0.054 C 
ATOM      4  C   UNL     1      34.567 -15.726 -22.907  0.00  0.00    +0.054 C 
ATOM      5  C   UNL     1      34.859 -17.231 -21.039  0.00  0.00    +0.011 C 
ATOM      6  C   UNL     1      34.648 -16.804 -23.788  0.00  0.00    +0.011 C 
ATOM      7  C   UNL     1      35.139 -19.683 -21.369  0.00  0.00    +0.031 C 
ATOM      8  C   UNL     1      34.918 -19.234 -24.258  0.00  0.00    +0.031 C 
ENDROOT
BRANCH   3   9
ATOM      9  N   UNL     1      34.594 -14.862 -20.622  0.00  0.00    -0.356 N 
ATOM     10  H   UNL     1      34.362 -13.961 -20.944  0.00  0.00    +0.142 HD
ATOM     11  H   UNL     1      34.771 -15.012 -19.664  0.00  0.00    +0.142 HD
ENDBRANCH   3   9
BRANCH   4  12
ATOM     12  N   UNL     1      34.378 -14.426 -23.426  0.00  0.00    -0.356 N 
ATOM     13  H   UNL     1      33.540 -13.941 -23.247  0.00  0.00    +0.142 HD
ATOM     14  H   UNL     1      35.085 -14.005 -23.967  0.00  0.00    +0.142 HD
ENDBRANCH   4  12
TORSDOF 2
ENDMDL
MODEL 3
REMARK VINA RESULT:      -5.9      3.338      4.918
REMARK  Name = 76635
REMARK  2 active torsions:
REMARK  status: ('A' for Active; 'I' for Inactive)
REMARK    1  A    between atoms: C_3  and  N_9
REMARK    2  A    between atoms: C_4  and  N_12
REMARK                            x       y       z     vdW  Elec       q    Type
REMARK                         _______ _______ _______ _____ _____    ______ ____
ROOT
ATOM      1  C   UNL     1      35.357 -20.399 -20.289  0.00  0.00    -0.024 C 
ATOM      2  C   UNL     1      34.226 -19.776 -20.817  0.00  0.00    -0.024 C 
ATOM      3  C   UNL     1      36.770 -18.958 -21.618  0.00  0.00    +0.054 C 
ATOM      4  C   UNL     1      35.639 -18.335 -22.145  0.00  0.00    +0.054 C 
ATOM      5  C   UNL     1      36.629 -19.990 -20.690  0.00  0.00    +0.011 C 
ATOM      6  C   UNL     1      34.367 -18.743 -21.745  0.00  0.00    +0.011 C 
ATOM      7  C   UNL     1      35.230 -21.506 -19.295  0.00  0.00    +0.031 C 
ATOM      8  C   UNL     1      32.853 -20.196 -20.404  0.00  0.00    +0.031 C 
ENDROOT
BRANCH   3   9
ATOM      9  N   UNL     1      38.068 -18.561 -22.010  0.00  0.00    -0.356 N 
ATOM     10  H   UNL     1      38.404 -17.669 -21.766  0.00  0.00    +0.142 HD
ATOM     11  H   UNL     1      38.636 -19.177 -22.528  0.00  0.00    +0.142 HD
ENDBRANCH   3   9
BRANCH   4  12
ATOM     12  N   UNL     1      35.761 -17.287 -23.085  0.00  0.00    -0.356 N 
ATOM     13  H   UNL     1      34.954 -16.867 -23.461  0.00  0.00    +0.142 HD
ATOM     14  H   UNL     1      36.653 -16.977 -23.363  0.00  0.00    +0.142 HD
ENDBRANCH   4  12
TORSDOF 2
ENDMDL
MODEL 4
REMARK VINA RESULT:      -5.9      0.123      2.385
REMARK  Name = 76635
REMARK  2 active torsions:
REMARK  status: ('A' for Active; 'I' for Inactive)
REMARK    1  A    between atoms: C_3  and  N_9
REMARK    2  A    between atoms: C_4  and  N_12
REMARK                            x       y       z     vdW  Elec       q    Type
REMARK                         _______ _______ _______ _____ _____    ______ ____
ROOT
ATOM      1  C   UNL     1      33.770 -15.121 -21.526  0.00  0.00    -0.024 C 
ATOM      2  C   UNL     1      33.965 -15.075 -22.907  0.00  0.00    -0.024 C 
ATOM      3  C   UNL     1      35.086 -17.144 -21.410  0.00  0.00    +0.054 C 
ATOM      4  C   UNL     1      35.281 -17.098 -22.790  0.00  0.00    +0.054 C 
ATOM      5  C   UNL     1      34.331 -16.156 -20.778  0.00  0.00    +0.011 C 
ATOM      6  C   UNL     1      34.721 -16.063 -23.539  0.00  0.00    +0.011 C 
ATOM      7  C   UNL     1      32.966 -14.074 -20.829  0.00  0.00    +0.031 C 
ATOM      8  C   UNL     1      33.375 -13.976 -23.730  0.00  0.00    +0.031 C 
ENDROOT
BRANCH   3   9
ATOM      9  N   UNL     1      35.644 -18.184 -20.632  0.00  0.00    -0.356 N 
ATOM     10  H   UNL     1      35.652 -19.106 -20.976  0.00  0.00    +0.142 HD
ATOM     11  H   UNL     1      36.025 -17.986 -19.746  0.00  0.00    +0.142 HD
ENDBRANCH   3   9
BRANCH   4  12
ATOM     12  N   UNL     1      36.043 -18.088 -23.449  0.00  0.00    -0.356 N 
ATOM     13  H   UNL     1      36.858 -17.837 -23.939  0.00  0.00    +0.142 HD
ATOM     14  H   UNL     1      35.758 -19.030 -23.416  0.00  0.00    +0.142 HD
ENDBRANCH   4  12
TORSDOF 2
ENDMDL
MODEL 5
REMARK VINA RESULT:      -5.9      2.725      3.959
REMARK  Name = 76635
REMARK  2 active torsions:
REMARK  status: ('A' for Active; 'I' for Inactive)
REMARK    1  A    between atoms: C_3  and  N_9
REMARK    2  A    between atoms: C_4  and  N_12
REMARK                            x       y       z     vdW  Elec       q    Type
REMARK                         _______ _______ _______ _____ _____    ______ ____
ROOT
ATOM      1  C   UNL     1      34.761 -18.023 -24.161  0.00  0.00    -0.024 C 
ATOM      2  C   UNL     1      35.196 -17.479 -22.952  0.00  0.00    -0.024 C 
ATOM      3  C   UNL     1      33.998 -15.843 -24.867  0.00  0.00    +0.054 C 
ATOM      4  C   UNL     1      34.433 -15.298 -23.659  0.00  0.00    +0.054 C 
ATOM      5  C   UNL     1      34.162 -17.205 -25.118  0.00  0.00    +0.011 C 
ATOM      6  C   UNL     1      35.032 -16.117 -22.701  0.00  0.00    +0.011 C 
ATOM      7  C   UNL     1      34.926 -19.479 -24.451  0.00  0.00    +0.031 C 
ATOM      8  C   UNL     1      35.841 -18.335 -21.911  0.00  0.00    +0.031 C 
ENDROOT
BRANCH   3   9
ATOM      9  N   UNL     1      33.388 -15.032 -25.851  0.00  0.00    -0.356 N 
ATOM     10  H   UNL     1      33.928 -14.654 -26.581  0.00  0.00    +0.142 HD
ATOM     11  H   UNL     1      32.422 -14.846 -25.805  0.00  0.00    +0.142 HD
ENDBRANCH   3   9
BRANCH   4  12
ATOM     12  N   UNL     1      34.277 -13.921 -23.386  0.00  0.00    -0.356 N 
ATOM     13  H   UNL     1      35.035 -13.400 -23.035  0.00  0.00    +0.142 HD
ATOM     14  H   UNL     1      33.410 -13.483 -23.547  0.00  0.00    +0.142 HD
ENDBRANCH   4  12
TORSDOF 2
ENDMDL
MODEL 6
REMARK VINA RESULT:      -5.9      2.153      3.558
REMARK  Name = 76635
REMARK  2 active torsions:
REMARK  status: ('A' for Active; 'I' for Inactive)
REMARK    1  A    between atoms: C_3  and  N_9
REMARK    2  A    between atoms: C_4  and  N_12
REMARK                            x       y       z     vdW  Elec       q    Type
REMARK                         _______ _______ _______ _____ _____    ______ ____
ROOT
ATOM      1  C   UNL     1      34.851 -18.167 -23.246  0.00  0.00    -0.024 C 
ATOM      2  C   UNL     1      34.971 -18.341 -21.867  0.00  0.00    -0.024 C 
ATOM      3  C   UNL     1      34.567 -15.790 -22.920  0.00  0.00    +0.054 C 
ATOM      4  C   UNL     1      34.687 -15.964 -21.541  0.00  0.00    +0.054 C 
ATOM      5  C   UNL     1      34.649 -16.892 -23.772  0.00  0.00    +0.011 C 
ATOM      6  C   UNL     1      34.889 -17.240 -21.015  0.00  0.00    +0.011 C 
ATOM      7  C   UNL     1      34.936 -19.332 -24.177  0.00  0.00    +0.031 C 
ATOM      8  C   UNL     1      35.188 -19.698 -21.279  0.00  0.00    +0.031 C 
ENDROOT
BRANCH   3   9
ATOM      9  N   UNL     1      34.361 -14.507 -23.475  0.00  0.00    -0.356 N 
ATOM     10  H   UNL     1      34.112 -14.415 -24.422  0.00  0.00    +0.142 HD
ATOM     11  H   UNL     1      34.466 -13.705 -22.913  0.00  0.00    +0.142 HD
ENDBRANCH   3   9
BRANCH   4  12
ATOM     12  N   UNL     1      34.608 -14.862 -20.662  0.00  0.00    -0.356 N 
ATOM     13  H   UNL     1      34.074 -14.073 -20.908  0.00  0.00    +0.142 HD
ATOM     14  H   UNL     1      35.087 -14.884 -19.801  0.00  0.00    +0.142 HD
ENDBRANCH   4  12
TORSDOF 2
ENDMDL
MODEL 7
REMARK VINA RESULT:      -5.9      2.723      4.467
REMARK  Name = 76635
REMARK  2 active torsions:
REMARK  status: ('A' for Active; 'I' for Inactive)
REMARK    1  A    between atoms: C_3  and  N_9
REMARK    2  A    between atoms: C_4  and  N_12
REMARK                            x       y       z     vdW  Elec       q    Type
REMARK                         _______ _______ _______ _____ _____    ______ ____
ROOT
ATOM      1  C   UNL     1      35.164 -17.394 -22.895  0.00  0.00    -0.024 C 
ATOM      2  C   UNL     1      34.757 -17.953 -24.107  0.00  0.00    -0.024 C 
ATOM      3  C   UNL     1      34.411 -15.224 -23.645  0.00  0.00    +0.054 C 
ATOM      4  C   UNL     1      34.004 -15.784 -24.856  0.00  0.00    +0.054 C 
ATOM      5  C   UNL     1      34.991 -16.030 -22.664  0.00  0.00    +0.011 C 
ATOM      6  C   UNL     1      34.177 -17.148 -25.087  0.00  0.00    +0.011 C 
ATOM      7  C   UNL     1      35.787 -18.237 -21.831  0.00  0.00    +0.031 C 
ATOM      8  C   UNL     1      34.932 -19.412 -24.377  0.00  0.00    +0.031 C 
ENDROOT
BRANCH   3   9
ATOM      9  N   UNL     1      34.246 -13.845 -23.391  0.00  0.00    -0.356 N 
ATOM     10  H   UNL     1      33.384 -13.505 -23.057  0.00  0.00    +0.142 HD
ATOM     11  H   UNL     1      34.993 -13.222 -23.546  0.00  0.00    +0.142 HD
ENDBRANCH   3   9
BRANCH   4  12
ATOM     12  N   UNL     1      33.414 -14.986 -25.861  0.00  0.00    -0.356 N 
ATOM     13  H   UNL     1      32.478 -14.694 -25.772  0.00  0.00    +0.142 HD
ATOM     14  H   UNL     1      33.939 -14.721 -26.651  0.00  0.00    +0.142 HD
ENDBRANCH   4  12
TORSDOF 2
ENDMDL
MODEL 8
REMARK VINA RESULT:      -5.9      4.341      5.807
REMARK  Name = 76635
REMARK  2 active torsions:
REMARK  status: ('A' for Active; 'I' for Inactive)
REMARK    1  A    between atoms: C_3  and  N_9
REMARK    2  A    between atoms: C_4  and  N_12
REMARK                            x       y       z     vdW  Elec       q    Type
REMARK                         _______ _______ _______ _____ _____    ______ ____
ROOT
ATOM      1  C   UNL     1      35.943 -19.980 -20.554  0.00  0.00    -0.024 C 
ATOM      2  C   UNL     1      34.649 -19.767 -21.030  0.00  0.00    -0.024 C 
ATOM      3  C   UNL     1      35.095 -21.598 -18.973  0.00  0.00    +0.054 C 
ATOM      4  C   UNL     1      33.801 -21.386 -19.450  0.00  0.00    +0.054 C 
ATOM      5  C   UNL     1      36.166 -20.895 -19.526  0.00  0.00    +0.011 C 
ATOM      6  C   UNL     1      33.578 -20.470 -20.478  0.00  0.00    +0.011 C 
ATOM      7  C   UNL     1      37.105 -19.239 -21.130  0.00  0.00    +0.031 C 
ATOM      8  C   UNL     1      34.385 -18.792 -22.131  0.00  0.00    +0.031 C 
ENDROOT
BRANCH   3   9
ATOM      9  N   UNL     1      35.343 -22.520 -17.932  0.00  0.00    -0.356 N 
ATOM     10  H   UNL     1      35.558 -23.456 -18.144  0.00  0.00    +0.142 HD
ATOM     11  H   UNL     1      35.301 -22.225 -16.993  0.00  0.00    +0.142 HD
ENDBRANCH   3   9
BRANCH   4  12
ATOM     12  N   UNL     1      32.703 -22.088 -18.905  0.00  0.00    -0.356 N 
ATOM     13  H   UNL     1      31.808 -21.680 -18.906  0.00  0.00    +0.142 HD
ATOM     14  H   UNL     1      32.835 -22.987 -18.524  0.00  0.00    +0.142 HD
ENDBRANCH   4  12
TORSDOF 2
ENDMDL
MODEL 9
REMARK VINA RESULT:      -5.7      4.906      6.375
REMARK  Name = 76635
REMARK  2 active torsions:
REMARK  status: ('A' for Active; 'I' for Inactive)
REMARK    1  A    between atoms: C_3  and  N_9
REMARK    2  A    between atoms: C_4  and  N_12
REMARK                            x       y       z     vdW  Elec       q    Type
REMARK                         _______ _______ _______ _____ _____    ______ ____
ROOT
ATOM      1  C   UNL     1      33.839 -20.702 -20.151  0.00  0.00    -0.024 C 
ATOM      2  C   UNL     1      35.157 -20.306 -20.381  0.00  0.00    -0.024 C 
ATOM      3  C   UNL     1      34.587 -22.146 -18.364  0.00  0.00    +0.054 C 
ATOM      4  C   UNL     1      35.904 -21.750 -18.594  0.00  0.00    +0.054 C 
ATOM      5  C   UNL     1      33.554 -21.622 -19.143  0.00  0.00    +0.011 C 
ATOM      6  C   UNL     1      36.189 -20.830 -19.603  0.00  0.00    +0.011 C 
ATOM      7  C   UNL     1      32.718 -20.154 -20.972  0.00  0.00    +0.031 C 
ATOM      8  C   UNL     1      35.487 -19.321 -21.456  0.00  0.00    +0.031 C 
ENDROOT
BRANCH   3   9
ATOM      9  N   UNL     1      34.276 -23.078 -17.349  0.00  0.00    -0.356 N 
ATOM     10  H   UNL     1      34.998 -23.522 -16.851  0.00  0.00    +0.142 HD
ATOM     11  H   UNL     1      33.335 -23.282 -17.139  0.00  0.00    +0.142 HD
ENDBRANCH   3   9
BRANCH   4  12
ATOM     12  N   UNL     1      36.963 -22.268 -17.817  0.00  0.00    -0.356 N 
ATOM     13  H   UNL     1      36.977 -23.222 -17.577  0.00  0.00    +0.142 HD
ATOM     14  H   UNL     1      37.689 -21.673 -17.516  0.00  0.00    +0.142 HD
ENDBRANCH   4  12
TORSDOF 2
ENDMDL
