MODEL 1
REMARK VINA RESULT:     -10.0      0.000      0.000
REMARK  Name = 9884642
REMARK  10 active torsions:
REMARK  status: ('A' for Active; 'I' for Inactive)
REMARK    1  A    between atoms: C_1  and  C_3
REMARK    2  A    between atoms: C_1  and  C_16
REMARK    3  A    between atoms: C_11  and  O_13
REMARK    4  A    between atoms: C_16  and  O_17
REMARK    5  A    between atoms: O_17  and  C_18
REMARK    6  A    between atoms: C_18  and  C_19
REMARK    7  A    between atoms: C_19  and  C_20
REMARK    8  A    between atoms: C_20  and  C_21
REMARK    9  A    between atoms: C_21  and  O_22
REMARK   10  A    between atoms: O_22  and  N_25
REMARK                            x       y       z     vdW  Elec       q    Type
REMARK                         _______ _______ _______ _____ _____    ______ ____
ROOT
ATOM      1  C   UNL     1      33.648 -23.435 -17.193  0.00  0.00    +0.121 C 
ATOM      2  C   UNL     1      32.192 -23.116 -16.793  0.00  0.00    +0.016 C 
ENDROOT
BRANCH   1   3
ATOM      3  C   UNL     1      34.222 -22.463 -18.167  0.00  0.00    -0.012 C 
ATOM      4  C   UNL     1      33.905 -20.836 -19.947  0.00  0.00    -0.000 C 
ATOM      5  C   UNL     1      33.380 -21.755 -19.024  0.00  0.00    -0.004 C 
ATOM      6  C   UNL     1      35.305 -20.633 -20.000  0.00  0.00    +0.003 C 
ATOM      7  C   UNL     1      35.599 -22.263 -18.219  0.00  0.00    -0.004 C 
ATOM      8  C   UNL     1      36.137 -21.354 -19.130  0.00  0.00    -0.000 C 
ATOM      9  C   UNL     1      33.072 -20.115 -20.817  0.00  0.00    +0.003 C 
ATOM     10  C   UNL     1      35.830 -19.713 -20.924  0.00  0.00    +0.037 C 
ATOM     11  C   UNL     1      34.987 -19.006 -21.781  0.00  0.00    +0.139 C 
ATOM     12  C   UNL     1      33.611 -19.206 -21.728  0.00  0.00    +0.037 C 
BRANCH  11  13
ATOM     13  O   UNL     1      35.512 -18.118 -22.670  0.00  0.00    -0.471 OA
ATOM     14  C   UNL     1      35.151 -16.747 -22.507  0.00  0.00    +0.252 C 
ENDBRANCH  11  13
ENDBRANCH   1   3
BRANCH   1  16
ATOM     15  O   UNL     1      34.357 -22.869 -14.926  0.00  0.00    -0.250 OA
ATOM     16  C   UNL     1      34.488 -23.575 -15.917  0.00  0.00    +0.321 C 
BRANCH  16  17
ATOM     17  O   UNL     1      35.373 -24.612 -16.039  0.00  0.00    -0.448 OA
BRANCH  17  18
ATOM     18  C   UNL     1      36.450 -24.618 -15.097  0.00  0.00    +0.209 C 
BRANCH  18  19
ATOM     19  C   UNL     1      36.657 -26.041 -14.596  0.00  0.00    +0.051 C 
BRANCH  19  20
ATOM     20  C   UNL     1      37.220 -26.062 -13.179  0.00  0.00    +0.054 C 
BRANCH  20  21
ATOM     21  C   UNL     1      38.671 -25.604 -13.144  0.00  0.00    +0.243 C 
BRANCH  21  22
ATOM     22  O   UNL     1      39.432 -26.419 -14.025  0.00  0.00    -0.336 OA
BRANCH  22  25
ATOM     23  O   UNL     1      40.867 -24.738 -14.160  0.00  0.00    -0.090 OA
ATOM     24  O   UNL     1      40.650 -26.094 -15.917  0.00  0.00    -0.090 OA
ATOM     25  N   UNL     1      40.399 -25.696 -14.776  0.00  0.00    +0.218 N 
ENDBRANCH  22  25
ENDBRANCH  21  22
ENDBRANCH  20  21
ENDBRANCH  19  20
ENDBRANCH  18  19
ENDBRANCH  17  18
ENDBRANCH  16  17
ENDBRANCH   1  16
TORSDOF 10
ENDMDL
MODEL 2
REMARK VINA RESULT:      -9.8      2.154      2.601
REMARK  Name = 9884642
REMARK  10 active torsions:
REMARK  status: ('A' for Active; 'I' for Inactive)
REMARK    1  A    between atoms: C_1  and  C_3
REMARK    2  A    between atoms: C_1  and  C_16
REMARK    3  A    between atoms: C_11  and  O_13
REMARK    4  A    between atoms: C_16  and  O_17
REMARK    5  A    between atoms: O_17  and  C_18
REMARK    6  A    between atoms: C_18  and  C_19
REMARK    7  A    between atoms: C_19  and  C_20
REMARK    8  A    between atoms: C_20  and  C_21
REMARK    9  A    between atoms: C_21  and  O_22
REMARK   10  A    between atoms: O_22  and  N_25
REMARK                            x       y       z     vdW  Elec       q    Type
REMARK                         _______ _______ _______ _____ _____    ______ ____
ROOT
ATOM      1  C   UNL     1      33.991 -23.413 -17.137  0.00  0.00    +0.121 C 
ATOM      2  C   UNL     1      32.501 -23.171 -16.817  0.00  0.00    +0.016 C 
ENDROOT
BRANCH   1   3
ATOM      3  C   UNL     1      34.554 -22.435 -18.111  0.00  0.00    -0.012 C 
ATOM      4  C   UNL     1      34.223 -20.841 -19.920  0.00  0.00    -0.000 C 
ATOM      5  C   UNL     1      33.708 -21.765 -18.995  0.00  0.00    -0.004 C 
ATOM      6  C   UNL     1      35.617 -20.594 -19.947  0.00  0.00    +0.003 C 
ATOM      7  C   UNL     1      35.925 -22.191 -18.139  0.00  0.00    -0.004 C 
ATOM      8  C   UNL     1      36.454 -21.277 -19.050  0.00  0.00    -0.000 C 
ATOM      9  C   UNL     1      33.387 -20.158 -20.816  0.00  0.00    +0.003 C 
ATOM     10  C   UNL     1      36.132 -19.670 -20.871  0.00  0.00    +0.037 C 
ATOM     11  C   UNL     1      35.285 -19.001 -21.755  0.00  0.00    +0.139 C 
ATOM     12  C   UNL     1      33.915 -19.244 -21.728  0.00  0.00    +0.037 C 
BRANCH  11  13
ATOM     13  O   UNL     1      35.801 -18.108 -22.645  0.00  0.00    -0.471 OA
ATOM     14  C   UNL     1      35.096 -16.878 -22.811  0.00  0.00    +0.252 C 
ENDBRANCH  11  13
ENDBRANCH   1   3
BRANCH   1  16
ATOM     15  O   UNL     1      34.844 -22.538 -15.022  0.00  0.00    -0.250 OA
ATOM     16  C   UNL     1      34.774 -23.466 -15.819  0.00  0.00    +0.321 C 
BRANCH  16  17
ATOM     17  O   UNL     1      35.349 -24.696 -15.653  0.00  0.00    -0.448 OA
BRANCH  17  18
ATOM     18  C   UNL     1      36.675 -24.690 -15.113  0.00  0.00    +0.209 C 
BRANCH  18  19
ATOM     19  C   UNL     1      36.848 -25.913 -14.223  0.00  0.00    +0.051 C 
BRANCH  19  20
ATOM     20  C   UNL     1      37.722 -25.608 -13.012  0.00  0.00    +0.054 C 
BRANCH  20  21
ATOM     21  C   UNL     1      37.443 -24.220 -12.453  0.00  0.00    +0.243 C 
BRANCH  21  22
ATOM     22  O   UNL     1      37.081 -24.338 -11.085  0.00  0.00    -0.336 OA
BRANCH  22  25
ATOM     23  O   UNL     1      35.357 -24.610  -9.722  0.00  0.00    -0.090 OA
ATOM     24  O   UNL     1      34.970 -23.878 -11.793  0.00  0.00    -0.090 OA
ATOM     25  N   UNL     1      35.679 -24.264 -10.859  0.00  0.00    +0.218 N 
ENDBRANCH  22  25
ENDBRANCH  21  22
ENDBRANCH  20  21
ENDBRANCH  19  20
ENDBRANCH  18  19
ENDBRANCH  17  18
ENDBRANCH  16  17
ENDBRANCH   1  16
TORSDOF 10
ENDMDL
MODEL 3
REMARK VINA RESULT:      -9.7      4.450     10.460
REMARK  Name = 9884642
REMARK  10 active torsions:
REMARK  status: ('A' for Active; 'I' for Inactive)
REMARK    1  A    between atoms: C_1  and  C_3
REMARK    2  A    between atoms: C_1  and  C_16
REMARK    3  A    between atoms: C_11  and  O_13
REMARK    4  A    between atoms: C_16  and  O_17
REMARK    5  A    between atoms: O_17  and  C_18
REMARK    6  A    between atoms: C_18  and  C_19
REMARK    7  A    between atoms: C_19  and  C_20
REMARK    8  A    between atoms: C_20  and  C_21
REMARK    9  A    between atoms: C_21  and  O_22
REMARK   10  A    between atoms: O_22  and  N_25
REMARK                            x       y       z     vdW  Elec       q    Type
REMARK                         _______ _______ _______ _____ _____    ______ ____
ROOT
ATOM      1  C   UNL     1      34.464 -18.294 -22.641  0.00  0.00    +0.121 C 
ATOM      2  C   UNL     1      34.962 -18.747 -24.029  0.00  0.00    +0.016 C 
ENDROOT
BRANCH   1   3
ATOM      3  C   UNL     1      34.798 -19.254 -21.549  0.00  0.00    -0.012 C 
ATOM      4  C   UNL     1      34.083 -20.889 -19.896  0.00  0.00    -0.000 C 
ATOM      5  C   UNL     1      33.785 -19.981 -20.926  0.00  0.00    -0.004 C 
ATOM      6  C   UNL     1      35.429 -21.061 -19.495  0.00  0.00    +0.003 C 
ATOM      7  C   UNL     1      36.123 -19.424 -21.154  0.00  0.00    -0.004 C 
ATOM      8  C   UNL     1      36.437 -20.321 -20.133  0.00  0.00    -0.000 C 
ATOM      9  C   UNL     1      33.075 -21.629 -19.258  0.00  0.00    +0.003 C 
ATOM     10  C   UNL     1      35.727 -21.969 -18.465  0.00  0.00    +0.037 C 
ATOM     11  C   UNL     1      34.712 -22.696 -17.841  0.00  0.00    +0.139 C 
ATOM     12  C   UNL     1      33.389 -22.527 -18.237  0.00  0.00    +0.037 C 
BRANCH  11  13
ATOM     13  O   UNL     1      35.019 -23.573 -16.845  0.00  0.00    -0.471 OA
ATOM     14  C   UNL     1      34.730 -23.162 -15.509  0.00  0.00    +0.252 C 
ENDBRANCH  11  13
ENDBRANCH   1   3
BRANCH   1  16
ATOM     15  O   UNL     1      35.678 -16.237 -23.150  0.00  0.00    -0.250 OA
ATOM     16  C   UNL     1      34.981 -16.875 -22.371  0.00  0.00    +0.321 C 
BRANCH  16  17
ATOM     17  O   UNL     1      34.529 -16.423 -21.162  0.00  0.00    -0.448 OA
BRANCH  17  18
ATOM     18  C   UNL     1      34.186 -15.034 -21.111  0.00  0.00    +0.209 C 
BRANCH  18  19
ATOM     19  C   UNL     1      32.722 -14.874 -21.498  0.00  0.00    +0.051 C 
BRANCH  19  20
ATOM     20  C   UNL     1      32.507 -13.657 -22.390  0.00  0.00    +0.054 C 
BRANCH  20  21
ATOM     21  C   UNL     1      33.379 -13.713 -23.637  0.00  0.00    +0.243 C 
BRANCH  21  22
ATOM     22  O   UNL     1      33.034 -14.868 -24.389  0.00  0.00    -0.336 OA
BRANCH  22  25
ATOM     23  O   UNL     1      33.799 -15.742 -26.274  0.00  0.00    -0.090 OA
ATOM     24  O   UNL     1      32.979 -13.669 -26.320  0.00  0.00    -0.090 OA
ATOM     25  N   UNL     1      33.287 -14.736 -25.782  0.00  0.00    +0.218 N 
ENDBRANCH  22  25
ENDBRANCH  21  22
ENDBRANCH  20  21
ENDBRANCH  19  20
ENDBRANCH  18  19
ENDBRANCH  17  18
ENDBRANCH  16  17
ENDBRANCH   1  16
TORSDOF 10
ENDMDL
MODEL 4
REMARK VINA RESULT:      -9.6      5.221     11.507
REMARK  Name = 9884642
REMARK  10 active torsions:
REMARK  status: ('A' for Active; 'I' for Inactive)
REMARK    1  A    between atoms: C_1  and  C_3
REMARK    2  A    between atoms: C_1  and  C_16
REMARK    3  A    between atoms: C_11  and  O_13
REMARK    4  A    between atoms: C_16  and  O_17
REMARK    5  A    between atoms: O_17  and  C_18
REMARK    6  A    between atoms: C_18  and  C_19
REMARK    7  A    between atoms: C_19  and  C_20
REMARK    8  A    between atoms: C_20  and  C_21
REMARK    9  A    between atoms: C_21  and  O_22
REMARK   10  A    between atoms: O_22  and  N_25
REMARK                            x       y       z     vdW  Elec       q    Type
REMARK                         _______ _______ _______ _____ _____    ______ ____
ROOT
ATOM      1  C   UNL     1      35.335 -16.881 -22.574  0.00  0.00    +0.121 C 
ATOM      2  C   UNL     1      34.652 -15.692 -21.866  0.00  0.00    +0.016 C 
ENDROOT
BRANCH   1   3
ATOM      3  C   UNL     1      35.351 -18.128 -21.756  0.00  0.00    -0.012 C 
ATOM      4  C   UNL     1      34.149 -19.866 -20.551  0.00  0.00    -0.000 C 
ATOM      5  C   UNL     1      34.152 -18.692 -21.322  0.00  0.00    -0.004 C 
ATOM      6  C   UNL     1      35.382 -20.476 -20.217  0.00  0.00    +0.003 C 
ATOM      7  C   UNL     1      36.563 -18.728 -21.427  0.00  0.00    -0.004 C 
ATOM      8  C   UNL     1      36.579 -19.895 -20.662  0.00  0.00    -0.000 C 
ATOM      9  C   UNL     1      32.952 -20.447 -20.106  0.00  0.00    +0.003 C 
ATOM     10  C   UNL     1      35.379 -21.650 -19.446  0.00  0.00    +0.037 C 
ATOM     11  C   UNL     1      34.179 -22.214 -19.011  0.00  0.00    +0.139 C 
ATOM     12  C   UNL     1      32.968 -21.614 -19.341  0.00  0.00    +0.037 C 
BRANCH  11  13
ATOM     13  O   UNL     1      34.195 -23.353 -18.265  0.00  0.00    -0.471 OA
ATOM     14  C   UNL     1      33.896 -23.222 -16.876  0.00  0.00    +0.252 C 
ENDBRANCH  11  13
ENDBRANCH   1   3
BRANCH   1  16
ATOM     15  O   UNL     1      34.912 -18.021 -24.692  0.00  0.00    -0.250 OA
ATOM     16  C   UNL     1      34.685 -17.073 -23.950  0.00  0.00    +0.321 C 
BRANCH  16  17
ATOM     17  O   UNL     1      33.804 -16.060 -24.209  0.00  0.00    -0.448 OA
BRANCH  17  18
ATOM     18  C   UNL     1      33.722 -15.646 -25.576  0.00  0.00    +0.209 C 
BRANCH  18  19
ATOM     19  C   UNL     1      32.950 -14.335 -25.649  0.00  0.00    +0.051 C 
BRANCH  19  20
ATOM     20  C   UNL     1      32.809 -13.690 -24.275  0.00  0.00    +0.054 C 
BRANCH  20  21
ATOM     21  C   UNL     1      33.808 -12.558 -24.081  0.00  0.00    +0.243 C 
BRANCH  21  22
ATOM     22  O   UNL     1      34.104 -11.982 -25.345  0.00  0.00    -0.336 OA
BRANCH  22  25
ATOM     23  O   UNL     1      34.561 -10.135 -24.213  0.00  0.00    -0.090 OA
ATOM     24  O   UNL     1      35.527 -10.429 -26.201  0.00  0.00    -0.090 OA
ATOM     25  N   UNL     1      34.797 -10.743 -25.258  0.00  0.00    +0.218 N 
ENDBRANCH  22  25
ENDBRANCH  21  22
ENDBRANCH  20  21
ENDBRANCH  19  20
ENDBRANCH  18  19
ENDBRANCH  17  18
ENDBRANCH  16  17
ENDBRANCH   1  16
TORSDOF 10
ENDMDL
MODEL 5
REMARK VINA RESULT:      -9.6      4.224      6.011
REMARK  Name = 9884642
REMARK  10 active torsions:
REMARK  status: ('A' for Active; 'I' for Inactive)
REMARK    1  A    between atoms: C_1  and  C_3
REMARK    2  A    between atoms: C_1  and  C_16
REMARK    3  A    between atoms: C_11  and  O_13
REMARK    4  A    between atoms: C_16  and  O_17
REMARK    5  A    between atoms: O_17  and  C_18
REMARK    6  A    between atoms: C_18  and  C_19
REMARK    7  A    between atoms: C_19  and  C_20
REMARK    8  A    between atoms: C_20  and  C_21
REMARK    9  A    between atoms: C_21  and  O_22
REMARK   10  A    between atoms: O_22  and  N_25
REMARK                            x       y       z     vdW  Elec       q    Type
REMARK                         _______ _______ _______ _____ _____    ______ ____
ROOT
ATOM      1  C   UNL     1      36.128 -23.467 -15.254  0.00  0.00    +0.121 C 
ATOM      2  C   UNL     1      37.064 -22.640 -16.161  0.00  0.00    +0.016 C 
ENDROOT
BRANCH   1   3
ATOM      3  C   UNL     1      34.687 -23.337 -15.614  0.00  0.00    -0.012 C 
ATOM      4  C   UNL     1      32.351 -23.267 -14.939  0.00  0.00    -0.000 C 
ATOM      5  C   UNL     1      33.713 -23.388 -14.617  0.00  0.00    -0.004 C 
ATOM      6  C   UNL     1      31.973 -23.091 -16.292  0.00  0.00    +0.003 C 
ATOM      7  C   UNL     1      34.315 -23.163 -16.944  0.00  0.00    -0.004 C 
ATOM      8  C   UNL     1      32.967 -23.041 -17.282  0.00  0.00    -0.000 C 
ATOM      9  C   UNL     1      31.357 -23.316 -13.949  0.00  0.00    +0.003 C 
ATOM     10  C   UNL     1      30.611 -22.970 -16.614  0.00  0.00    +0.037 C 
ATOM     11  C   UNL     1      29.637 -23.021 -15.617  0.00  0.00    +0.139 C 
ATOM     12  C   UNL     1      30.009 -23.194 -14.287  0.00  0.00    +0.037 C 
BRANCH  11  13
ATOM     13  O   UNL     1      28.321 -22.902 -15.946  0.00  0.00    -0.471 OA
ATOM     14  C   UNL     1      27.960 -23.205 -17.293  0.00  0.00    +0.252 C 
ENDBRANCH  11  13
ENDBRANCH   1   3
BRANCH   1  16
ATOM     15  O   UNL     1      35.917 -25.883 -15.543  0.00  0.00    -0.250 OA
ATOM     16  C   UNL     1      36.615 -24.922 -15.242  0.00  0.00    +0.321 C 
BRANCH  16  17
ATOM     17  O   UNL     1      37.933 -24.983 -14.881  0.00  0.00    -0.448 OA
BRANCH  17  18
ATOM     18  C   UNL     1      38.287 -26.067 -14.017  0.00  0.00    +0.209 C 
BRANCH  18  19
ATOM     19  C   UNL     1      37.949 -25.683 -12.582  0.00  0.00    +0.051 C 
BRANCH  19  20
ATOM     20  C   UNL     1      38.557 -24.338 -12.203  0.00  0.00    +0.054 C 
BRANCH  20  21
ATOM     21  C   UNL     1      37.487 -23.329 -11.808  0.00  0.00    +0.243 C 
BRANCH  21  22
ATOM     22  O   UNL     1      36.939 -23.707 -10.553  0.00  0.00    -0.336 OA
BRANCH  22  25
ATOM     23  O   UNL     1      35.011 -23.845 -11.634  0.00  0.00    -0.090 OA
ATOM     24  O   UNL     1      35.265 -25.025  -9.759  0.00  0.00    -0.090 OA
ATOM     25  N   UNL     1      35.626 -24.246 -10.645  0.00  0.00    +0.218 N 
ENDBRANCH  22  25
ENDBRANCH  21  22
ENDBRANCH  20  21
ENDBRANCH  19  20
ENDBRANCH  18  19
ENDBRANCH  17  18
ENDBRANCH  16  17
ENDBRANCH   1  16
TORSDOF 10
ENDMDL
MODEL 6
REMARK VINA RESULT:      -9.5      2.417      4.615
REMARK  Name = 9884642
REMARK  10 active torsions:
REMARK  status: ('A' for Active; 'I' for Inactive)
REMARK    1  A    between atoms: C_1  and  C_3
REMARK    2  A    between atoms: C_1  and  C_16
REMARK    3  A    between atoms: C_11  and  O_13
REMARK    4  A    between atoms: C_16  and  O_17
REMARK    5  A    between atoms: O_17  and  C_18
REMARK    6  A    between atoms: C_18  and  C_19
REMARK    7  A    between atoms: C_19  and  C_20
REMARK    8  A    between atoms: C_20  and  C_21
REMARK    9  A    between atoms: C_21  and  O_22
REMARK   10  A    between atoms: O_22  and  N_25
REMARK                            x       y       z     vdW  Elec       q    Type
REMARK                         _______ _______ _______ _____ _____    ______ ____
ROOT
ATOM      1  C   UNL     1      34.667 -20.544 -20.798  0.00  0.00    +0.121 C 
ATOM      2  C   UNL     1      33.404 -20.784 -19.944  0.00  0.00    +0.016 C 
ENDROOT
BRANCH   1   3
ATOM      3  C   UNL     1      34.632 -19.263 -21.562  0.00  0.00    -0.012 C 
ATOM      4  C   UNL     1      34.253 -16.861 -21.621  0.00  0.00    -0.000 C 
ATOM      5  C   UNL     1      34.292 -18.075 -20.916  0.00  0.00    -0.004 C 
ATOM      6  C   UNL     1      34.565 -16.854 -23.002  0.00  0.00    +0.003 C 
ATOM      7  C   UNL     1      34.939 -19.256 -22.920  0.00  0.00    -0.004 C 
ATOM      8  C   UNL     1      34.906 -18.059 -23.636  0.00  0.00    -0.000 C 
ATOM      9  C   UNL     1      33.913 -15.656 -20.987  0.00  0.00    +0.003 C 
ATOM     10  C   UNL     1      34.527 -15.639 -23.708  0.00  0.00    +0.037 C 
ATOM     11  C   UNL     1      34.186 -14.451 -23.061  0.00  0.00    +0.139 C 
ATOM     12  C   UNL     1      33.880 -14.459 -21.704  0.00  0.00    +0.037 C 
BRANCH  11  13
ATOM     13  O   UNL     1      34.154 -13.283 -23.760  0.00  0.00    -0.471 OA
ATOM     14  C   UNL     1      33.409 -13.275 -24.976  0.00  0.00    +0.252 C 
ENDBRANCH  11  13
ENDBRANCH   1   3
BRANCH   1  16
ATOM     15  O   UNL     1      36.859 -19.907 -19.929  0.00  0.00    -0.250 OA
ATOM     16  C   UNL     1      35.902 -20.670 -19.896  0.00  0.00    +0.321 C 
BRANCH  16  17
ATOM     17  O   UNL     1      35.762 -21.728 -19.040  0.00  0.00    -0.448 OA
BRANCH  17  18
ATOM     18  C   UNL     1      36.694 -21.772 -17.954  0.00  0.00    +0.209 C 
BRANCH  18  19
ATOM     19  C   UNL     1      36.056 -22.513 -16.787  0.00  0.00    +0.051 C 
BRANCH  19  20
ATOM     20  C   UNL     1      37.106 -23.119 -15.865  0.00  0.00    +0.054 C 
BRANCH  20  21
ATOM     21  C   UNL     1      36.477 -24.027 -14.817  0.00  0.00    +0.243 C 
BRANCH  21  22
ATOM     22  O   UNL     1      35.927 -25.166 -15.464  0.00  0.00    -0.336 OA
BRANCH  22  25
ATOM     23  O   UNL     1      37.320 -26.356 -14.221  0.00  0.00    -0.090 OA
ATOM     24  O   UNL     1      36.645 -27.204 -16.170  0.00  0.00    -0.090 OA
ATOM     25  N   UNL     1      36.693 -26.350 -15.281  0.00  0.00    +0.218 N 
ENDBRANCH  22  25
ENDBRANCH  21  22
ENDBRANCH  20  21
ENDBRANCH  19  20
ENDBRANCH  18  19
ENDBRANCH  17  18
ENDBRANCH  16  17
ENDBRANCH   1  16
TORSDOF 10
ENDMDL
MODEL 7
REMARK VINA RESULT:      -9.5      4.411     10.593
REMARK  Name = 9884642
REMARK  10 active torsions:
REMARK  status: ('A' for Active; 'I' for Inactive)
REMARK    1  A    between atoms: C_1  and  C_3
REMARK    2  A    between atoms: C_1  and  C_16
REMARK    3  A    between atoms: C_11  and  O_13
REMARK    4  A    between atoms: C_16  and  O_17
REMARK    5  A    between atoms: O_17  and  C_18
REMARK    6  A    between atoms: C_18  and  C_19
REMARK    7  A    between atoms: C_19  and  C_20
REMARK    8  A    between atoms: C_20  and  C_21
REMARK    9  A    between atoms: C_21  and  O_22
REMARK   10  A    between atoms: O_22  and  N_25
REMARK                            x       y       z     vdW  Elec       q    Type
REMARK                         _______ _______ _______ _____ _____    ______ ____
ROOT
ATOM      1  C   UNL     1      34.308 -18.363 -22.817  0.00  0.00    +0.121 C 
ATOM      2  C   UNL     1      35.060 -18.903 -24.052  0.00  0.00    +0.016 C 
ENDROOT
BRANCH   1   3
ATOM      3  C   UNL     1      34.268 -19.327 -21.680  0.00  0.00    -0.012 C 
ATOM      4  C   UNL     1      35.429 -20.615 -19.974  0.00  0.00    -0.000 C 
ATOM      5  C   UNL     1      35.450 -19.707 -21.046  0.00  0.00    -0.004 C 
ATOM      6  C   UNL     1      34.190 -21.142 -19.539  0.00  0.00    +0.003 C 
ATOM      7  C   UNL     1      33.049 -19.846 -21.252  0.00  0.00    -0.004 C 
ATOM      8  C   UNL     1      33.009 -20.748 -20.188  0.00  0.00    -0.000 C 
ATOM      9  C   UNL     1      36.610 -21.009 -19.325  0.00  0.00    +0.003 C 
ATOM     10  C   UNL     1      34.169 -22.049 -18.466  0.00  0.00    +0.037 C 
ATOM     11  C   UNL     1      35.352 -22.430 -17.833  0.00  0.00    +0.139 C 
ATOM     12  C   UNL     1      36.570 -21.911 -18.261  0.00  0.00    +0.037 C 
BRANCH  11  13
ATOM     13  O   UNL     1      35.314 -23.310 -16.794  0.00  0.00    -0.471 OA
ATOM     14  C   UNL     1      36.210 -23.072 -15.710  0.00  0.00    +0.252 C 
ENDBRANCH  11  13
ENDBRANCH   1   3
BRANCH   1  16
ATOM     15  O   UNL     1      35.712 -16.387 -23.120  0.00  0.00    -0.250 OA
ATOM     16  C   UNL     1      34.908 -17.005 -22.432  0.00  0.00    +0.321 C 
BRANCH  16  17
ATOM     17  O   UNL     1      34.396 -16.577 -21.238  0.00  0.00    -0.448 OA
BRANCH  17  18
ATOM     18  C   UNL     1      34.012 -15.199 -21.188  0.00  0.00    +0.209 C 
BRANCH  18  19
ATOM     19  C   UNL     1      32.751 -15.009 -22.020  0.00  0.00    +0.051 C 
BRANCH  19  20
ATOM     20  C   UNL     1      32.805 -13.723 -22.836  0.00  0.00    +0.054 C 
BRANCH  20  21
ATOM     21  C   UNL     1      33.621 -13.897 -24.109  0.00  0.00    +0.243 C 
BRANCH  21  22
ATOM     22  O   UNL     1      32.755 -14.307 -25.158  0.00  0.00    -0.336 OA
BRANCH  22  25
ATOM     23  O   UNL     1      33.849 -16.011 -26.054  0.00  0.00    -0.090 OA
ATOM     24  O   UNL     1      33.537 -14.180 -27.289  0.00  0.00    -0.090 OA
ATOM     25  N   UNL     1      33.437 -14.870 -26.271  0.00  0.00    +0.218 N 
ENDBRANCH  22  25
ENDBRANCH  21  22
ENDBRANCH  20  21
ENDBRANCH  19  20
ENDBRANCH  18  19
ENDBRANCH  17  18
ENDBRANCH  16  17
ENDBRANCH   1  16
TORSDOF 10
ENDMDL
MODEL 8
REMARK VINA RESULT:      -9.4      4.236      7.826
REMARK  Name = 9884642
REMARK  10 active torsions:
REMARK  status: ('A' for Active; 'I' for Inactive)
REMARK    1  A    between atoms: C_1  and  C_3
REMARK    2  A    between atoms: C_1  and  C_16
REMARK    3  A    between atoms: C_11  and  O_13
REMARK    4  A    between atoms: C_16  and  O_17
REMARK    5  A    between atoms: O_17  and  C_18
REMARK    6  A    between atoms: C_18  and  C_19
REMARK    7  A    between atoms: C_19  and  C_20
REMARK    8  A    between atoms: C_20  and  C_21
REMARK    9  A    between atoms: C_21  and  O_22
REMARK   10  A    between atoms: O_22  and  N_25
REMARK                            x       y       z     vdW  Elec       q    Type
REMARK                         _______ _______ _______ _____ _____    ______ ____
ROOT
ATOM      1  C   UNL     1      35.315 -18.027 -23.803  0.00  0.00    +0.121 C 
ATOM      2  C   UNL     1      34.587 -19.044 -24.708  0.00  0.00    +0.016 C 
ENDROOT
BRANCH   1   3
ATOM      3  C   UNL     1      34.542 -16.772 -23.581  0.00  0.00    -0.012 C 
ATOM      4  C   UNL     1      33.504 -15.183 -22.058  0.00  0.00    -0.000 C 
ATOM      5  C   UNL     1      34.232 -16.364 -22.284  0.00  0.00    -0.004 C 
ATOM      6  C   UNL     1      33.086 -14.406 -23.166  0.00  0.00    +0.003 C 
ATOM      7  C   UNL     1      34.131 -16.007 -24.670  0.00  0.00    -0.004 C 
ATOM      8  C   UNL     1      33.408 -14.832 -24.464  0.00  0.00    -0.000 C 
ATOM      9  C   UNL     1      33.183 -14.758 -20.760  0.00  0.00    +0.003 C 
ATOM     10  C   UNL     1      32.359 -13.226 -22.940  0.00  0.00    +0.037 C 
ATOM     11  C   UNL     1      32.048 -12.819 -21.642  0.00  0.00    +0.139 C 
ATOM     12  C   UNL     1      32.459 -13.583 -20.554  0.00  0.00    +0.037 C 
BRANCH  11  13
ATOM     13  O   UNL     1      31.343 -11.672 -21.441  0.00  0.00    -0.471 OA
ATOM     14  C   UNL     1      31.278 -11.177 -20.104  0.00  0.00    +0.252 C 
ENDBRANCH  11  13
ENDBRANCH   1   3
BRANCH   1  16
ATOM     15  O   UNL     1      36.685 -18.420 -21.820  0.00  0.00    -0.250 OA
ATOM     16  C   UNL     1      35.711 -18.727 -22.497  0.00  0.00    +0.321 C 
BRANCH  16  17
ATOM     17  O   UNL     1      34.811 -19.709 -22.188  0.00  0.00    -0.448 OA
BRANCH  17  18
ATOM     18  C   UNL     1      34.649 -19.983 -20.792  0.00  0.00    +0.209 C 
BRANCH  18  19
ATOM     19  C   UNL     1      33.163 -20.109 -20.484  0.00  0.00    +0.051 C 
BRANCH  19  20
ATOM     20  C   UNL     1      32.890 -21.224 -19.482  0.00  0.00    +0.054 C 
BRANCH  20  21
ATOM     21  C   UNL     1      34.115 -22.102 -19.270  0.00  0.00    +0.243 C 
BRANCH  21  22
ATOM     22  O   UNL     1      33.697 -23.359 -18.756  0.00  0.00    -0.336 OA
BRANCH  22  25
ATOM     23  O   UNL     1      34.777 -23.436 -16.825  0.00  0.00    -0.090 OA
ATOM     24  O   UNL     1      32.548 -23.415 -16.795  0.00  0.00    -0.090 OA
ATOM     25  N   UNL     1      33.657 -23.408 -17.335  0.00  0.00    +0.218 N 
ENDBRANCH  22  25
ENDBRANCH  21  22
ENDBRANCH  20  21
ENDBRANCH  19  20
ENDBRANCH  18  19
ENDBRANCH  17  18
ENDBRANCH  16  17
ENDBRANCH   1  16
TORSDOF 10
ENDMDL
MODEL 9
REMARK VINA RESULT:      -9.3      1.274      2.117
REMARK  Name = 9884642
REMARK  10 active torsions:
REMARK  status: ('A' for Active; 'I' for Inactive)
REMARK    1  A    between atoms: C_1  and  C_3
REMARK    2  A    between atoms: C_1  and  C_16
REMARK    3  A    between atoms: C_11  and  O_13
REMARK    4  A    between atoms: C_16  and  O_17
REMARK    5  A    between atoms: O_17  and  C_18
REMARK    6  A    between atoms: C_18  and  C_19
REMARK    7  A    between atoms: C_19  and  C_20
REMARK    8  A    between atoms: C_20  and  C_21
REMARK    9  A    between atoms: C_21  and  O_22
REMARK   10  A    between atoms: O_22  and  N_25
REMARK                            x       y       z     vdW  Elec       q    Type
REMARK                         _______ _______ _______ _____ _____    ______ ____
ROOT
ATOM      1  C   UNL     1      34.670 -22.761 -18.233  0.00  0.00    +0.121 C 
ATOM      2  C   UNL     1      33.359 -23.247 -17.578  0.00  0.00    +0.016 C 
ENDROOT
BRANCH   1   3
ATOM      3  C   UNL     1      34.473 -21.635 -19.190  0.00  0.00    -0.012 C 
ATOM      4  C   UNL     1      35.409 -19.943 -20.666  0.00  0.00    -0.000 C 
ATOM      5  C   UNL     1      35.578 -21.006 -19.763  0.00  0.00    -0.004 C 
ATOM      6  C   UNL     1      34.100 -19.514 -20.992  0.00  0.00    +0.003 C 
ATOM      7  C   UNL     1      33.186 -21.213 -19.511  0.00  0.00    -0.004 C 
ATOM      8  C   UNL     1      33.000 -20.159 -20.406  0.00  0.00    -0.000 C 
ATOM      9  C   UNL     1      36.510 -19.298 -21.252  0.00  0.00    +0.003 C 
ATOM     10  C   UNL     1      33.932 -18.451 -21.895  0.00  0.00    +0.037 C 
ATOM     11  C   UNL     1      35.037 -17.822 -22.468  0.00  0.00    +0.139 C 
ATOM     12  C   UNL     1      36.324 -18.245 -22.147  0.00  0.00    +0.037 C 
BRANCH  11  13
ATOM     13  O   UNL     1      34.856 -16.794 -23.342  0.00  0.00    -0.471 OA
ATOM     14  C   UNL     1      34.803 -17.124 -24.729  0.00  0.00    +0.252 C 
ENDBRANCH  11  13
ENDBRANCH   1   3
BRANCH   1  16
ATOM     15  O   UNL     1      36.717 -21.808 -17.303  0.00  0.00    -0.250 OA
ATOM     16  C   UNL     1      35.682 -22.438 -17.126  0.00  0.00    +0.321 C 
BRANCH  16  17
ATOM     17  O   UNL     1      35.247 -22.925 -15.924  0.00  0.00    -0.448 OA
BRANCH  17  18
ATOM     18  C   UNL     1      36.196 -23.714 -15.197  0.00  0.00    +0.209 C 
BRANCH  18  19
ATOM     19  C   UNL     1      35.747 -25.169 -15.222  0.00  0.00    +0.051 C 
BRANCH  19  20
ATOM     20  C   UNL     1      36.914 -26.121 -14.987  0.00  0.00    +0.054 C 
BRANCH  20  21
ATOM     21  C   UNL     1      38.198 -25.368 -14.666  0.00  0.00    +0.243 C 
BRANCH  21  22
ATOM     22  O   UNL     1      39.301 -26.095 -15.189  0.00  0.00    -0.336 OA
BRANCH  22  25
ATOM     23  O   UNL     1      40.776 -24.644 -14.400  0.00  0.00    -0.090 OA
ATOM     24  O   UNL     1      41.165 -26.821 -14.109  0.00  0.00    -0.090 OA
ATOM     25  N   UNL     1      40.522 -25.845 -14.504  0.00  0.00    +0.218 N 
ENDBRANCH  22  25
ENDBRANCH  21  22
ENDBRANCH  20  21
ENDBRANCH  19  20
ENDBRANCH  18  19
ENDBRANCH  17  18
ENDBRANCH  16  17
ENDBRANCH   1  16
TORSDOF 10
ENDMDL
