MODEL 1
REMARK VINA RESULT:     -10.8      0.000      0.000
REMARK  Name = 56339
REMARK  7 active torsions:
REMARK  status: ('A' for Active; 'I' for Inactive)
REMARK    1  A    between atoms: N_4  and  C_21
REMARK    2  A    between atoms: C_5  and  C_9
REMARK    3  A    between atoms: C_5  and  C_15
REMARK    4  A    between atoms: C_21  and  O_22
REMARK    5  A    between atoms: O_22  and  P_23
REMARK    6  A    between atoms: P_23  and  O_25
REMARK    7  A    between atoms: P_23  and  O_27
REMARK                            x       y       z     vdW  Elec       q    Type
REMARK                         _______ _______ _______ _____ _____    ______ ____
ROOT
ATOM      1  O   UNL     1      35.359 -25.955 -15.769  0.00  0.00    -0.272 OA
ATOM      2  O   UNL     1      37.169 -23.370 -12.432  0.00  0.00    -0.252 OA
ATOM      3  N   UNL     1      35.469 -22.986 -13.974  0.00  0.00    -0.277 N 
ATOM      4  N   UNL     1      36.483 -24.963 -13.996  0.00  0.00    -0.185 N 
ATOM      5  C   UNL     1      34.771 -23.675 -15.057  0.00  0.00    +0.166 C 
ATOM      6  C   UNL     1      35.549 -25.012 -15.009  0.00  0.00    +0.258 C 
ATOM      7  C   UNL     1      36.462 -23.744 -13.359  0.00  0.00    +0.312 C 
ATOM      8  H   UNL     1      35.256 -22.063 -13.704  0.00  0.00    +0.152 HD
ENDROOT
BRANCH   5   9
ATOM      9  C   UNL     1      34.991 -23.029 -16.431  0.00  0.00    +0.006 C 
ATOM     10  C   UNL     1      33.989 -23.091 -17.403  0.00  0.00    -0.002 C 
ATOM     11  C   UNL     1      36.193 -22.379 -16.717  0.00  0.00    -0.002 C 
ATOM     12  C   UNL     1      34.188 -22.505 -18.653  0.00  0.00    -0.000 C 
ATOM     13  C   UNL     1      36.392 -21.793 -17.966  0.00  0.00    -0.000 C 
ATOM     14  C   UNL     1      35.390 -21.855 -18.933  0.00  0.00    -0.000 C 
ENDBRANCH   5   9
BRANCH   5  15
ATOM     15  C   UNL     1      33.293 -23.788 -14.671  0.00  0.00    +0.006 C 
ATOM     16  C   UNL     1      32.832 -24.913 -13.984  0.00  0.00    -0.002 C 
ATOM     17  C   UNL     1      32.402 -22.766 -15.003  0.00  0.00    -0.002 C 
ATOM     18  C   UNL     1      31.486 -25.016 -13.632  0.00  0.00    -0.000 C 
ATOM     19  C   UNL     1      31.056 -22.869 -14.651  0.00  0.00    -0.000 C 
ATOM     20  C   UNL     1      30.598 -23.993 -13.966  0.00  0.00    -0.000 C 
ENDBRANCH   5  15
BRANCH   4  21
ATOM     21  C   UNL     1      37.382 -26.053 -13.672  0.00  0.00    +0.260 C 
BRANCH  21  22
ATOM     22  O   UNL     1      38.280 -26.242 -14.750  0.00  0.00    -0.251 OA
BRANCH  22  23
ATOM     23  P   UNL     1      39.643 -25.373 -14.777  0.00  0.00    +0.475 P 
ATOM     24  O   UNL     1      40.869 -26.105 -15.239  0.00  0.00    -0.227 OA
BRANCH  23  25
ATOM     25  O   UNL     1      39.254 -24.078 -15.666  0.00  0.00    -0.303 OA
ATOM     26  H   UNL     1      39.143 -24.342 -16.591  0.00  0.00    +0.222 HD
ENDBRANCH  23  25
BRANCH  23  27
ATOM     27  O   UNL     1      39.730 -24.773 -13.278  0.00  0.00    -0.303 OA
ATOM     28  H   UNL     1      39.696 -25.499 -12.636  0.00  0.00    +0.222 HD
ENDBRANCH  23  27
ENDBRANCH  22  23
ENDBRANCH  21  22
ENDBRANCH   4  21
TORSDOF 7
ENDMDL
MODEL 2
REMARK VINA RESULT:      -9.4      0.953      4.048
REMARK  Name = 56339
REMARK  7 active torsions:
REMARK  status: ('A' for Active; 'I' for Inactive)
REMARK    1  A    between atoms: N_4  and  C_21
REMARK    2  A    between atoms: C_5  and  C_9
REMARK    3  A    between atoms: C_5  and  C_15
REMARK    4  A    between atoms: C_21  and  O_22
REMARK    5  A    between atoms: O_22  and  P_23
REMARK    6  A    between atoms: P_23  and  O_25
REMARK    7  A    between atoms: P_23  and  O_27
REMARK                            x       y       z     vdW  Elec       q    Type
REMARK                         _______ _______ _______ _____ _____    ______ ____
ROOT
ATOM      1  O   UNL     1      35.880 -23.043 -13.367  0.00  0.00    -0.272 OA
ATOM      2  O   UNL     1      36.517 -27.290 -14.997  0.00  0.00    -0.252 OA
ATOM      3  N   UNL     1      35.082 -25.566 -15.614  0.00  0.00    -0.277 N 
ATOM      4  N   UNL     1      36.493 -25.210 -13.935  0.00  0.00    -0.185 N 
ATOM      5  C   UNL     1      34.766 -24.190 -15.236  0.00  0.00    +0.166 C 
ATOM      6  C   UNL     1      35.768 -24.044 -14.067  0.00  0.00    +0.258 C 
ATOM      7  C   UNL     1      36.091 -26.151 -14.854  0.00  0.00    +0.312 C 
ATOM      8  H   UNL     1      34.619 -26.039 -16.343  0.00  0.00    +0.152 HD
ENDROOT
BRANCH   5   9
ATOM      9  C   UNL     1      33.343 -24.022 -14.686  0.00  0.00    +0.006 C 
ATOM     10  C   UNL     1      32.757 -25.042 -13.935  0.00  0.00    -0.002 C 
ATOM     11  C   UNL     1      32.628 -22.848 -14.937  0.00  0.00    -0.002 C 
ATOM     12  C   UNL     1      31.463 -24.890 -13.435  0.00  0.00    -0.000 C 
ATOM     13  C   UNL     1      31.336 -22.696 -14.438  0.00  0.00    -0.000 C 
ATOM     14  C   UNL     1      30.753 -23.716 -13.686  0.00  0.00    -0.000 C 
ENDBRANCH   5   9
BRANCH   5  15
ATOM     15  C   UNL     1      35.060 -23.290 -16.439  0.00  0.00    +0.006 C 
ATOM     16  C   UNL     1      36.256 -22.572 -16.502  0.00  0.00    -0.002 C 
ATOM     17  C   UNL     1      34.134 -23.183 -17.478  0.00  0.00    -0.002 C 
ATOM     18  C   UNL     1      36.524 -21.751 -17.598  0.00  0.00    -0.000 C 
ATOM     19  C   UNL     1      34.402 -22.362 -18.574  0.00  0.00    -0.000 C 
ATOM     20  C   UNL     1      35.596 -21.647 -18.634  0.00  0.00    -0.000 C 
ENDBRANCH   5  15
BRANCH   4  21
ATOM     21  C   UNL     1      37.524 -25.412 -12.936  0.00  0.00    +0.260 C 
BRANCH  21  22
ATOM     22  O   UNL     1      38.655 -24.635 -13.282  0.00  0.00    -0.251 OA
BRANCH  22  23
ATOM     23  P   UNL     1      39.616 -25.161 -14.472  0.00  0.00    +0.475 P 
ATOM     24  O   UNL     1      39.602 -26.644 -14.708  0.00  0.00    -0.227 OA
BRANCH  23  25
ATOM     25  O   UNL     1      39.173 -24.269 -15.747  0.00  0.00    -0.303 OA
ATOM     26  H   UNL     1      39.766 -23.506 -15.829  0.00  0.00    +0.222 HD
ENDBRANCH  23  25
BRANCH  23  27
ATOM     27  O   UNL     1      41.060 -24.546 -14.081  0.00  0.00    -0.303 OA
ATOM     28  H   UNL     1      40.948 -23.637 -13.762  0.00  0.00    +0.222 HD
ENDBRANCH  23  27
ENDBRANCH  22  23
ENDBRANCH  21  22
ENDBRANCH   4  21
TORSDOF 7
ENDMDL
MODEL 3
REMARK VINA RESULT:      -8.7      2.069      4.777
REMARK  Name = 56339
REMARK  7 active torsions:
REMARK  status: ('A' for Active; 'I' for Inactive)
REMARK    1  A    between atoms: N_4  and  C_21
REMARK    2  A    between atoms: C_5  and  C_9
REMARK    3  A    between atoms: C_5  and  C_15
REMARK    4  A    between atoms: C_21  and  O_22
REMARK    5  A    between atoms: O_22  and  P_23
REMARK    6  A    between atoms: P_23  and  O_25
REMARK    7  A    between atoms: P_23  and  O_27
REMARK                            x       y       z     vdW  Elec       q    Type
REMARK                         _______ _______ _______ _____ _____    ______ ____
ROOT
ATOM      1  O   UNL     1      35.467 -22.302 -14.268  0.00  0.00    -0.272 OA
ATOM      2  O   UNL     1      36.168 -26.672 -15.497  0.00  0.00    -0.252 OA
ATOM      3  N   UNL     1      34.792 -24.998 -16.347  0.00  0.00    -0.277 N 
ATOM      4  N   UNL     1      36.094 -24.511 -14.614  0.00  0.00    -0.185 N 
ATOM      5  C   UNL     1      34.466 -23.595 -16.105  0.00  0.00    +0.166 C 
ATOM      6  C   UNL     1      35.391 -23.357 -14.889  0.00  0.00    +0.258 C 
ATOM      7  C   UNL     1      35.744 -25.523 -15.477  0.00  0.00    +0.312 C 
ATOM      8  H   UNL     1      34.374 -25.528 -17.064  0.00  0.00    +0.152 HD
ENDROOT
BRANCH   5   9
ATOM      9  C   UNL     1      33.012 -23.376 -15.666  0.00  0.00    +0.006 C 
ATOM     10  C   UNL     1      32.675 -23.418 -14.312  0.00  0.00    -0.002 C 
ATOM     11  C   UNL     1      32.020 -23.134 -16.619  0.00  0.00    -0.002 C 
ATOM     12  C   UNL     1      31.354 -23.219 -13.911  0.00  0.00    -0.000 C 
ATOM     13  C   UNL     1      30.699 -22.935 -16.220  0.00  0.00    -0.000 C 
ATOM     14  C   UNL     1      30.366 -22.977 -14.866  0.00  0.00    -0.000 C 
ENDBRANCH   5   9
BRANCH   5  15
ATOM     15  C   UNL     1      34.846 -22.798 -17.356  0.00  0.00    +0.006 C 
ATOM     16  C   UNL     1      36.102 -22.192 -17.447  0.00  0.00    -0.002 C 
ATOM     17  C   UNL     1      33.941 -22.675 -18.412  0.00  0.00    -0.002 C 
ATOM     18  C   UNL     1      36.449 -21.467 -18.587  0.00  0.00    -0.000 C 
ATOM     19  C   UNL     1      34.288 -21.949 -19.552  0.00  0.00    -0.000 C 
ATOM     20  C   UNL     1      35.541 -21.345 -19.639  0.00  0.00    -0.000 C 
ENDBRANCH   5  15
BRANCH   4  21
ATOM     21  C   UNL     1      37.056 -24.634 -13.536  0.00  0.00    +0.260 C 
BRANCH  21  22
ATOM     22  O   UNL     1      36.378 -25.039 -12.362  0.00  0.00    -0.251 OA
BRANCH  22  23
ATOM     23  P   UNL     1      35.996 -23.911 -11.267  0.00  0.00    +0.475 P 
ATOM     24  O   UNL     1      36.155 -24.321  -9.832  0.00  0.00    -0.227 OA
BRANCH  23  25
ATOM     25  O   UNL     1      36.883 -22.632 -11.707  0.00  0.00    -0.303 OA
ATOM     26  H   UNL     1      36.297 -21.917 -12.000  0.00  0.00    +0.222 HD
ENDBRANCH  23  25
BRANCH  23  27
ATOM     27  O   UNL     1      34.497 -23.477 -11.691  0.00  0.00    -0.303 OA
ATOM     28  H   UNL     1      34.540 -22.788 -12.372  0.00  0.00    +0.222 HD
ENDBRANCH  23  27
ENDBRANCH  22  23
ENDBRANCH  21  22
ENDBRANCH   4  21
TORSDOF 7
ENDMDL
MODEL 4
REMARK VINA RESULT:      -7.8      1.547      2.088
REMARK  Name = 56339
REMARK  7 active torsions:
REMARK  status: ('A' for Active; 'I' for Inactive)
REMARK    1  A    between atoms: N_4  and  C_21
REMARK    2  A    between atoms: C_5  and  C_9
REMARK    3  A    between atoms: C_5  and  C_15
REMARK    4  A    between atoms: C_21  and  O_22
REMARK    5  A    between atoms: O_22  and  P_23
REMARK    6  A    between atoms: P_23  and  O_25
REMARK    7  A    between atoms: P_23  and  O_27
REMARK                            x       y       z     vdW  Elec       q    Type
REMARK                         _______ _______ _______ _____ _____    ______ ____
ROOT
ATOM      1  O   UNL     1      35.576 -25.579 -16.122  0.00  0.00    -0.272 OA
ATOM      2  O   UNL     1      37.506 -22.439 -13.380  0.00  0.00    -0.252 OA
ATOM      3  N   UNL     1      35.562 -22.431 -14.660  0.00  0.00    -0.277 N 
ATOM      4  N   UNL     1      36.810 -24.269 -14.654  0.00  0.00    -0.185 N 
ATOM      5  C   UNL     1      34.808 -23.314 -15.546  0.00  0.00    +0.166 C 
ATOM      6  C   UNL     1      35.751 -24.539 -15.496  0.00  0.00    +0.258 C 
ATOM      7  C   UNL     1      36.725 -22.995 -14.142  0.00  0.00    +0.312 C 
ATOM      8  H   UNL     1      35.273 -21.513 -14.448  0.00  0.00    +0.152 HD
ENDROOT
BRANCH   5   9
ATOM      9  C   UNL     1      34.737 -22.809 -16.993  0.00  0.00    +0.006 C 
ATOM     10  C   UNL     1      33.587 -23.026 -17.755  0.00  0.00    -0.002 C 
ATOM     11  C   UNL     1      35.822 -22.132 -17.554  0.00  0.00    -0.002 C 
ATOM     12  C   UNL     1      33.521 -22.567 -19.071  0.00  0.00    -0.000 C 
ATOM     13  C   UNL     1      35.757 -21.674 -18.869  0.00  0.00    -0.000 C 
ATOM     14  C   UNL     1      34.607 -21.891 -19.627  0.00  0.00    -0.000 C 
ENDBRANCH   5   9
BRANCH   5  15
ATOM     15  C   UNL     1      33.430 -23.549 -14.919  0.00  0.00    +0.006 C 
ATOM     16  C   UNL     1      33.189 -24.702 -14.167  0.00  0.00    -0.002 C 
ATOM     17  C   UNL     1      32.410 -22.613 -15.096  0.00  0.00    -0.002 C 
ATOM     18  C   UNL     1      31.934 -24.916 -13.596  0.00  0.00    -0.000 C 
ATOM     19  C   UNL     1      31.155 -22.827 -14.525  0.00  0.00    -0.000 C 
ATOM     20  C   UNL     1      30.918 -23.978 -13.775  0.00  0.00    -0.000 C 
ENDBRANCH   5  15
BRANCH   4  21
ATOM     21  C   UNL     1      37.881 -25.205 -14.376  0.00  0.00    +0.260 C 
BRANCH  21  22
ATOM     22  O   UNL     1      37.395 -26.211 -13.506  0.00  0.00    -0.251 OA
BRANCH  22  23
ATOM     23  P   UNL     1      37.011 -25.798 -11.991  0.00  0.00    +0.475 P 
ATOM     24  O   UNL     1      35.641 -25.214 -11.806  0.00  0.00    -0.227 OA
BRANCH  23  25
ATOM     25  O   UNL     1      37.292 -27.147 -11.142  0.00  0.00    -0.303 OA
ATOM     26  H   UNL     1      38.239 -27.216 -10.949  0.00  0.00    +0.222 HD
ENDBRANCH  23  25
BRANCH  23  27
ATOM     27  O   UNL     1      38.231 -24.831 -11.551  0.00  0.00    -0.303 OA
ATOM     28  H   UNL     1      38.935 -24.875 -12.216  0.00  0.00    +0.222 HD
ENDBRANCH  23  27
ENDBRANCH  22  23
ENDBRANCH  21  22
ENDBRANCH   4  21
TORSDOF 7
ENDMDL
