MODEL 1
REMARK VINA RESULT:      -4.2      0.000      0.000
REMARK  Name = 8150
REMARK  6 active torsions:
REMARK  status: ('A' for Active; 'I' for Inactive)
REMARK    1  A    between atoms: O_1  and  C_2
REMARK    2  A    between atoms: O_1  and  C_6
REMARK    3  A    between atoms: C_2  and  C_3
REMARK    4  A    between atoms: C_3  and  O_4
REMARK    5  A    between atoms: C_6  and  C_7
REMARK    6  A    between atoms: C_7  and  O_8
REMARK                            x       y       z     vdW  Elec       q    Type
REMARK                         _______ _______ _______ _____ _____    ______ ____
ROOT
ATOM      1  O   UNL     1      35.224 -15.614 -23.397  0.00  0.00    -0.348 OA
ENDROOT
BRANCH   1   2
ATOM      2  C   UNL     1      34.007 -15.379 -24.095  0.00  0.00    +0.174 C 
BRANCH   2   3
ATOM      3  C   UNL     1      33.944 -16.293 -25.303  0.00  0.00    +0.174 C 
BRANCH   3   4
ATOM      4  O   UNL     1      33.737 -15.506 -26.470  0.00  0.00    -0.348 OA
ATOM      5  C   UNL     1      32.789 -14.474 -26.242  0.00  0.00    +0.174 C 
ENDBRANCH   3   4
ENDBRANCH   2   3
ENDBRANCH   1   2
BRANCH   1   6
ATOM      6  C   UNL     1      35.252 -16.913 -22.823  0.00  0.00    +0.174 C 
BRANCH   6   7
ATOM      7  C   UNL     1      34.698 -16.842 -21.412  0.00  0.00    +0.174 C 
BRANCH   7   8
ATOM      8  O   UNL     1      35.492 -17.659 -20.561  0.00  0.00    -0.348 OA
ATOM      9  C   UNL     1      36.056 -18.755 -21.269  0.00  0.00    +0.174 C 
ENDBRANCH   7   8
ENDBRANCH   6   7
ENDBRANCH   1   6
TORSDOF 6
ENDMDL
MODEL 2
REMARK VINA RESULT:      -4.2      1.411      1.918
REMARK  Name = 8150
REMARK  6 active torsions:
REMARK  status: ('A' for Active; 'I' for Inactive)
REMARK    1  A    between atoms: O_1  and  C_2
REMARK    2  A    between atoms: O_1  and  C_6
REMARK    3  A    between atoms: C_2  and  C_3
REMARK    4  A    between atoms: C_3  and  O_4
REMARK    5  A    between atoms: C_6  and  C_7
REMARK    6  A    between atoms: C_7  and  O_8
REMARK                            x       y       z     vdW  Elec       q    Type
REMARK                         _______ _______ _______ _____ _____    ______ ____
ROOT
ATOM      1  O   UNL     1      35.423 -18.555 -24.004  0.00  0.00    -0.348 OA
ENDROOT
BRANCH   1   2
ATOM      2  C   UNL     1      34.464 -18.103 -24.952  0.00  0.00    +0.174 C 
BRANCH   2   3
ATOM      3  C   UNL     1      34.556 -16.594 -25.069  0.00  0.00    +0.174 C 
BRANCH   3   4
ATOM      4  O   UNL     1      33.810 -16.169 -26.203  0.00  0.00    -0.348 OA
ATOM      5  C   UNL     1      33.102 -14.966 -25.939  0.00  0.00    +0.174 C 
ENDBRANCH   3   4
ENDBRANCH   2   3
ENDBRANCH   1   2
BRANCH   1   6
ATOM      6  C   UNL     1      34.854 -18.686 -22.709  0.00  0.00    +0.174 C 
BRANCH   6   7
ATOM      7  C   UNL     1      35.950 -18.543 -21.671  0.00  0.00    +0.174 C 
BRANCH   7   8
ATOM      8  O   UNL     1      35.482 -17.712 -20.616  0.00  0.00    -0.348 OA
ATOM      9  C   UNL     1      34.812 -16.563 -21.116  0.00  0.00    +0.174 C 
ENDBRANCH   7   8
ENDBRANCH   6   7
ENDBRANCH   1   6
TORSDOF 6
ENDMDL
MODEL 3
REMARK VINA RESULT:      -4.2      0.609      5.112
REMARK  Name = 8150
REMARK  6 active torsions:
REMARK  status: ('A' for Active; 'I' for Inactive)
REMARK    1  A    between atoms: O_1  and  C_2
REMARK    2  A    between atoms: O_1  and  C_6
REMARK    3  A    between atoms: C_2  and  C_3
REMARK    4  A    between atoms: C_3  and  O_4
REMARK    5  A    between atoms: C_6  and  C_7
REMARK    6  A    between atoms: C_7  and  O_8
REMARK                            x       y       z     vdW  Elec       q    Type
REMARK                         _______ _______ _______ _____ _____    ______ ____
ROOT
ATOM      1  O   UNL     1      35.268 -15.751 -23.154  0.00  0.00    -0.348 OA
ENDROOT
BRANCH   1   2
ATOM      2  C   UNL     1      35.312 -17.102 -22.711  0.00  0.00    +0.174 C 
BRANCH   2   3
ATOM      3  C   UNL     1      35.030 -17.145 -21.221  0.00  0.00    +0.174 C 
BRANCH   3   4
ATOM      4  O   UNL     1      35.674 -18.282 -20.658  0.00  0.00    -0.348 OA
ATOM      5  C   UNL     1      34.969 -19.479 -20.955  0.00  0.00    +0.174 C 
ENDBRANCH   3   4
ENDBRANCH   2   3
ENDBRANCH   1   2
BRANCH   1   6
ATOM      6  C   UNL     1      34.202 -15.539 -24.068  0.00  0.00    +0.174 C 
BRANCH   6   7
ATOM      7  C   UNL     1      34.348 -16.503 -25.231  0.00  0.00    +0.174 C 
BRANCH   7   8
ATOM      8  O   UNL     1      33.608 -16.007 -26.339  0.00  0.00    -0.348 OA
ATOM      9  C   UNL     1      32.950 -14.788 -26.023  0.00  0.00    +0.174 C 
ENDBRANCH   7   8
ENDBRANCH   6   7
ENDBRANCH   1   6
TORSDOF 6
ENDMDL
MODEL 4
REMARK VINA RESULT:      -4.2     13.019     14.196
REMARK  Name = 8150
REMARK  6 active torsions:
REMARK  status: ('A' for Active; 'I' for Inactive)
REMARK    1  A    between atoms: O_1  and  C_2
REMARK    2  A    between atoms: O_1  and  C_6
REMARK    3  A    between atoms: C_2  and  C_3
REMARK    4  A    between atoms: C_3  and  O_4
REMARK    5  A    between atoms: C_6  and  C_7
REMARK    6  A    between atoms: C_7  and  O_8
REMARK                            x       y       z     vdW  Elec       q    Type
REMARK                         _______ _______ _______ _____ _____    ______ ____
ROOT
ATOM      1  O   UNL     1      38.049 -23.712 -13.806  0.00  0.00    -0.348 OA
ENDROOT
BRANCH   1   2
ATOM      2  C   UNL     1      36.894 -23.404 -13.035  0.00  0.00    +0.174 C 
BRANCH   2   3
ATOM      3  C   UNL     1      37.327 -22.940 -11.657  0.00  0.00    +0.174 C 
BRANCH   3   4
ATOM      4  O   UNL     1      36.798 -23.829 -10.680  0.00  0.00    -0.348 OA
ATOM      5  C   UNL     1      35.650 -24.511 -11.163  0.00  0.00    +0.174 C 
ENDBRANCH   3   4
ENDBRANCH   2   3
ENDBRANCH   1   2
BRANCH   1   6
ATOM      6  C   UNL     1      38.618 -24.954 -13.417  0.00  0.00    +0.174 C 
BRANCH   6   7
ATOM      7  C   UNL     1      39.174 -25.649 -14.646  0.00  0.00    +0.174 C 
BRANCH   7   8
ATOM      8  O   UNL     1      38.599 -26.945 -14.745  0.00  0.00    -0.348 OA
ATOM      9  C   UNL     1      37.179 -26.884 -14.772  0.00  0.00    +0.174 C 
ENDBRANCH   7   8
ENDBRANCH   6   7
ENDBRANCH   1   6
TORSDOF 6
ENDMDL
MODEL 5
REMARK VINA RESULT:      -4.1      3.678      5.176
REMARK  Name = 8150
REMARK  6 active torsions:
REMARK  status: ('A' for Active; 'I' for Inactive)
REMARK    1  A    between atoms: O_1  and  C_2
REMARK    2  A    between atoms: O_1  and  C_6
REMARK    3  A    between atoms: C_2  and  C_3
REMARK    4  A    between atoms: C_3  and  O_4
REMARK    5  A    between atoms: C_6  and  C_7
REMARK    6  A    between atoms: C_7  and  O_8
REMARK                            x       y       z     vdW  Elec       q    Type
REMARK                         _______ _______ _______ _____ _____    ______ ____
ROOT
ATOM      1  O   UNL     1      35.576 -19.699 -20.283  0.00  0.00    -0.348 OA
ENDROOT
BRANCH   1   2
ATOM      2  C   UNL     1      35.031 -19.204 -21.500  0.00  0.00    +0.174 C 
BRANCH   2   3
ATOM      3  C   UNL     1      35.498 -17.777 -21.709  0.00  0.00    +0.174 C 
BRANCH   3   4
ATOM      4  O   UNL     1      35.330 -17.051 -20.497  0.00  0.00    -0.348 OA
ATOM      5  C   UNL     1      34.655 -15.821 -20.716  0.00  0.00    +0.174 C 
ENDBRANCH   3   4
ENDBRANCH   2   3
ENDBRANCH   1   2
BRANCH   1   6
ATOM      6  C   UNL     1      34.969 -20.925 -19.901  0.00  0.00    +0.174 C 
BRANCH   6   7
ATOM      7  C   UNL     1      33.463 -20.792 -20.027  0.00  0.00    +0.174 C 
BRANCH   7   8
ATOM      8  O   UNL     1      32.850 -21.960 -19.495  0.00  0.00    -0.348 OA
ATOM      9  C   UNL     1      33.688 -22.601 -18.543  0.00  0.00    +0.174 C 
ENDBRANCH   7   8
ENDBRANCH   6   7
ENDBRANCH   1   6
TORSDOF 6
ENDMDL
MODEL 6
REMARK VINA RESULT:      -4.1     12.019     14.296
REMARK  Name = 8150
REMARK  6 active torsions:
REMARK  status: ('A' for Active; 'I' for Inactive)
REMARK    1  A    between atoms: O_1  and  C_2
REMARK    2  A    between atoms: O_1  and  C_6
REMARK    3  A    between atoms: C_2  and  C_3
REMARK    4  A    between atoms: C_3  and  O_4
REMARK    5  A    between atoms: C_6  and  C_7
REMARK    6  A    between atoms: C_7  and  O_8
REMARK                            x       y       z     vdW  Elec       q    Type
REMARK                         _______ _______ _______ _____ _____    ______ ____
ROOT
ATOM      1  O   UNL     1      38.637 -26.211 -13.559  0.00  0.00    -0.348 OA
ENDROOT
BRANCH   1   2
ATOM      2  C   UNL     1      37.797 -25.919 -12.449  0.00  0.00    +0.174 C 
BRANCH   2   3
ATOM      3  C   UNL     1      38.035 -24.487 -12.011  0.00  0.00    +0.174 C 
BRANCH   3   4
ATOM      4  O   UNL     1      37.111 -24.157 -10.980  0.00  0.00    -0.348 OA
ATOM      5  C   UNL     1      35.776 -24.449 -11.364  0.00  0.00    +0.174 C 
ENDBRANCH   3   4
ENDBRANCH   2   3
ENDBRANCH   1   2
BRANCH   1   6
ATOM      6  C   UNL     1      38.082 -25.724 -14.773  0.00  0.00    +0.174 C 
BRANCH   6   7
ATOM      7  C   UNL     1      36.791 -26.467 -15.060  0.00  0.00    +0.174 C 
BRANCH   7   8
ATOM      8  O   UNL     1      35.848 -25.560 -15.617  0.00  0.00    -0.348 OA
ATOM      9  C   UNL     1      36.129 -24.219 -15.237  0.00  0.00    +0.174 C 
ENDBRANCH   7   8
ENDBRANCH   6   7
ENDBRANCH   1   6
TORSDOF 6
ENDMDL
MODEL 7
REMARK VINA RESULT:      -4.1     10.479     12.468
REMARK  Name = 8150
REMARK  6 active torsions:
REMARK  status: ('A' for Active; 'I' for Inactive)
REMARK    1  A    between atoms: O_1  and  C_2
REMARK    2  A    between atoms: O_1  and  C_6
REMARK    3  A    between atoms: C_2  and  C_3
REMARK    4  A    between atoms: C_3  and  O_4
REMARK    5  A    between atoms: C_6  and  C_7
REMARK    6  A    between atoms: C_7  and  O_8
REMARK                            x       y       z     vdW  Elec       q    Type
REMARK                         _______ _______ _______ _____ _____    ______ ____
ROOT
ATOM      1  O   UNL     1      35.860 -25.931 -15.443  0.00  0.00    -0.348 OA
ENDROOT
BRANCH   1   2
ATOM      2  C   UNL     1      36.067 -24.714 -14.735  0.00  0.00    +0.174 C 
BRANCH   2   3
ATOM      3  C   UNL     1      35.426 -23.577 -15.507  0.00  0.00    +0.174 C 
BRANCH   3   4
ATOM      4  O   UNL     1      36.334 -23.123 -16.504  0.00  0.00    -0.348 OA
ATOM      5  C   UNL     1      37.542 -22.646 -15.930  0.00  0.00    +0.174 C 
ENDBRANCH   3   4
ENDBRANCH   2   3
ENDBRANCH   1   2
BRANCH   1   6
ATOM      6  C   UNL     1      36.975 -26.802 -15.317  0.00  0.00    +0.174 C 
BRANCH   6   7
ATOM      7  C   UNL     1      37.981 -26.183 -14.366  0.00  0.00    +0.174 C 
BRANCH   7   8
ATOM      8  O   UNL     1      39.283 -26.648 -14.701  0.00  0.00    -0.348 OA
ATOM      9  C   UNL     1      40.194 -25.570 -14.864  0.00  0.00    +0.174 C 
ENDBRANCH   7   8
ENDBRANCH   6   7
ENDBRANCH   1   6
TORSDOF 6
ENDMDL
MODEL 8
REMARK VINA RESULT:      -4.1      4.679      6.755
REMARK  Name = 8150
REMARK  6 active torsions:
REMARK  status: ('A' for Active; 'I' for Inactive)
REMARK    1  A    between atoms: O_1  and  C_2
REMARK    2  A    between atoms: O_1  and  C_6
REMARK    3  A    between atoms: C_2  and  C_3
REMARK    4  A    between atoms: C_3  and  O_4
REMARK    5  A    between atoms: C_6  and  C_7
REMARK    6  A    between atoms: C_7  and  O_8
REMARK                            x       y       z     vdW  Elec       q    Type
REMARK                         _______ _______ _______ _____ _____    ______ ____
ROOT
ATOM      1  O   UNL     1      32.758 -20.921 -19.403  0.00  0.00    -0.348 OA
ENDROOT
BRANCH   1   2
ATOM      2  C   UNL     1      33.018 -20.175 -20.586  0.00  0.00    +0.174 C 
BRANCH   2   3
ATOM      3  C   UNL     1      34.515 -20.130 -20.824  0.00  0.00    +0.174 C 
BRANCH   3   4
ATOM      4  O   UNL     1      34.973 -18.794 -20.650  0.00  0.00    -0.348 OA
ATOM      5  C   UNL     1      35.984 -18.464 -21.592  0.00  0.00    +0.174 C 
ENDBRANCH   3   4
ENDBRANCH   2   3
ENDBRANCH   1   2
BRANCH   1   6
ATOM      6  C   UNL     1      33.757 -21.905 -19.178  0.00  0.00    +0.174 C 
BRANCH   6   7
ATOM      7  C   UNL     1      33.304 -22.822 -18.057  0.00  0.00    +0.174 C 
BRANCH   7   8
ATOM      8  O   UNL     1      31.979 -22.472 -17.680  0.00  0.00    -0.348 OA
ATOM      9  C   UNL     1      31.599 -23.104 -16.465  0.00  0.00    +0.174 C 
ENDBRANCH   7   8
ENDBRANCH   6   7
ENDBRANCH   1   6
TORSDOF 6
ENDMDL
MODEL 9
REMARK VINA RESULT:      -4.1      1.506      5.433
REMARK  Name = 8150
REMARK  6 active torsions:
REMARK  status: ('A' for Active; 'I' for Inactive)
REMARK    1  A    between atoms: O_1  and  C_2
REMARK    2  A    between atoms: O_1  and  C_6
REMARK    3  A    between atoms: C_2  and  C_3
REMARK    4  A    between atoms: C_3  and  O_4
REMARK    5  A    between atoms: C_6  and  C_7
REMARK    6  A    between atoms: C_7  and  O_8
REMARK                            x       y       z     vdW  Elec       q    Type
REMARK                         _______ _______ _______ _____ _____    ______ ____
ROOT
ATOM      1  O   UNL     1      35.437 -18.214 -23.947  0.00  0.00    -0.348 OA
ENDROOT
BRANCH   1   2
ATOM      2  C   UNL     1      34.901 -18.962 -22.862  0.00  0.00    +0.174 C 
BRANCH   2   3
ATOM      3  C   UNL     1      34.926 -18.107 -21.610  0.00  0.00    +0.174 C 
BRANCH   3   4
ATOM      4  O   UNL     1      35.722 -18.750 -20.622  0.00  0.00    -0.348 OA
ATOM      5  C   UNL     1      35.520 -20.156 -20.626  0.00  0.00    +0.174 C 
ENDBRANCH   3   4
ENDBRANCH   2   3
ENDBRANCH   1   2
BRANCH   1   6
ATOM      6  C   UNL     1      34.442 -17.921 -24.918  0.00  0.00    +0.174 C 
BRANCH   6   7
ATOM      7  C   UNL     1      34.184 -16.427 -24.926  0.00  0.00    +0.174 C 
BRANCH   7   8
ATOM      8  O   UNL     1      33.804 -16.030 -26.238  0.00  0.00    -0.348 OA
ATOM      9  C   UNL     1      33.010 -14.851 -26.216  0.00  0.00    +0.174 C 
ENDBRANCH   7   8
ENDBRANCH   6   7
ENDBRANCH   1   6
TORSDOF 6
ENDMDL
