MODEL 1
REMARK VINA RESULT:      -4.9      0.000      0.000
REMARK  Name = 7741
REMARK  3 active torsions:
REMARK  status: ('A' for Active; 'I' for Inactive)
REMARK    1  A    between atoms: C_1  and  C_4
REMARK    2  A    between atoms: C_1  and  C_8
REMARK    3  A    between atoms: C_8  and  N_9
REMARK                            x       y       z     vdW  Elec       q    Type
REMARK                         _______ _______ _______ _____ _____    ______ ____
ROOT
ATOM      1  C   UNL     1      33.851 -19.431 -21.208  0.00  0.00    +0.019 C 
ENDROOT
BRANCH   1   4
ATOM      2  N   UNL     1      32.661 -21.038 -19.734  0.00  0.00    -0.240 N 
ATOM      3  N   UNL     1      32.833 -22.061 -18.880  0.00  0.00    -0.180 NA
ATOM      4  C   UNL     1      33.825 -20.572 -20.233  0.00  0.00    +0.042 C 
ATOM      5  C   UNL     1      34.828 -21.306 -19.696  0.00  0.00    +0.034 C 
ATOM      6  C   UNL     1      34.158 -22.219 -18.860  0.00  0.00    +0.119 C 
ATOM      7  H   UNL     1      31.780 -20.668 -19.972  0.00  0.00    +0.174 HD
ENDBRANCH   1   4
BRANCH   1   8
ATOM      8  C   UNL     1      35.257 -18.851 -21.380  0.00  0.00    -0.080 C 
BRANCH   8   9
ATOM      9  N   UNL     1      35.353 -17.523 -20.782  0.00  0.00    +0.381 N 
ATOM     10  H   UNL     1      35.986 -16.946 -21.335  0.00  0.00    -0.089 HD
ATOM     11  H   UNL     1      35.711 -17.604 -19.830  0.00  0.00    -0.089 HD
ATOM     12  H   UNL     1      34.429 -17.092 -20.762  0.00  0.00    -0.089 HD
ENDBRANCH   8   9
ENDBRANCH   1   8
TORSDOF 3
ENDMDL
MODEL 2
REMARK VINA RESULT:      -4.8      1.385      3.929
REMARK  Name = 7741
REMARK  3 active torsions:
REMARK  status: ('A' for Active; 'I' for Inactive)
REMARK    1  A    between atoms: C_1  and  C_4
REMARK    2  A    between atoms: C_1  and  C_8
REMARK    3  A    between atoms: C_8  and  N_9
REMARK                            x       y       z     vdW  Elec       q    Type
REMARK                         _______ _______ _______ _____ _____    ______ ____
ROOT
ATOM      1  C   UNL     1      33.230 -20.717 -20.182  0.00  0.00    +0.019 C 
ENDROOT
BRANCH   1   4
ATOM      2  N   UNL     1      35.648 -20.147 -20.128  0.00  0.00    -0.240 N 
ATOM      3  N   UNL     1      36.571 -19.285 -20.587  0.00  0.00    -0.180 NA
ATOM      4  C   UNL     1      34.405 -19.871 -20.577  0.00  0.00    +0.042 C 
ATOM      5  C   UNL     1      34.487 -18.777 -21.371  0.00  0.00    +0.034 C 
ATOM      6  C   UNL     1      35.856 -18.451 -21.345  0.00  0.00    +0.119 C 
ATOM      7  H   UNL     1      35.855 -20.901 -19.529  0.00  0.00    +0.174 HD
ENDBRANCH   1   4
BRANCH   1   8
ATOM      8  C   UNL     1      33.650 -21.947 -19.375  0.00  0.00    -0.080 C 
BRANCH   8   9
ATOM      9  N   UNL     1      32.609 -22.334 -18.428  0.00  0.00    +0.381 N 
ATOM     10  H   UNL     1      32.316 -21.516 -17.893  0.00  0.00    -0.089 HD
ATOM     11  H   UNL     1      32.975 -23.042 -17.791  0.00  0.00    -0.089 HD
ATOM     12  H   UNL     1      31.811 -22.712 -18.936  0.00  0.00    -0.089 HD
ENDBRANCH   8   9
ENDBRANCH   1   8
TORSDOF 3
ENDMDL
MODEL 3
REMARK VINA RESULT:      -4.5      3.767      6.253
REMARK  Name = 7741
REMARK  3 active torsions:
REMARK  status: ('A' for Active; 'I' for Inactive)
REMARK    1  A    between atoms: C_1  and  C_4
REMARK    2  A    between atoms: C_1  and  C_8
REMARK    3  A    between atoms: C_8  and  N_9
REMARK                            x       y       z     vdW  Elec       q    Type
REMARK                         _______ _______ _______ _____ _____    ______ ____
ROOT
ATOM      1  C   UNL     1      34.911 -16.206 -22.092  0.00  0.00    +0.019 C 
ENDROOT
BRANCH   1   4
ATOM      2  N   UNL     1      35.159 -16.953 -24.448  0.00  0.00    -0.240 N 
ATOM      3  N   UNL     1      34.715 -16.760 -25.702  0.00  0.00    -0.180 NA
ATOM      4  C   UNL     1      34.558 -16.146 -23.550  0.00  0.00    +0.042 C 
ATOM      5  C   UNL     1      33.671 -15.372 -24.219  0.00  0.00    +0.034 C 
ATOM      6  C   UNL     1      33.807 -15.793 -25.555  0.00  0.00    +0.119 C 
ATOM      7  H   UNL     1      35.849 -17.615 -24.210  0.00  0.00    +0.174 HD
ENDBRANCH   1   4
BRANCH   1   8
ATOM      8  C   UNL     1      34.504 -17.536 -21.454  0.00  0.00    -0.080 C 
BRANCH   8   9
ATOM      9  N   UNL     1      35.637 -18.163 -20.781  0.00  0.00    +0.381 N 
ATOM     10  H   UNL     1      35.670 -17.852 -19.810  0.00  0.00    -0.089 HD
ATOM     11  H   UNL     1      36.502 -17.898 -21.252  0.00  0.00    -0.089 HD
ATOM     12  H   UNL     1      35.531 -19.177 -20.810  0.00  0.00    -0.089 HD
ENDBRANCH   8   9
ENDBRANCH   1   8
TORSDOF 3
ENDMDL
MODEL 4
REMARK VINA RESULT:      -4.5      2.969      5.251
REMARK  Name = 7741
REMARK  3 active torsions:
REMARK  status: ('A' for Active; 'I' for Inactive)
REMARK    1  A    between atoms: C_1  and  C_4
REMARK    2  A    between atoms: C_1  and  C_8
REMARK    3  A    between atoms: C_8  and  N_9
REMARK                            x       y       z     vdW  Elec       q    Type
REMARK                         _______ _______ _______ _____ _____    ______ ____
ROOT
ATOM      1  C   UNL     1      35.860 -18.098 -21.694  0.00  0.00    +0.019 C 
ENDROOT
BRANCH   1   4
ATOM      2  N   UNL     1      35.401 -16.787 -23.754  0.00  0.00    -0.240 N 
ATOM      3  N   UNL     1      34.880 -16.855 -24.991  0.00  0.00    -0.180 NA
ATOM      4  C   UNL     1      35.331 -17.961 -23.092  0.00  0.00    +0.042 C 
ATOM      5  C   UNL     1      34.736 -18.862 -23.910  0.00  0.00    +0.034 C 
ATOM      6  C   UNL     1      34.475 -18.124 -25.080  0.00  0.00    +0.119 C 
ATOM      7  H   UNL     1      35.794 -15.969 -23.372  0.00  0.00    +0.174 HD
ENDBRANCH   1   4
BRANCH   1   8
ATOM      8  C   UNL     1      35.475 -19.436 -21.060  0.00  0.00    -0.080 C 
BRANCH   8   9
ATOM      9  N   UNL     1      36.462 -19.851 -20.068  0.00  0.00    +0.381 N 
ATOM     10  H   UNL     1      37.320 -19.314 -20.197  0.00  0.00    -0.089 HD
ATOM     11  H   UNL     1      36.662 -20.844 -20.181  0.00  0.00    -0.089 HD
ATOM     12  H   UNL     1      36.093 -19.682 -19.132  0.00  0.00    -0.089 HD
ENDBRANCH   8   9
ENDBRANCH   1   8
TORSDOF 3
ENDMDL
MODEL 5
REMARK VINA RESULT:      -4.5      8.516      9.576
REMARK  Name = 7741
REMARK  3 active torsions:
REMARK  status: ('A' for Active; 'I' for Inactive)
REMARK    1  A    between atoms: C_1  and  C_4
REMARK    2  A    between atoms: C_1  and  C_8
REMARK    3  A    between atoms: C_8  and  N_9
REMARK                            x       y       z     vdW  Elec       q    Type
REMARK                         _______ _______ _______ _____ _____    ______ ____
ROOT
ATOM      1  C   UNL     1      38.917 -25.446 -13.244  0.00  0.00    +0.019 C 
ENDROOT
BRANCH   1   4
ATOM      2  N   UNL     1      38.279 -23.628 -11.675  0.00  0.00    -0.240 N 
ATOM      3  N   UNL     1      37.263 -23.118 -10.959  0.00  0.00    -0.180 NA
ATOM      4  C   UNL     1      37.926 -24.725 -12.378  0.00  0.00    +0.042 C 
ATOM      5  C   UNL     1      36.618 -24.970 -12.129  0.00  0.00    +0.034 C 
ATOM      6  C   UNL     1      36.251 -23.942 -11.241  0.00  0.00    +0.119 C 
ATOM      7  H   UNL     1      39.186 -23.243 -11.687  0.00  0.00    +0.174 HD
ENDBRANCH   1   4
BRANCH   1   8
ATOM      8  C   UNL     1      38.386 -25.673 -14.662  0.00  0.00    -0.080 C 
BRANCH   8   9
ATOM      9  N   UNL     1      38.264 -24.411 -15.385  0.00  0.00    +0.381 N 
ATOM     10  H   UNL     1      37.516 -24.486 -16.075  0.00  0.00    -0.089 HD
ATOM     11  H   UNL     1      39.143 -24.204 -15.858  0.00  0.00    -0.089 HD
ATOM     12  H   UNL     1      38.046 -23.663 -14.728  0.00  0.00    -0.089 HD
ENDBRANCH   8   9
ENDBRANCH   1   8
TORSDOF 3
ENDMDL
MODEL 6
REMARK VINA RESULT:      -4.5      2.247      2.905
REMARK  Name = 7741
REMARK  3 active torsions:
REMARK  status: ('A' for Active; 'I' for Inactive)
REMARK    1  A    between atoms: C_1  and  C_4
REMARK    2  A    between atoms: C_1  and  C_8
REMARK    3  A    between atoms: C_8  and  N_9
REMARK                            x       y       z     vdW  Elec       q    Type
REMARK                         _______ _______ _______ _____ _____    ______ ____
ROOT
ATOM      1  C   UNL     1      35.310 -17.803 -21.900  0.00  0.00    +0.019 C 
ENDROOT
BRANCH   1   4
ATOM      2  N   UNL     1      36.495 -19.396 -20.407  0.00  0.00    -0.240 N 
ATOM      3  N   UNL     1      36.357 -20.531 -19.700  0.00  0.00    -0.180 NA
ATOM      4  C   UNL     1      35.366 -19.042 -21.055  0.00  0.00    +0.042 C 
ATOM      5  C   UNL     1      34.423 -19.974 -20.779  0.00  0.00    +0.034 C 
ATOM      6  C   UNL     1      35.089 -20.879 -19.932  0.00  0.00    +0.119 C 
ATOM      7  H   UNL     1      37.331 -18.877 -20.447  0.00  0.00    +0.174 HD
ENDBRANCH   1   4
BRANCH   1   8
ATOM      8  C   UNL     1      35.360 -18.123 -23.396  0.00  0.00    -0.080 C 
BRANCH   8   9
ATOM      9  N   UNL     1      35.347 -16.901 -24.194  0.00  0.00    +0.381 N 
ATOM     10  H   UNL     1      35.817 -17.071 -25.083  0.00  0.00    -0.089 HD
ATOM     11  H   UNL     1      35.833 -16.159 -23.689  0.00  0.00    -0.089 HD
ATOM     12  H   UNL     1      34.382 -16.619 -24.368  0.00  0.00    -0.089 HD
ENDBRANCH   8   9
ENDBRANCH   1   8
TORSDOF 3
ENDMDL
MODEL 7
REMARK VINA RESULT:      -4.5      6.895      8.003
REMARK  Name = 7741
REMARK  3 active torsions:
REMARK  status: ('A' for Active; 'I' for Inactive)
REMARK    1  A    between atoms: C_1  and  C_4
REMARK    2  A    between atoms: C_1  and  C_8
REMARK    3  A    between atoms: C_8  and  N_9
REMARK                            x       y       z     vdW  Elec       q    Type
REMARK                         _______ _______ _______ _____ _____    ______ ____
ROOT
ATOM      1  C   UNL     1      30.565 -23.412 -15.453  0.00  0.00    +0.019 C 
ENDROOT
BRANCH   1   4
ATOM      2  N   UNL     1      28.915 -23.474 -17.310  0.00  0.00    -0.240 N 
ATOM      3  N   UNL     1      27.703 -23.046 -17.700  0.00  0.00    -0.180 NA
ATOM      4  C   UNL     1      29.250 -23.043 -16.076  0.00  0.00    +0.042 C 
ATOM      5  C   UNL     1      28.225 -22.291 -15.609  0.00  0.00    +0.034 C 
ATOM      6  C   UNL     1      27.286 -22.324 -16.657  0.00  0.00    +0.119 C 
ATOM      7  H   UNL     1      29.498 -24.043 -17.864  0.00  0.00    +0.174 HD
ENDBRANCH   1   4
BRANCH   1   8
ATOM      8  C   UNL     1      30.387 -24.225 -14.169  0.00  0.00    -0.080 C 
BRANCH   8   9
ATOM      9  N   UNL     1      29.668 -25.468 -14.430  0.00  0.00    +0.381 N 
ATOM     10  H   UNL     1      30.139 -26.239 -13.956  0.00  0.00    -0.089 HD
ATOM     11  H   UNL     1      29.650 -25.646 -15.434  0.00  0.00    -0.089 HD
ATOM     12  H   UNL     1      28.714 -25.387 -14.081  0.00  0.00    -0.089 HD
ENDBRANCH   8   9
ENDBRANCH   1   8
TORSDOF 3
ENDMDL
MODEL 8
REMARK VINA RESULT:      -4.5      9.382     10.322
REMARK  Name = 7741
REMARK  3 active torsions:
REMARK  status: ('A' for Active; 'I' for Inactive)
REMARK    1  A    between atoms: C_1  and  C_4
REMARK    2  A    between atoms: C_1  and  C_8
REMARK    3  A    between atoms: C_8  and  N_9
REMARK                            x       y       z     vdW  Elec       q    Type
REMARK                         _______ _______ _______ _____ _____    ______ ____
ROOT
ATOM      1  C   UNL     1      41.551 -13.797 -15.755  0.00  0.00    +0.019 C 
ENDROOT
BRANCH   1   4
ATOM      2  N   UNL     1      41.667 -16.253 -16.110  0.00  0.00    -0.240 N 
ATOM      3  N   UNL     1      41.948 -17.208 -17.012  0.00  0.00    -0.180 NA
ATOM      4  C   UNL     1      41.817 -15.006 -16.603  0.00  0.00    +0.042 C 
ATOM      5  C   UNL     1      42.218 -15.117 -17.892  0.00  0.00    +0.034 C 
ATOM      6  C   UNL     1      42.284 -16.508 -18.099  0.00  0.00    +0.119 C 
ATOM      7  H   UNL     1      41.380 -16.442 -15.187  0.00  0.00    +0.174 HD
ENDBRANCH   1   4
BRANCH   1   8
ATOM      8  C   UNL     1      40.769 -14.143 -14.486  0.00  0.00    -0.080 C 
BRANCH   8   9
ATOM      9  N   UNL     1      40.698 -12.998 -13.584  0.00  0.00    +0.381 N 
ATOM     10  H   UNL     1      41.499 -13.013 -12.952  0.00  0.00    -0.089 HD
ATOM     11  H   UNL     1      39.836 -13.045 -13.041  0.00  0.00    -0.089 HD
ATOM     12  H   UNL     1      40.711 -12.136 -14.128  0.00  0.00    -0.089 HD
ENDBRANCH   8   9
ENDBRANCH   1   8
TORSDOF 3
ENDMDL
MODEL 9
REMARK VINA RESULT:      -4.4      9.674     11.701
REMARK  Name = 7741
REMARK  3 active torsions:
REMARK  status: ('A' for Active; 'I' for Inactive)
REMARK    1  A    between atoms: C_1  and  C_4
REMARK    2  A    between atoms: C_1  and  C_8
REMARK    3  A    between atoms: C_8  and  N_9
REMARK                            x       y       z     vdW  Elec       q    Type
REMARK                         _______ _______ _______ _____ _____    ______ ____
ROOT
ATOM      1  C   UNL     1      31.513 -10.797 -20.169  0.00  0.00    +0.019 C 
ENDROOT
BRANCH   1   4
ATOM      2  N   UNL     1      32.476  -8.623 -19.450  0.00  0.00    -0.240 N 
ATOM      3  N   UNL     1      32.830  -7.398 -19.875  0.00  0.00    -0.180 NA
ATOM      4  C   UNL     1      31.968  -9.392 -20.435  0.00  0.00    +0.042 C 
ATOM      5  C   UNL     1      31.975  -8.661 -21.575  0.00  0.00    +0.034 C 
ATOM      6  C   UNL     1      32.521  -7.427 -21.173  0.00  0.00    +0.119 C 
ATOM      7  H   UNL     1      32.577  -8.928 -18.519  0.00  0.00    +0.174 HD
ENDBRANCH   1   4
BRANCH   1   8
ATOM      8  C   UNL     1      30.770 -11.400 -21.363  0.00  0.00    -0.080 C 
BRANCH   8   9
ATOM      9  N   UNL     1      31.557 -12.456 -21.992  0.00  0.00    +0.381 N 
ATOM     10  H   UNL     1      31.304 -12.527 -22.978  0.00  0.00    -0.089 HD
ATOM     11  H   UNL     1      31.366 -13.344 -21.527  0.00  0.00    -0.089 HD
ATOM     12  H   UNL     1      32.549 -12.235 -21.911  0.00  0.00    -0.089 HD
ENDBRANCH   8   9
ENDBRANCH   1   8
TORSDOF 3
ENDMDL
