MODEL 1
REMARK VINA RESULT:      -6.2      0.000      0.000
REMARK  Name = 444863
REMARK  4 active torsions:
REMARK  status: ('A' for Active; 'I' for Inactive)
REMARK    1  A    between atoms: C_2  and  O_8
REMARK    2  A    between atoms: C_3  and  O_10
REMARK    3  A    between atoms: C_4  and  O_12
REMARK    4  A    between atoms: C_6  and  O_14
REMARK                            x       y       z     vdW  Elec       q    Type
REMARK                         _______ _______ _______ _____ _____    ______ ____
ROOT
ATOM      1  O   UNL     1      37.635 -22.901 -13.699  0.00  0.00    -0.329 OA
ATOM      2  C   UNL     1      36.541 -25.551 -13.769  0.00  0.00    +0.171 C 
ATOM      3  C   UNL     1      37.109 -24.870 -15.016  0.00  0.00    +0.167 C 
ATOM      4  C   UNL     1      37.159 -24.969 -12.497  0.00  0.00    +0.196 C 
ATOM      5  C   UNL     1      36.970 -23.350 -14.886  0.00  0.00    +0.147 C 
ATOM      6  C   UNL     1      37.073 -23.440 -12.505  0.00  0.00    +0.262 C 
ATOM      7  C   UNL     1      37.590 -22.608 -16.064  0.00  0.00    +0.035 C 
ENDROOT
BRANCH   2   8
ATOM      8  O   UNL     1      36.796 -26.950 -13.852  0.00  0.00    -0.379 OA
ATOM      9  H   UNL     1      37.670 -27.097 -14.245  0.00  0.00    +0.211 HD
ENDBRANCH   2   8
BRANCH   3  10
ATOM     10  O   UNL     1      38.492 -25.199 -15.154  0.00  0.00    -0.379 OA
ATOM     11  H   UNL     1      38.980 -24.421 -15.469  0.00  0.00    +0.211 HD
ENDBRANCH   3  10
BRANCH   4  12
ATOM     12  O   UNL     1      36.444 -25.450 -11.359  0.00  0.00    -0.378 OA
ATOM     13  H   UNL     1      36.645 -26.389 -11.224  0.00  0.00    +0.211 HD
ENDBRANCH   4  12
BRANCH   6  14
ATOM     14  O   UNL     1      37.794 -22.956 -11.371  0.00  0.00    -0.358 OA
ATOM     15  H   UNL     1      38.745 -22.979 -11.560  0.00  0.00    +0.213 HD
ENDBRANCH   6  14
TORSDOF 4
ENDMDL
MODEL 2
REMARK VINA RESULT:      -6.1      9.185     11.156
REMARK  Name = 444863
REMARK  4 active torsions:
REMARK  status: ('A' for Active; 'I' for Inactive)
REMARK    1  A    between atoms: C_2  and  O_8
REMARK    2  A    between atoms: C_3  and  O_10
REMARK    3  A    between atoms: C_4  and  O_12
REMARK    4  A    between atoms: C_6  and  O_14
REMARK                            x       y       z     vdW  Elec       q    Type
REMARK                         _______ _______ _______ _____ _____    ______ ____
ROOT
ATOM      1  O   UNL     1      41.349 -16.397 -16.852  0.00  0.00    -0.329 OA
ATOM      2  C   UNL     1      42.223 -13.820 -15.947  0.00  0.00    +0.171 C 
ATOM      3  C   UNL     1      42.573 -14.359 -17.335  0.00  0.00    +0.167 C 
ATOM      4  C   UNL     1      40.946 -14.469 -15.413  0.00  0.00    +0.196 C 
ATOM      5  C   UNL     1      42.611 -15.890 -17.304  0.00  0.00    +0.147 C 
ATOM      6  C   UNL     1      41.029 -15.995 -15.522  0.00  0.00    +0.262 C 
ATOM      7  C   UNL     1      42.877 -16.492 -18.680  0.00  0.00    +0.035 C 
ENDROOT
BRANCH   2   8
ATOM      8  O   UNL     1      42.067 -12.406 -16.027  0.00  0.00    -0.379 OA
ATOM      9  H   UNL     1      41.424 -12.114 -15.363  0.00  0.00    +0.211 HD
ENDBRANCH   2   8
BRANCH   3  10
ATOM     10  O   UNL     1      41.584 -13.938 -18.277  0.00  0.00    -0.379 OA
ATOM     11  H   UNL     1      41.553 -12.968 -18.301  0.00  0.00    +0.211 HD
ENDBRANCH   3  10
BRANCH   4  12
ATOM     12  O   UNL     1      40.780 -14.130 -14.037  0.00  0.00    -0.378 OA
ATOM     13  H   UNL     1      40.276 -14.827 -13.590  0.00  0.00    +0.211 HD
ENDBRANCH   4  12
BRANCH   6  14
ATOM     14  O   UNL     1      39.758 -16.529 -15.150  0.00  0.00    -0.358 OA
ATOM     15  H   UNL     1      39.079 -15.843 -15.245  0.00  0.00    +0.213 HD
ENDBRANCH   6  14
TORSDOF 4
ENDMDL
MODEL 3
REMARK VINA RESULT:      -6.1      1.963      2.535
REMARK  Name = 444863
REMARK  4 active torsions:
REMARK  status: ('A' for Active; 'I' for Inactive)
REMARK    1  A    between atoms: C_2  and  O_8
REMARK    2  A    between atoms: C_3  and  O_10
REMARK    3  A    between atoms: C_4  and  O_12
REMARK    4  A    between atoms: C_6  and  O_14
REMARK                            x       y       z     vdW  Elec       q    Type
REMARK                         _______ _______ _______ _____ _____    ______ ____
ROOT
ATOM      1  O   UNL     1      37.753 -24.783 -11.769  0.00  0.00    -0.329 OA
ATOM      2  C   UNL     1      35.629 -24.545 -13.683  0.00  0.00    +0.171 C 
ATOM      3  C   UNL     1      36.909 -25.330 -13.978  0.00  0.00    +0.167 C 
ATOM      4  C   UNL     1      35.368 -24.468 -12.178  0.00  0.00    +0.196 C 
ATOM      5  C   UNL     1      38.072 -24.751 -13.166  0.00  0.00    +0.147 C 
ATOM      6  C   UNL     1      36.618 -23.984 -11.437  0.00  0.00    +0.262 C 
ATOM      7  C   UNL     1      39.362 -25.541 -13.356  0.00  0.00    +0.035 C 
ENDROOT
BRANCH   2   8
ATOM      8  O   UNL     1      34.538 -25.178 -14.345  0.00  0.00    -0.379 OA
ATOM      9  H   UNL     1      33.990 -24.506 -14.779  0.00  0.00    +0.211 HD
ENDBRANCH   2   8
BRANCH   3  10
ATOM     10  O   UNL     1      36.726 -26.700 -13.615  0.00  0.00    -0.379 OA
ATOM     11  H   UNL     1      35.914 -26.790 -13.092  0.00  0.00    +0.211 HD
ENDBRANCH   3  10
BRANCH   4  12
ATOM     12  O   UNL     1      34.314 -23.539 -11.926  0.00  0.00    -0.378 OA
ATOM     13  H   UNL     1      33.623 -23.644 -12.598  0.00  0.00    +0.211 HD
ENDBRANCH   4  12
BRANCH   6  14
ATOM     14  O   UNL     1      36.358 -24.076 -10.035  0.00  0.00    -0.358 OA
ATOM     15  H   UNL     1      35.442 -24.360  -9.896  0.00  0.00    +0.213 HD
ENDBRANCH   6  14
TORSDOF 4
ENDMDL
MODEL 4
REMARK VINA RESULT:      -6.0      2.213      2.838
REMARK  Name = 444863
REMARK  4 active torsions:
REMARK  status: ('A' for Active; 'I' for Inactive)
REMARK    1  A    between atoms: C_2  and  O_8
REMARK    2  A    between atoms: C_3  and  O_10
REMARK    3  A    between atoms: C_4  and  O_12
REMARK    4  A    between atoms: C_6  and  O_14
REMARK                            x       y       z     vdW  Elec       q    Type
REMARK                         _______ _______ _______ _____ _____    ______ ____
ROOT
ATOM      1  O   UNL     1      37.219 -24.325 -13.344  0.00  0.00    -0.329 OA
ATOM      2  C   UNL     1      36.948 -26.668 -14.976  0.00  0.00    +0.171 C 
ATOM      3  C   UNL     1      35.804 -25.671 -14.784  0.00  0.00    +0.167 C 
ATOM      4  C   UNL     1      38.303 -25.997 -14.751  0.00  0.00    +0.196 C 
ATOM      5  C   UNL     1      35.944 -24.974 -13.428  0.00  0.00    +0.147 C 
ATOM      6  C   UNL     1      38.314 -25.234 -13.423  0.00  0.00    +0.262 C 
ATOM      7  C   UNL     1      34.875 -23.908 -13.210  0.00  0.00    +0.035 C 
ENDROOT
BRANCH   2   8
ATOM      8  O   UNL     1      36.873 -27.208 -16.292  0.00  0.00    -0.379 OA
ATOM      9  H   UNL     1      36.057 -27.724 -16.384  0.00  0.00    +0.211 HD
ENDBRANCH   2   8
BRANCH   3  10
ATOM     10  O   UNL     1      35.847 -24.686 -15.819  0.00  0.00    -0.379 OA
ATOM     11  H   UNL     1      35.842 -23.800 -15.423  0.00  0.00    +0.211 HD
ENDBRANCH   3  10
BRANCH   4  12
ATOM     12  O   UNL     1      39.324 -26.993 -14.701  0.00  0.00    -0.378 OA
ATOM     13  H   UNL     1      39.422 -27.400 -15.576  0.00  0.00    +0.211 HD
ENDBRANCH   4  12
BRANCH   6  14
ATOM     14  O   UNL     1      39.545 -24.513 -13.343  0.00  0.00    -0.358 OA
ATOM     15  H   UNL     1      39.809 -24.227 -14.232  0.00  0.00    +0.213 HD
ENDBRANCH   6  14
TORSDOF 4
ENDMDL
MODEL 5
REMARK VINA RESULT:      -5.9      2.065      3.733
REMARK  Name = 444863
REMARK  4 active torsions:
REMARK  status: ('A' for Active; 'I' for Inactive)
REMARK    1  A    between atoms: C_2  and  O_8
REMARK    2  A    between atoms: C_3  and  O_10
REMARK    3  A    between atoms: C_4  and  O_12
REMARK    4  A    between atoms: C_6  and  O_14
REMARK                            x       y       z     vdW  Elec       q    Type
REMARK                         _______ _______ _______ _____ _____    ______ ____
ROOT
ATOM      1  O   UNL     1      38.383 -26.522 -15.218  0.00  0.00    -0.329 OA
ATOM      2  C   UNL     1      36.786 -24.566 -13.859  0.00  0.00    +0.171 C 
ATOM      3  C   UNL     1      38.308 -24.453 -13.954  0.00  0.00    +0.167 C 
ATOM      4  C   UNL     1      36.226 -25.403 -15.010  0.00  0.00    +0.196 C 
ATOM      5  C   UNL     1      38.927 -25.848 -14.076  0.00  0.00    +0.147 C 
ATOM      6  C   UNL     1      36.976 -26.733 -15.125  0.00  0.00    +0.262 C 
ATOM      7  C   UNL     1      40.440 -25.799 -14.255  0.00  0.00    +0.035 C 
ENDROOT
BRANCH   2   8
ATOM      8  O   UNL     1      36.224 -23.257 -13.876  0.00  0.00    -0.379 OA
ATOM      9  H   UNL     1      36.912 -22.606 -13.671  0.00  0.00    +0.211 HD
ENDBRANCH   2   8
BRANCH   3  10
ATOM     10  O   UNL     1      38.661 -23.686 -15.107  0.00  0.00    -0.379 OA
ATOM     11  H   UNL     1      38.625 -22.740 -14.890  0.00  0.00    +0.211 HD
ENDBRANCH   3  10
BRANCH   4  12
ATOM     12  O   UNL     1      34.849 -25.688 -14.763  0.00  0.00    -0.378 OA
ATOM     13  H   UNL     1      34.629 -26.559 -15.129  0.00  0.00    +0.211 HD
ENDBRANCH   4  12
BRANCH   6  14
ATOM     14  O   UNL     1      36.510 -27.397 -16.301  0.00  0.00    -0.358 OA
ATOM     15  H   UNL     1      36.146 -28.263 -16.059  0.00  0.00    +0.213 HD
ENDBRANCH   6  14
TORSDOF 4
ENDMDL
MODEL 6
REMARK VINA RESULT:      -5.8      1.857      2.971
REMARK  Name = 444863
REMARK  4 active torsions:
REMARK  status: ('A' for Active; 'I' for Inactive)
REMARK    1  A    between atoms: C_2  and  O_8
REMARK    2  A    between atoms: C_3  and  O_10
REMARK    3  A    between atoms: C_4  and  O_12
REMARK    4  A    between atoms: C_6  and  O_14
REMARK                            x       y       z     vdW  Elec       q    Type
REMARK                         _______ _______ _______ _____ _____    ______ ____
ROOT
ATOM      1  O   UNL     1      36.135 -25.477 -13.385  0.00  0.00    -0.329 OA
ATOM      2  C   UNL     1      38.262 -24.234 -11.916  0.00  0.00    +0.171 C 
ATOM      3  C   UNL     1      38.426 -24.679 -13.370  0.00  0.00    +0.167 C 
ATOM      4  C   UNL     1      36.793 -23.964 -11.588  0.00  0.00    +0.196 C 
ATOM      5  C   UNL     1      37.489 -25.854 -13.664  0.00  0.00    +0.147 C 
ATOM      6  C   UNL     1      35.918 -25.146 -12.016  0.00  0.00    +0.262 C 
ATOM      7  C   UNL     1      37.549 -26.294 -15.123  0.00  0.00    +0.035 C 
ENDROOT
BRANCH   2   8
ATOM      8  O   UNL     1      39.043 -23.063 -11.700  0.00  0.00    -0.379 OA
ATOM      9  H   UNL     1      39.864 -23.122 -12.213  0.00  0.00    +0.211 HD
ENDBRANCH   2   8
BRANCH   3  10
ATOM     10  O   UNL     1      38.100 -23.595 -14.243  0.00  0.00    -0.379 OA
ATOM     11  H   UNL     1      37.177 -23.331 -14.098  0.00  0.00    +0.211 HD
ENDBRANCH   3  10
BRANCH   4  12
ATOM     12  O   UNL     1      36.645 -23.786 -10.180  0.00  0.00    -0.378 OA
ATOM     13  H   UNL     1      37.504 -23.563  -9.790  0.00  0.00    +0.211 HD
ENDBRANCH   4  12
BRANCH   6  14
ATOM     14  O   UNL     1      34.553 -24.773 -11.821  0.00  0.00    -0.358 OA
ATOM     15  H   UNL     1      34.487 -23.806 -11.771  0.00  0.00    +0.213 HD
ENDBRANCH   6  14
TORSDOF 4
ENDMDL
MODEL 7
REMARK VINA RESULT:      -5.8      1.853      3.084
REMARK  Name = 444863
REMARK  4 active torsions:
REMARK  status: ('A' for Active; 'I' for Inactive)
REMARK    1  A    between atoms: C_2  and  O_8
REMARK    2  A    between atoms: C_3  and  O_10
REMARK    3  A    between atoms: C_4  and  O_12
REMARK    4  A    between atoms: C_6  and  O_14
REMARK                            x       y       z     vdW  Elec       q    Type
REMARK                         _______ _______ _______ _____ _____    ______ ____
ROOT
ATOM      1  O   UNL     1      38.128 -24.729 -15.012  0.00  0.00    -0.329 OA
ATOM      2  C   UNL     1      36.780 -25.608 -12.638  0.00  0.00    +0.171 C 
ATOM      3  C   UNL     1      38.302 -25.471 -12.709  0.00  0.00    +0.167 C 
ATOM      4  C   UNL     1      36.100 -24.693 -13.657  0.00  0.00    +0.196 C 
ATOM      5  C   UNL     1      38.775 -25.674 -14.151  0.00  0.00    +0.147 C 
ATOM      6  C   UNL     1      36.711 -24.886 -15.048  0.00  0.00    +0.262 C 
ATOM      7  C   UNL     1      40.279 -25.471 -14.303  0.00  0.00    +0.035 C 
ENDROOT
BRANCH   2   8
ATOM      8  O   UNL     1      36.349 -25.289 -11.318  0.00  0.00    -0.379 OA
ATOM      9  H   UNL     1      35.523 -24.784 -11.360  0.00  0.00    +0.211 HD
ENDBRANCH   2   8
BRANCH   3  10
ATOM     10  O   UNL     1      38.687 -24.166 -12.273  0.00  0.00    -0.379 OA
ATOM     11  H   UNL     1      39.308 -24.243 -11.531  0.00  0.00    +0.211 HD
ENDBRANCH   3  10
BRANCH   4  12
ATOM     12  O   UNL     1      34.711 -25.016 -13.732  0.00  0.00    -0.378 OA
ATOM     13  H   UNL     1      34.207 -24.406 -13.173  0.00  0.00    +0.211 HD
ENDBRANCH   4  12
BRANCH   6  14
ATOM     14  O   UNL     1      36.140 -23.905 -15.916  0.00  0.00    -0.358 OA
ATOM     15  H   UNL     1      35.231 -24.163 -16.140  0.00  0.00    +0.213 HD
ENDBRANCH   6  14
TORSDOF 4
ENDMDL
MODEL 8
REMARK VINA RESULT:      -5.8      2.092      3.035
REMARK  Name = 444863
REMARK  4 active torsions:
REMARK  status: ('A' for Active; 'I' for Inactive)
REMARK    1  A    between atoms: C_2  and  O_8
REMARK    2  A    between atoms: C_3  and  O_10
REMARK    3  A    between atoms: C_4  and  O_12
REMARK    4  A    between atoms: C_6  and  O_14
REMARK                            x       y       z     vdW  Elec       q    Type
REMARK                         _______ _______ _______ _____ _____    ______ ____
ROOT
ATOM      1  O   UNL     1      38.709 -24.080 -12.875  0.00  0.00    -0.329 OA
ATOM      2  C   UNL     1      36.968 -26.172 -13.780  0.00  0.00    +0.171 C 
ATOM      3  C   UNL     1      36.437 -24.890 -13.137  0.00  0.00    +0.167 C 
ATOM      4  C   UNL     1      38.343 -25.941 -14.409  0.00  0.00    +0.196 C 
ATOM      5  C   UNL     1      37.483 -24.319 -12.175  0.00  0.00    +0.147 C 
ATOM      6  C   UNL     1      39.288 -25.269 -13.410  0.00  0.00    +0.262 C 
ATOM      7  C   UNL     1      37.044 -22.995 -11.560  0.00  0.00    +0.035 C 
ENDROOT
BRANCH   2   8
ATOM      8  O   UNL     1      36.038 -26.614 -14.765  0.00  0.00    -0.379 OA
ATOM      9  H   UNL     1      35.227 -26.086 -14.704  0.00  0.00    +0.211 HD
ENDBRANCH   2   8
BRANCH   3  10
ATOM     10  O   UNL     1      36.164 -23.922 -14.153  0.00  0.00    -0.379 OA
ATOM     11  H   UNL     1      36.135 -24.360 -15.018  0.00  0.00    +0.211 HD
ENDBRANCH   3  10
BRANCH   4  12
ATOM     12  O   UNL     1      38.910 -27.196 -14.785  0.00  0.00    -0.378 OA
ATOM     13  H   UNL     1      38.288 -27.909 -14.573  0.00  0.00    +0.211 HD
ENDBRANCH   4  12
BRANCH   6  14
ATOM     14  O   UNL     1      40.497 -24.948 -14.100  0.00  0.00    -0.358 OA
ATOM     15  H   UNL     1      40.639 -23.988 -14.073  0.00  0.00    +0.213 HD
ENDBRANCH   6  14
TORSDOF 4
ENDMDL
MODEL 9
REMARK VINA RESULT:      -5.8      1.996      3.211
REMARK  Name = 444863
REMARK  4 active torsions:
REMARK  status: ('A' for Active; 'I' for Inactive)
REMARK    1  A    between atoms: C_2  and  O_8
REMARK    2  A    between atoms: C_3  and  O_10
REMARK    3  A    between atoms: C_4  and  O_12
REMARK    4  A    between atoms: C_6  and  O_14
REMARK                            x       y       z     vdW  Elec       q    Type
REMARK                         _______ _______ _______ _____ _____    ______ ____
ROOT
ATOM      1  O   UNL     1      36.015 -24.252 -13.298  0.00  0.00    -0.329 OA
ATOM      2  C   UNL     1      38.087 -25.792 -14.547  0.00  0.00    +0.171 C 
ATOM      3  C   UNL     1      38.316 -25.019 -13.247  0.00  0.00    +0.167 C 
ATOM      4  C   UNL     1      36.608 -26.139 -14.725  0.00  0.00    +0.196 C 
ATOM      5  C   UNL     1      37.374 -23.813 -13.187  0.00  0.00    +0.147 C 
ATOM      6  C   UNL     1      35.735 -24.895 -14.540  0.00  0.00    +0.262 C 
ATOM      7  C   UNL     1      37.499 -23.044 -11.876  0.00  0.00    +0.035 C 
ENDROOT
BRANCH   2   8
ATOM      8  O   UNL     1      38.877 -26.978 -14.524  0.00  0.00    -0.379 OA
ATOM      9  H   UNL     1      39.671 -26.847 -15.064  0.00  0.00    +0.211 HD
ENDBRANCH   2   8
BRANCH   3  10
ATOM     10  O   UNL     1      38.052 -25.870 -12.130  0.00  0.00    -0.379 OA
ATOM     11  H   UNL     1      37.114 -26.120 -12.128  0.00  0.00    +0.211 HD
ENDBRANCH   3  10
BRANCH   4  12
ATOM     12  O   UNL     1      36.393 -26.642 -16.043  0.00  0.00    -0.378 OA
ATOM     13  H   UNL     1      35.875 -26.001 -16.553  0.00  0.00    +0.211 HD
ENDBRANCH   4  12
BRANCH   6  14
ATOM     14  O   UNL     1      34.369 -25.311 -14.570  0.00  0.00    -0.358 OA
ATOM     15  H   UNL     1      33.984 -25.091 -15.432  0.00  0.00    +0.213 HD
ENDBRANCH   6  14
TORSDOF 4
ENDMDL
