MODEL 1
REMARK VINA RESULT:      -8.3      0.000      0.000
REMARK  Name = 30487
REMARK  1 active torsions:
REMARK  status: ('A' for Active; 'I' for Inactive)
REMARK    1  A    between atoms: C_4  and  C_10
REMARK                            x       y       z     vdW  Elec       q    Type
REMARK                         _______ _______ _______ _____ _____    ______ ____
ROOT
ATOM      1  O   UNL     1      34.511 -17.070 -20.972  0.00  0.00    -0.356 OA
ATOM      2  N   UNL     1      34.740 -16.855 -23.809  0.00  0.00    +0.390 N 
ATOM      3  C   UNL     1      34.466 -18.170 -23.175  0.00  0.00    -0.026 C 
ATOM      4  C   UNL     1      35.035 -18.172 -21.725  0.00  0.00    +0.119 C 
ATOM      5  C   UNL     1      34.218 -15.763 -22.970  0.00  0.00    -0.045 C 
ATOM      6  C   UNL     1      34.834 -15.827 -21.583  0.00  0.00    +0.120 C 
ATOM      7  C   UNL     1      35.082 -19.323 -23.985  0.00  0.00    -0.020 C 
ATOM      8  C   UNL     1      34.172 -16.742 -25.154  0.00  0.00    -0.100 C 
ATOM      9  H   UNL     1      35.754 -16.782 -23.892  0.00  0.00    -0.079 HD
ENDROOT
BRANCH   4  10
ATOM     10  C   UNL     1      34.696 -19.421 -20.935  0.00  0.00    +0.003 C 
ATOM     11  C   UNL     1      35.718 -20.236 -20.451  0.00  0.00    -0.002 C 
ATOM     12  C   UNL     1      33.363 -19.752 -20.695  0.00  0.00    -0.002 C 
ATOM     13  C   UNL     1      35.407 -21.384 -19.724  0.00  0.00    -0.000 C 
ATOM     14  C   UNL     1      33.052 -20.902 -19.968  0.00  0.00    -0.000 C 
ATOM     15  C   UNL     1      34.074 -21.718 -19.482  0.00  0.00    -0.000 C 
ENDBRANCH   4  10
TORSDOF 1
ENDMDL
MODEL 2
REMARK VINA RESULT:      -8.3      0.031      1.292
REMARK  Name = 30487
REMARK  1 active torsions:
REMARK  status: ('A' for Active; 'I' for Inactive)
REMARK    1  A    between atoms: C_4  and  C_10
REMARK                            x       y       z     vdW  Elec       q    Type
REMARK                         _______ _______ _______ _____ _____    ______ ____
ROOT
ATOM      1  O   UNL     1      34.519 -17.070 -20.976  0.00  0.00    -0.356 OA
ATOM      2  N   UNL     1      34.739 -16.851 -23.813  0.00  0.00    +0.390 N 
ATOM      3  C   UNL     1      34.478 -18.169 -23.179  0.00  0.00    -0.026 C 
ATOM      4  C   UNL     1      35.051 -18.167 -21.732  0.00  0.00    +0.119 C 
ATOM      5  C   UNL     1      34.209 -15.764 -22.973  0.00  0.00    -0.045 C 
ATOM      6  C   UNL     1      34.829 -15.823 -21.588  0.00  0.00    +0.120 C 
ATOM      7  C   UNL     1      35.103 -19.316 -23.992  0.00  0.00    -0.020 C 
ATOM      8  C   UNL     1      34.166 -16.743 -25.158  0.00  0.00    -0.100 C 
ATOM      9  H   UNL     1      35.751 -16.768 -23.900  0.00  0.00    -0.079 HD
ENDROOT
BRANCH   4  10
ATOM     10  C   UNL     1      34.726 -19.419 -20.941  0.00  0.00    +0.003 C 
ATOM     11  C   UNL     1      33.398 -19.762 -20.697  0.00  0.00    -0.002 C 
ATOM     12  C   UNL     1      35.757 -20.226 -20.462  0.00  0.00    -0.002 C 
ATOM     13  C   UNL     1      33.098 -20.914 -19.971  0.00  0.00    -0.000 C 
ATOM     14  C   UNL     1      35.457 -21.379 -19.735  0.00  0.00    -0.000 C 
ATOM     15  C   UNL     1      34.128 -21.723 -19.489  0.00  0.00    -0.000 C 
ENDBRANCH   4  10
TORSDOF 1
ENDMDL
MODEL 3
REMARK VINA RESULT:      -7.9      1.280      2.508
REMARK  Name = 30487
REMARK  1 active torsions:
REMARK  status: ('A' for Active; 'I' for Inactive)
REMARK    1  A    between atoms: C_4  and  C_10
REMARK                            x       y       z     vdW  Elec       q    Type
REMARK                         _______ _______ _______ _____ _____    ______ ____
ROOT
ATOM      1  O   UNL     1      34.846 -19.363 -23.568  0.00  0.00    -0.356 OA
ATOM      2  N   UNL     1      34.296 -16.569 -23.374  0.00  0.00    +0.390 N 
ATOM      3  C   UNL     1      34.615 -17.359 -22.156  0.00  0.00    -0.026 C 
ATOM      4  C   UNL     1      34.217 -18.846 -22.388  0.00  0.00    +0.119 C 
ATOM      5  C   UNL     1      34.933 -17.172 -24.557  0.00  0.00    -0.045 C 
ATOM      6  C   UNL     1      34.480 -18.612 -24.719  0.00  0.00    +0.120 C 
ATOM      7  C   UNL     1      33.885 -16.803 -20.921  0.00  0.00    -0.020 C 
ATOM      8  C   UNL     1      34.707 -15.167 -23.267  0.00  0.00    -0.100 C 
ATOM      9  H   UNL     1      33.281 -16.589 -23.472  0.00  0.00    -0.079 HD
ENDROOT
BRANCH   4  10
ATOM     10  C   UNL     1      34.618 -19.771 -21.256  0.00  0.00    +0.003 C 
ATOM     11  C   UNL     1      33.644 -20.486 -20.563  0.00  0.00    -0.002 C 
ATOM     12  C   UNL     1      35.963 -19.907 -20.912  0.00  0.00    -0.002 C 
ATOM     13  C   UNL     1      34.013 -21.338 -19.522  0.00  0.00    -0.000 C 
ATOM     14  C   UNL     1      36.332 -20.758 -19.871  0.00  0.00    -0.000 C 
ATOM     15  C   UNL     1      35.358 -21.474 -19.176  0.00  0.00    -0.000 C 
ENDBRANCH   4  10
TORSDOF 1
ENDMDL
MODEL 4
REMARK VINA RESULT:      -7.7      2.047      5.101
REMARK  Name = 30487
REMARK  1 active torsions:
REMARK  status: ('A' for Active; 'I' for Inactive)
REMARK    1  A    between atoms: C_4  and  C_10
REMARK                            x       y       z     vdW  Elec       q    Type
REMARK                         _______ _______ _______ _____ _____    ______ ____
ROOT
ATOM      1  O   UNL     1      36.503 -19.776 -21.032  0.00  0.00    -0.356 OA
ATOM      2  N   UNL     1      34.478 -21.072 -19.494  0.00  0.00    +0.390 N 
ATOM      3  C   UNL     1      34.123 -20.334 -20.734  0.00  0.00    -0.026 C 
ATOM      4  C   UNL     1      35.181 -19.221 -20.991  0.00  0.00    +0.119 C 
ATOM      5  C   UNL     1      35.857 -21.580 -19.577  0.00  0.00    -0.045 C 
ATOM      6  C   UNL     1      36.825 -20.433 -19.812  0.00  0.00    +0.120 C 
ATOM      7  C   UNL     1      32.719 -19.713 -20.635  0.00  0.00    -0.020 C 
ATOM      8  C   UNL     1      33.570 -22.188 -19.217  0.00  0.00    -0.100 C 
ATOM      9  H   UNL     1      34.393 -20.405 -18.728  0.00  0.00    -0.079 HD
ENDROOT
BRANCH   4  10
ATOM     10  C   UNL     1      34.992 -18.487 -22.304  0.00  0.00    +0.003 C 
ATOM     11  C   UNL     1      35.021 -17.094 -22.333  0.00  0.00    -0.002 C 
ATOM     12  C   UNL     1      34.791 -19.207 -23.481  0.00  0.00    -0.002 C 
ATOM     13  C   UNL     1      34.848 -16.418 -23.540  0.00  0.00    -0.000 C 
ATOM     14  C   UNL     1      34.617 -18.531 -24.689  0.00  0.00    -0.000 C 
ATOM     15  C   UNL     1      34.645 -17.137 -24.719  0.00  0.00    -0.000 C 
ENDBRANCH   4  10
TORSDOF 1
ENDMDL
MODEL 5
REMARK VINA RESULT:      -7.3      1.926      5.045
REMARK  Name = 30487
REMARK  1 active torsions:
REMARK  status: ('A' for Active; 'I' for Inactive)
REMARK    1  A    between atoms: C_4  and  C_10
REMARK                            x       y       z     vdW  Elec       q    Type
REMARK                         _______ _______ _______ _____ _____    ______ ____
ROOT
ATOM      1  O   UNL     1      33.182 -18.931 -20.923  0.00  0.00    -0.356 OA
ATOM      2  N   UNL     1      35.430 -20.638 -20.499  0.00  0.00    +0.390 N 
ATOM      3  C   UNL     1      35.626 -19.193 -20.780  0.00  0.00    -0.026 C 
ATOM      4  C   UNL     1      34.416 -18.658 -21.601  0.00  0.00    +0.119 C 
ATOM      5  C   UNL     1      34.130 -20.860 -19.843  0.00  0.00    -0.045 C 
ATOM      6  C   UNL     1      33.006 -20.327 -20.714  0.00  0.00    +0.120 C 
ATOM      7  C   UNL     1      36.935 -18.944 -21.549  0.00  0.00    -0.020 C 
ATOM      8  C   UNL     1      36.492 -21.206 -19.666  0.00  0.00    -0.100 C 
ATOM      9  H   UNL     1      35.455 -21.113 -21.401  0.00  0.00    -0.079 HD
ENDROOT
BRANCH   4  10
ATOM     10  C   UNL     1      34.446 -17.160 -21.833  0.00  0.00    +0.003 C 
ATOM     11  C   UNL     1      34.547 -16.659 -23.129  0.00  0.00    -0.002 C 
ATOM     12  C   UNL     1      34.372 -16.287 -20.749  0.00  0.00    -0.002 C 
ATOM     13  C   UNL     1      34.574 -15.282 -23.344  0.00  0.00    -0.000 C 
ATOM     14  C   UNL     1      34.400 -14.908 -20.963  0.00  0.00    -0.000 C 
ATOM     15  C   UNL     1      34.501 -14.405 -22.260  0.00  0.00    -0.000 C 
ENDBRANCH   4  10
TORSDOF 1
ENDMDL
MODEL 6
REMARK VINA RESULT:      -7.0      1.527      2.648
REMARK  Name = 30487
REMARK  1 active torsions:
REMARK  status: ('A' for Active; 'I' for Inactive)
REMARK    1  A    between atoms: C_4  and  C_10
REMARK                            x       y       z     vdW  Elec       q    Type
REMARK                         _______ _______ _______ _____ _____    ______ ____
ROOT
ATOM      1  O   UNL     1      34.790 -17.445 -23.805  0.00  0.00    -0.356 OA
ATOM      2  N   UNL     1      33.342 -15.147 -22.927  0.00  0.00    +0.390 N 
ATOM      3  C   UNL     1      33.902 -16.105 -21.939  0.00  0.00    -0.026 C 
ATOM      4  C   UNL     1      34.021 -17.512 -22.597  0.00  0.00    +0.119 C 
ATOM      5  C   UNL     1      34.146 -15.154 -24.161  0.00  0.00    -0.045 C 
ATOM      6  C   UNL     1      34.198 -16.555 -24.744  0.00  0.00    +0.120 C 
ATOM      7  C   UNL     1      33.026 -16.185 -20.678  0.00  0.00    -0.020 C 
ATOM      8  C   UNL     1      33.264 -13.778 -22.412  0.00  0.00    -0.100 C 
ATOM      9  H   UNL     1      32.392 -15.460 -23.125  0.00  0.00    -0.079 HD
ENDROOT
BRANCH   4  10
ATOM     10  C   UNL     1      34.705 -18.542 -21.719  0.00  0.00    +0.003 C 
ATOM     11  C   UNL     1      36.079 -18.469 -21.503  0.00  0.00    -0.002 C 
ATOM     12  C   UNL     1      33.956 -19.560 -21.130  0.00  0.00    -0.002 C 
ATOM     13  C   UNL     1      36.709 -19.416 -20.696  0.00  0.00    -0.000 C 
ATOM     14  C   UNL     1      34.586 -20.508 -20.322  0.00  0.00    -0.000 C 
ATOM     15  C   UNL     1      35.962 -20.437 -20.105  0.00  0.00    -0.000 C 
ENDBRANCH   4  10
TORSDOF 1
ENDMDL
MODEL 7
REMARK VINA RESULT:      -6.9      3.772      6.745
REMARK  Name = 30487
REMARK  1 active torsions:
REMARK  status: ('A' for Active; 'I' for Inactive)
REMARK    1  A    between atoms: C_4  and  C_10
REMARK                            x       y       z     vdW  Elec       q    Type
REMARK                         _______ _______ _______ _____ _____    ______ ____
ROOT
ATOM      1  O   UNL     1      33.168 -22.623 -18.099  0.00  0.00    -0.356 OA
ATOM      2  N   UNL     1      35.396 -23.109 -16.382  0.00  0.00    +0.390 N 
ATOM      3  C   UNL     1      35.452 -22.027 -17.398  0.00  0.00    -0.026 C 
ATOM      4  C   UNL     1      34.498 -22.377 -18.577  0.00  0.00    +0.119 C 
ATOM      5  C   UNL     1      34.004 -23.346 -15.962  0.00  0.00    -0.045 C 
ATOM      6  C   UNL     1      33.147 -23.696 -17.165  0.00  0.00    +0.120 C 
ATOM      7  C   UNL     1      36.884 -21.823 -17.921  0.00  0.00    -0.020 C 
ATOM      8  C   UNL     1      36.213 -22.824 -15.200  0.00  0.00    -0.100 C 
ATOM      9  H   UNL     1      35.776 -23.943 -16.828  0.00  0.00    -0.079 HD
ENDROOT
BRANCH   4  10
ATOM     10  C   UNL     1      34.375 -21.277 -19.614  0.00  0.00    +0.003 C 
ATOM     11  C   UNL     1      33.131 -20.711 -19.883  0.00  0.00    -0.002 C 
ATOM     12  C   UNL     1      35.508 -20.834 -20.295  0.00  0.00    -0.002 C 
ATOM     13  C   UNL     1      33.017 -19.700 -20.836  0.00  0.00    -0.000 C 
ATOM     14  C   UNL     1      35.395 -19.822 -21.249  0.00  0.00    -0.000 C 
ATOM     15  C   UNL     1      34.150 -19.255 -21.520  0.00  0.00    -0.000 C 
ENDBRANCH   4  10
TORSDOF 1
ENDMDL
MODEL 8
REMARK VINA RESULT:      -6.8      2.818      6.432
REMARK  Name = 30487
REMARK  1 active torsions:
REMARK  status: ('A' for Active; 'I' for Inactive)
REMARK    1  A    between atoms: C_4  and  C_10
REMARK                            x       y       z     vdW  Elec       q    Type
REMARK                         _______ _______ _______ _____ _____    ______ ____
ROOT
ATOM      1  O   UNL     1      33.441 -14.604 -22.139  0.00  0.00    -0.356 OA
ATOM      2  N   UNL     1      34.723 -17.150 -22.287  0.00  0.00    +0.390 N 
ATOM      3  C   UNL     1      34.754 -16.225 -23.449  0.00  0.00    -0.026 C 
ATOM      4  C   UNL     1      33.510 -15.290 -23.397  0.00  0.00    +0.119 C 
ATOM      5  C   UNL     1      34.608 -16.392 -21.030  0.00  0.00    -0.045 C 
ATOM      6  C   UNL     1      33.364 -15.521 -21.055  0.00  0.00    +0.120 C 
ATOM      7  C   UNL     1      34.780 -16.996 -24.779  0.00  0.00    -0.020 C 
ATOM      8  C   UNL     1      35.900 -18.019 -22.219  0.00  0.00    -0.100 C 
ATOM      9  H   UNL     1      33.904 -17.745 -22.415  0.00  0.00    -0.079 HD
ENDROOT
BRANCH   4  10
ATOM     10  C   UNL     1      33.507 -14.214 -24.465  0.00  0.00    +0.003 C 
ATOM     11  C   UNL     1      33.863 -12.908 -24.136  0.00  0.00    -0.002 C 
ATOM     12  C   UNL     1      33.148 -14.534 -25.773  0.00  0.00    -0.002 C 
ATOM     13  C   UNL     1      33.861 -11.917 -25.118  0.00  0.00    -0.000 C 
ATOM     14  C   UNL     1      33.145 -13.542 -26.756  0.00  0.00    -0.000 C 
ATOM     15  C   UNL     1      33.502 -12.234 -26.428  0.00  0.00    -0.000 C 
ENDBRANCH   4  10
TORSDOF 1
ENDMDL
MODEL 9
REMARK VINA RESULT:      -6.7      4.809      6.875
REMARK  Name = 30487
REMARK  1 active torsions:
REMARK  status: ('A' for Active; 'I' for Inactive)
REMARK    1  A    between atoms: C_4  and  C_10
REMARK                            x       y       z     vdW  Elec       q    Type
REMARK                         _______ _______ _______ _____ _____    ______ ____
ROOT
ATOM      1  O   UNL     1      32.026 -13.114 -22.266  0.00  0.00    -0.356 OA
ATOM      2  N   UNL     1      32.589 -10.395 -22.929  0.00  0.00    +0.390 N 
ATOM      3  C   UNL     1      33.036 -11.494 -23.822  0.00  0.00    -0.026 C 
ATOM      4  C   UNL     1      33.224 -12.794 -22.986  0.00  0.00    +0.119 C 
ATOM      5  C   UNL     1      31.383 -10.796 -22.185  0.00  0.00    -0.045 C 
ATOM      6  C   UNL     1      31.656 -12.058 -21.386  0.00  0.00    +0.120 C 
ATOM      7  C   UNL     1      34.347 -11.135 -24.541  0.00  0.00    -0.020 C 
ATOM      8  C   UNL     1      32.318  -9.149 -23.650  0.00  0.00    -0.100 C 
ATOM      9  H   UNL     1      33.358 -10.219 -22.283  0.00  0.00    -0.079 HD
ENDROOT
BRANCH   4  10
ATOM     10  C   UNL     1      33.553 -14.017 -23.819  0.00  0.00    +0.003 C 
ATOM     11  C   UNL     1      32.976 -14.177 -25.077  0.00  0.00    -0.002 C 
ATOM     12  C   UNL     1      34.434 -14.979 -23.326  0.00  0.00    -0.002 C 
ATOM     13  C   UNL     1      33.278 -15.302 -25.845  0.00  0.00    -0.000 C 
ATOM     14  C   UNL     1      34.736 -16.104 -24.093  0.00  0.00    -0.000 C 
ATOM     15  C   UNL     1      34.159 -16.266 -25.352  0.00  0.00    -0.000 C 
ENDBRANCH   4  10
TORSDOF 1
ENDMDL
