MODEL 1
REMARK VINA RESULT:      -4.4      0.000      0.000
REMARK  Name = 71080
REMARK  3 active torsions:
REMARK  status: ('A' for Active; 'I' for Inactive)
REMARK    1  A    between atoms: CA_1  and  N_3
REMARK    2  A    between atoms: CA_1  and  C_8
REMARK    3  A    between atoms: C_8  and  O_9
REMARK                            x       y       z     vdW  Elec       q    Type
REMARK                         _______ _______ _______ _____ _____    ______ ____
ROOT
ATOM      1  CA  ALA A   1      38.714 -25.674 -14.576  0.00  0.00    +0.036 C 
ATOM      2  CB  ALA A   1      38.489 -25.609 -13.071  0.00  0.00    -0.013 C 
ENDROOT
BRANCH   1   3
ATOM      3  N   ALA A   1      37.881 -24.675 -15.243  0.00  0.00    +0.389 N 
ATOM      4  H1  ALA A   1      38.157 -23.742 -14.935  0.00  0.00    -0.088 HD
ATOM      5  H2  ALA A   1      36.902 -24.835 -15.005  0.00  0.00    -0.088 HD
ATOM      6  H3  ALA A   1      38.003 -24.750 -16.252  0.00  0.00    -0.088 HD
ENDBRANCH   1   3
BRANCH   1   8
ATOM      7  OXT ALA A   1      40.945 -24.725 -14.249  0.00  0.00    -0.253 OA
ATOM      8  C   ALA A   1      40.161 -25.384 -14.916  0.00  0.00    +0.293 C 
BRANCH   8   9
ATOM      9  O   ALA A   1      40.498 -25.978 -16.090  0.00  0.00    -0.482 OA
ATOM     10  H   ALA A   1      41.396 -26.012 -16.358  0.00  0.00    +0.295 HD
ENDBRANCH   8   9
ENDBRANCH   1   8
TORSDOF 3
ENDMDL
MODEL 2
REMARK VINA RESULT:      -4.1     10.694     11.222
REMARK  Name = 71080
REMARK  3 active torsions:
REMARK  status: ('A' for Active; 'I' for Inactive)
REMARK    1  A    between atoms: CA_1  and  N_3
REMARK    2  A    between atoms: CA_1  and  C_8
REMARK    3  A    between atoms: C_8  and  O_9
REMARK                            x       y       z     vdW  Elec       q    Type
REMARK                         _______ _______ _______ _____ _____    ______ ____
ROOT
ATOM      1  CA  ALA A   1      41.813 -14.384 -16.360  0.00  0.00    +0.036 C 
ATOM      2  CB  ALA A   1      41.251 -14.228 -17.767  0.00  0.00    -0.013 C 
ENDROOT
BRANCH   1   3
ATOM      3  N   ALA A   1      41.876 -13.078 -15.706  0.00  0.00    +0.389 N 
ATOM      4  H1  ALA A   1      41.981 -12.349 -16.413  0.00  0.00    -0.088 HD
ATOM      5  H2  ALA A   1      42.675 -13.054 -15.072  0.00  0.00    -0.088 HD
ATOM      6  H3  ALA A   1      41.018 -12.920 -15.179  0.00  0.00    -0.088 HD
ENDBRANCH   1   3
BRANCH   1   8
ATOM      7  OXT ALA A   1      40.614 -16.438 -15.787  0.00  0.00    -0.253 OA
ATOM      8  C   ALA A   1      40.928 -15.286 -15.525  0.00  0.00    +0.293 C 
BRANCH   8   9
ATOM      9  O   ALA A   1      40.522 -14.640 -14.401  0.00  0.00    -0.482 OA
ATOM     10  H   ALA A   1      39.832 -14.998 -13.877  0.00  0.00    +0.295 HD
ENDBRANCH   8   9
ENDBRANCH   1   8
TORSDOF 3
ENDMDL
MODEL 3
REMARK VINA RESULT:      -4.1     11.306     11.604
REMARK  Name = 71080
REMARK  3 active torsions:
REMARK  status: ('A' for Active; 'I' for Inactive)
REMARK    1  A    between atoms: CA_1  and  N_3
REMARK    2  A    between atoms: CA_1  and  C_8
REMARK    3  A    between atoms: C_8  and  O_9
REMARK                            x       y       z     vdW  Elec       q    Type
REMARK                         _______ _______ _______ _____ _____    ______ ____
ROOT
ATOM      1  CA  ALA A   1      29.029 -22.939 -16.089  0.00  0.00    +0.036 C 
ATOM      2  CB  ALA A   1      28.984 -24.379 -15.599  0.00  0.00    -0.013 C 
ENDROOT
BRANCH   1   3
ATOM      3  N   ALA A   1      30.281 -22.701 -16.806  0.00  0.00    +0.389 N 
ATOM      4  H1  ALA A   1      30.237 -23.146 -17.723  0.00  0.00    -0.088 HD
ATOM      5  H2  ALA A   1      31.057 -23.095 -16.274  0.00  0.00    -0.088 HD
ATOM      6  H3  ALA A   1      30.421 -21.698 -16.921  0.00  0.00    -0.088 HD
ENDBRANCH   1   3
BRANCH   1   8
ATOM      7  OXT ALA A   1      27.327 -21.579 -17.202  0.00  0.00    -0.253 OA
ATOM      8  C   ALA A   1      27.883 -22.656 -17.036  0.00  0.00    +0.293 C 
BRANCH   8   9
ATOM      9  O   ALA A   1      27.543 -23.782 -17.716  0.00  0.00    -0.482 OA
ATOM     10  H   ALA A   1      28.141 -24.502 -17.760  0.00  0.00    +0.295 HD
ENDBRANCH   8   9
ENDBRANCH   1   8
TORSDOF 3
ENDMDL
MODEL 4
REMARK VINA RESULT:      -3.9     10.804     11.155
REMARK  Name = 71080
REMARK  3 active torsions:
REMARK  status: ('A' for Active; 'I' for Inactive)
REMARK    1  A    between atoms: CA_1  and  N_3
REMARK    2  A    between atoms: CA_1  and  C_8
REMARK    3  A    between atoms: C_8  and  O_9
REMARK                            x       y       z     vdW  Elec       q    Type
REMARK                         _______ _______ _______ _____ _____    ______ ____
ROOT
ATOM      1  CA  ALA A   1      29.495 -23.897 -15.917  0.00  0.00    +0.036 C 
ATOM      2  CB  ALA A   1      30.056 -22.763 -15.071  0.00  0.00    -0.013 C 
ENDROOT
BRANCH   1   3
ATOM      3  N   ALA A   1      28.836 -24.877 -15.054  0.00  0.00    +0.389 N 
ATOM      4  H1  ALA A   1      27.847 -24.643 -14.968  0.00  0.00    -0.088 HD
ATOM      5  H2  ALA A   1      29.271 -24.862 -14.131  0.00  0.00    -0.088 HD
ATOM      6  H3  ALA A   1      28.932 -25.806 -15.461  0.00  0.00    -0.088 HD
ENDBRANCH   1   3
BRANCH   1   8
ATOM      7  OXT ALA A   1      27.669 -24.048 -17.539  0.00  0.00    -0.253 OA
ATOM      8  C   ALA A   1      28.471 -23.378 -16.905  0.00  0.00    +0.293 C 
BRANCH   8   9
ATOM      9  O   ALA A   1      28.546 -22.024 -16.994  0.00  0.00    -0.482 OA
ATOM     10  H   ALA A   1      28.583 -21.611 -17.835  0.00  0.00    +0.295 HD
ENDBRANCH   8   9
ENDBRANCH   1   8
TORSDOF 3
ENDMDL
MODEL 5
REMARK VINA RESULT:      -3.9      3.054      3.472
REMARK  Name = 71080
REMARK  3 active torsions:
REMARK  status: ('A' for Active; 'I' for Inactive)
REMARK    1  A    between atoms: CA_1  and  N_3
REMARK    2  A    between atoms: CA_1  and  C_8
REMARK    3  A    between atoms: C_8  and  O_9
REMARK                            x       y       z     vdW  Elec       q    Type
REMARK                         _______ _______ _______ _____ _____    ______ ____
ROOT
ATOM      1  CA  ALA A   1      37.422 -26.630 -14.140  0.00  0.00    +0.036 C 
ATOM      2  CB  ALA A   1      38.770 -25.946 -14.322  0.00  0.00    -0.013 C 
ENDROOT
BRANCH   1   3
ATOM      3  N   ALA A   1      36.730 -26.057 -12.986  0.00  0.00    +0.389 N 
ATOM      4  H1  ALA A   1      35.813 -26.494 -12.889  0.00  0.00    -0.088 HD
ATOM      5  H2  ALA A   1      36.615 -25.053 -13.124  0.00  0.00    -0.088 HD
ATOM      6  H3  ALA A   1      37.278 -26.225 -12.144  0.00  0.00    -0.088 HD
ENDBRANCH   1   3
BRANCH   1   8
ATOM      7  OXT ALA A   1      35.682 -25.576 -15.500  0.00  0.00    -0.253 OA
ATOM      8  C   ALA A   1      36.547 -26.429 -15.360  0.00  0.00    +0.293 C 
BRANCH   8   9
ATOM      9  O   ALA A   1      36.861 -27.337 -16.321  0.00  0.00    -0.482 OA
ATOM     10  H   ALA A   1      36.382 -27.351 -17.127  0.00  0.00    +0.295 HD
ENDBRANCH   8   9
ENDBRANCH   1   8
TORSDOF 3
ENDMDL
MODEL 6
REMARK VINA RESULT:      -3.8      2.073      2.421
REMARK  Name = 71080
REMARK  3 active torsions:
REMARK  status: ('A' for Active; 'I' for Inactive)
REMARK    1  A    between atoms: CA_1  and  N_3
REMARK    2  A    between atoms: CA_1  and  C_8
REMARK    3  A    between atoms: C_8  and  O_9
REMARK                            x       y       z     vdW  Elec       q    Type
REMARK                         _______ _______ _______ _____ _____    ______ ____
ROOT
ATOM      1  CA  ALA A   1      37.183 -26.285 -13.445  0.00  0.00    +0.036 C 
ATOM      2  CB  ALA A   1      37.951 -25.445 -12.434  0.00  0.00    -0.013 C 
ENDROOT
BRANCH   1   3
ATOM      3  N   ALA A   1      35.974 -25.575 -13.858  0.00  0.00    +0.389 N 
ATOM      4  H1  ALA A   1      36.177 -25.005 -14.679  0.00  0.00    -0.088 HD
ATOM      5  H2  ALA A   1      35.656 -24.974 -13.097  0.00  0.00    -0.088 HD
ATOM      6  H3  ALA A   1      35.244 -26.251 -14.085  0.00  0.00    -0.088 HD
ENDBRANCH   1   3
BRANCH   1   8
ATOM      7  OXT ALA A   1      39.237 -26.677 -14.715  0.00  0.00    -0.253 OA
ATOM      8  C   ALA A   1      38.023 -26.541 -14.679  0.00  0.00    +0.293 C 
BRANCH   8   9
ATOM      9  O   ALA A   1      37.232 -26.618 -15.781  0.00  0.00    -0.482 OA
ATOM     10  H   ALA A   1      37.489 -27.154 -16.507  0.00  0.00    +0.295 HD
ENDBRANCH   8   9
ENDBRANCH   1   8
TORSDOF 3
ENDMDL
MODEL 7
REMARK VINA RESULT:      -3.8     13.028     13.368
REMARK  Name = 71080
REMARK  3 active torsions:
REMARK  status: ('A' for Active; 'I' for Inactive)
REMARK    1  A    between atoms: CA_1  and  N_3
REMARK    2  A    between atoms: CA_1  and  C_8
REMARK    3  A    between atoms: C_8  and  O_9
REMARK                            x       y       z     vdW  Elec       q    Type
REMARK                         _______ _______ _______ _____ _____    ______ ____
ROOT
ATOM      1  CA  ALA A   1      34.884 -18.066 -23.769  0.00  0.00    +0.036 C 
ATOM      2  CB  ALA A   1      34.618 -19.272 -24.659  0.00  0.00    -0.013 C 
ENDROOT
BRANCH   1   3
ATOM      3  N   ALA A   1      36.148 -18.248 -23.057  0.00  0.00    +0.389 N 
ATOM      4  H1  ALA A   1      36.819 -18.711 -23.669  0.00  0.00    -0.088 HD
ATOM      5  H2  ALA A   1      35.991 -18.822 -22.228  0.00  0.00    -0.088 HD
ATOM      6  H3  ALA A   1      36.514 -17.339 -22.777  0.00  0.00    -0.088 HD
ENDBRANCH   1   3
BRANCH   1   8
ATOM      7  OXT ALA A   1      34.699 -16.680 -25.776  0.00  0.00    -0.253 OA
ATOM      8  C   ALA A   1      34.987 -16.800 -24.594  0.00  0.00    +0.293 C 
BRANCH   8   9
ATOM      9  O   ALA A   1      35.442 -15.774 -23.830  0.00  0.00    -0.482 OA
ATOM     10  H   ALA A   1      35.257 -14.888 -24.076  0.00  0.00    +0.295 HD
ENDBRANCH   8   9
ENDBRANCH   1   8
TORSDOF 3
ENDMDL
MODEL 8
REMARK VINA RESULT:      -3.8      4.662      5.042
REMARK  Name = 71080
REMARK  3 active torsions:
REMARK  status: ('A' for Active; 'I' for Inactive)
REMARK    1  A    between atoms: CA_1  and  N_3
REMARK    2  A    between atoms: CA_1  and  C_8
REMARK    3  A    between atoms: C_8  and  O_9
REMARK                            x       y       z     vdW  Elec       q    Type
REMARK                         _______ _______ _______ _____ _____    ______ ____
ROOT
ATOM      1  CA  ALA A   1      36.345 -24.896 -12.897  0.00  0.00    +0.036 C 
ATOM      2  CB  ALA A   1      37.306 -26.010 -12.508  0.00  0.00    -0.013 C 
ENDROOT
BRANCH   1   3
ATOM      3  N   ALA A   1      35.546 -25.313 -14.048  0.00  0.00    +0.389 N 
ATOM      4  H1  ALA A   1      35.403 -24.517 -14.670  0.00  0.00    -0.088 HD
ATOM      5  H2  ALA A   1      34.641 -25.660 -13.726  0.00  0.00    -0.088 HD
ATOM      6  H3  ALA A   1      36.035 -26.053 -14.551  0.00  0.00    -0.088 HD
ENDBRANCH   1   3
BRANCH   1   8
ATOM      7  OXT ALA A   1      35.370 -25.127 -10.665  0.00  0.00    -0.253 OA
ATOM      8  C   ALA A   1      35.399 -24.579 -11.758  0.00  0.00    +0.293 C 
BRANCH   8   9
ATOM      9  O   ALA A   1      34.563 -23.566 -12.106  0.00  0.00    -0.482 OA
ATOM     10  H   ALA A   1      34.558 -22.771 -11.609  0.00  0.00    +0.295 HD
ENDBRANCH   8   9
ENDBRANCH   1   8
TORSDOF 3
ENDMDL
MODEL 9
REMARK VINA RESULT:      -3.8      2.321      2.861
REMARK  Name = 71080
REMARK  3 active torsions:
REMARK  status: ('A' for Active; 'I' for Inactive)
REMARK    1  A    between atoms: CA_1  and  N_3
REMARK    2  A    between atoms: CA_1  and  C_8
REMARK    3  A    between atoms: C_8  and  O_9
REMARK                            x       y       z     vdW  Elec       q    Type
REMARK                         _______ _______ _______ _____ _____    ______ ____
ROOT
ATOM      1  CA  ALA A   1      37.368 -25.152 -14.417  0.00  0.00    +0.036 C 
ATOM      2  CB  ALA A   1      38.194 -25.248 -13.141  0.00  0.00    -0.013 C 
ENDROOT
BRANCH   1   3
ATOM      3  N   ALA A   1      38.025 -24.250 -15.362  0.00  0.00    +0.389 N 
ATOM      4  H1  ALA A   1      37.952 -24.633 -16.304  0.00  0.00    -0.088 HD
ATOM      5  H2  ALA A   1      39.009 -24.152 -15.110  0.00  0.00    -0.088 HD
ATOM      6  H3  ALA A   1      37.573 -23.337 -15.330  0.00  0.00    -0.088 HD
ENDBRANCH   1   3
BRANCH   1   8
ATOM      7  OXT ALA A   1      36.321 -26.877 -15.800  0.00  0.00    -0.253 OA
ATOM      8  C   ALA A   1      37.236 -26.508 -15.076  0.00  0.00    +0.293 C 
BRANCH   8   9
ATOM      9  O   ALA A   1      38.301 -27.291 -14.766  0.00  0.00    -0.482 OA
ATOM     10  H   ALA A   1      38.187 -28.214 -14.647  0.00  0.00    +0.295 HD
ENDBRANCH   8   9
ENDBRANCH   1   8
TORSDOF 3
ENDMDL
