MODEL 1
REMARK VINA RESULT:      -9.6      0.000      0.000
REMARK  Name = 5577
REMARK  10 active torsions:
REMARK  status: ('A' for Active; 'I' for Inactive)
REMARK    1  A    between atoms: N_2  and  C_17
REMARK    2  A    between atoms: C_3  and  C_5
REMARK    3  A    between atoms: C_8  and  O_11
REMARK    4  A    between atoms: C_9  and  O_13
REMARK    5  A    between atoms: C_10  and  O_15
REMARK    6  A    between atoms: C_17  and  C_18
REMARK    7  A    between atoms: C_19  and  O_24
REMARK    8  A    between atoms: O_24  and  C_25
REMARK    9  A    between atoms: C_25  and  C_26
REMARK   10  A    between atoms: C_26  and  N_27
REMARK                            x       y       z     vdW  Elec       q    Type
REMARK                         _______ _______ _______ _____ _____    ______ ____
ROOT
ATOM      1  O   UNL     1      35.221 -16.285 -20.060  0.00  0.00    -0.270 OA
ATOM      2  N   UNL     1      35.072 -17.270 -22.155  0.00  0.00    -0.297 N 
ATOM      3  C   UNL     1      34.841 -16.262 -21.228  0.00  0.00    +0.246 C 
ATOM      4  H   UNL     1      34.725 -17.159 -23.070  0.00  0.00    +0.150 HD
ENDROOT
BRANCH   3   5
ATOM      5  C   UNL     1      34.054 -15.100 -21.712  0.00  0.00    +0.060 C 
ATOM      6  C   UNL     1      34.255 -14.609 -23.002  0.00  0.00    +0.045 C 
ATOM      7  C   UNL     1      33.114 -14.497 -20.875  0.00  0.00    +0.045 C 
ATOM      8  C   UNL     1      32.375 -13.404 -21.329  0.00  0.00    +0.176 C 
ATOM      9  C   UNL     1      33.516 -13.516 -23.456  0.00  0.00    +0.176 C 
ATOM     10  C   UNL     1      32.577 -12.913 -22.619  0.00  0.00    +0.206 C 
BRANCH   8  11
ATOM     11  O   UNL     1      31.462 -12.823 -20.503  0.00  0.00    -0.468 OA
ATOM     12  C   UNL     1      31.906 -11.712 -19.725  0.00  0.00    +0.253 C 
ENDBRANCH   8  11
BRANCH   9  13
ATOM     13  O   UNL     1      33.723 -13.048 -24.717  0.00  0.00    -0.468 OA
ATOM     14  C   UNL     1      33.117 -13.771 -25.786  0.00  0.00    +0.253 C 
ENDBRANCH   9  13
BRANCH  10  15
ATOM     15  O   UNL     1      31.854 -11.846 -23.063  0.00  0.00    -0.465 OA
ATOM     16  C   UNL     1      32.483 -10.568 -23.000  0.00  0.00    +0.253 C 
ENDBRANCH  10  15
ENDBRANCH   3   5
BRANCH   2  17
ATOM     17  C   UNL     1      35.798 -18.471 -21.831  0.00  0.00    +0.117 C 
BRANCH  17  18
ATOM     18  C   UNL     1      34.973 -19.440 -21.054  0.00  0.00    -0.002 C 
ATOM     19  C   UNL     1      33.428 -21.252 -19.601  0.00  0.00    +0.138 C 
ATOM     20  C   UNL     1      33.581 -19.366 -21.103  0.00  0.00    +0.000 C 
ATOM     21  C   UNL     1      35.592 -20.419 -20.278  0.00  0.00    +0.000 C 
ATOM     22  C   UNL     1      32.809 -20.272 -20.377  0.00  0.00    +0.037 C 
ATOM     23  C   UNL     1      34.820 -21.325 -19.551  0.00  0.00    +0.037 C 
BRANCH  19  24
ATOM     24  O   UNL     1      32.668 -22.141 -18.886  0.00  0.00    -0.478 OA
BRANCH  24  25
ATOM     25  C   UNL     1      33.354 -22.955 -17.943  0.00  0.00    +0.183 C 
BRANCH  25  26
ATOM     26  C   UNL     1      32.423 -23.235 -16.774  0.00  0.00    -0.029 C 
BRANCH  26  27
ATOM     27  N   UNL     1      33.158 -23.198 -15.509  0.00  0.00    +0.387 N 
ATOM     28  C   UNL     1      32.592 -24.158 -14.561  0.00  0.00    -0.101 C 
ATOM     29  C   UNL     1      34.576 -23.475 -15.733  0.00  0.00    -0.101 C 
ATOM     30  H   UNL     1      33.070 -22.262 -15.112  0.00  0.00    -0.080 HD
ENDBRANCH  26  27
ENDBRANCH  25  26
ENDBRANCH  24  25
ENDBRANCH  19  24
ENDBRANCH  17  18
ENDBRANCH   2  17
TORSDOF 10
ENDMDL
MODEL 2
REMARK VINA RESULT:      -9.6      2.628     10.434
REMARK  Name = 5577
REMARK  10 active torsions:
REMARK  status: ('A' for Active; 'I' for Inactive)
REMARK    1  A    between atoms: N_2  and  C_17
REMARK    2  A    between atoms: C_3  and  C_5
REMARK    3  A    between atoms: C_8  and  O_11
REMARK    4  A    between atoms: C_9  and  O_13
REMARK    5  A    between atoms: C_10  and  O_15
REMARK    6  A    between atoms: C_17  and  C_18
REMARK    7  A    between atoms: C_19  and  O_24
REMARK    8  A    between atoms: O_24  and  C_25
REMARK    9  A    between atoms: C_25  and  C_26
REMARK   10  A    between atoms: C_26  and  N_27
REMARK                            x       y       z     vdW  Elec       q    Type
REMARK                         _______ _______ _______ _____ _____    ______ ____
ROOT
ATOM      1  O   UNL     1      33.811 -23.609 -19.410  0.00  0.00    -0.270 OA
ATOM      2  N   UNL     1      35.206 -22.007 -18.477  0.00  0.00    -0.297 N 
ATOM      3  C   UNL     1      34.196 -22.958 -18.441  0.00  0.00    +0.246 C 
ATOM      4  H   UNL     1      35.442 -21.537 -17.645  0.00  0.00    +0.150 HD
ENDROOT
BRANCH   3   5
ATOM      5  C   UNL     1      33.537 -23.160 -17.125  0.00  0.00    +0.060 C 
ATOM      6  C   UNL     1      34.274 -23.640 -16.043  0.00  0.00    +0.045 C 
ATOM      7  C   UNL     1      32.180 -22.872 -16.972  0.00  0.00    +0.045 C 
ATOM      8  C   UNL     1      31.562 -23.063 -15.737  0.00  0.00    +0.176 C 
ATOM      9  C   UNL     1      33.655 -23.831 -14.808  0.00  0.00    +0.176 C 
ATOM     10  C   UNL     1      32.299 -23.543 -14.654  0.00  0.00    +0.206 C 
BRANCH   8  11
ATOM     11  O   UNL     1      30.237 -22.779 -15.601  0.00  0.00    -0.468 OA
ATOM     12  C   UNL     1      29.330 -23.509 -16.425  0.00  0.00    +0.253 C 
ENDBRANCH   8  11
BRANCH   9  13
ATOM     13  O   UNL     1      34.386 -24.301 -13.759  0.00  0.00    -0.468 OA
ATOM     14  C   UNL     1      35.783 -24.490 -13.975  0.00  0.00    +0.253 C 
ENDBRANCH   9  13
BRANCH  10  15
ATOM     15  O   UNL     1      31.694 -23.729 -13.446  0.00  0.00    -0.465 OA
ATOM     16  C   UNL     1      30.936 -24.924 -13.280  0.00  0.00    +0.253 C 
ENDBRANCH  10  15
ENDBRANCH   3   5
BRANCH   2  17
ATOM     17  C   UNL     1      35.922 -21.680 -19.684  0.00  0.00    +0.117 C 
BRANCH  17  18
ATOM     18  C   UNL     1      35.422 -20.427 -20.318  0.00  0.00    -0.002 C 
ATOM     19  C   UNL     1      34.486 -18.083 -21.505  0.00  0.00    +0.138 C 
ATOM     20  C   UNL     1      34.050 -20.210 -20.446  0.00  0.00    +0.000 C 
ATOM     21  C   UNL     1      36.326 -19.472 -20.784  0.00  0.00    +0.000 C 
ATOM     22  C   UNL     1      33.582 -19.038 -21.040  0.00  0.00    +0.037 C 
ATOM     23  C   UNL     1      35.858 -18.300 -21.378  0.00  0.00    +0.037 C 
BRANCH  19  24
ATOM     24  O   UNL     1      34.026 -16.931 -22.089  0.00  0.00    -0.478 OA
BRANCH  24  25
ATOM     25  C   UNL     1      34.979 -16.144 -22.792  0.00  0.00    +0.183 C 
BRANCH  25  26
ATOM     26  C   UNL     1      34.554 -16.046 -24.247  0.00  0.00    -0.029 C 
BRANCH  26  27
ATOM     27  N   UNL     1      33.467 -15.080 -24.404  0.00  0.00    +0.387 N 
ATOM     28  C   UNL     1      33.839 -13.793 -23.817  0.00  0.00    -0.101 C 
ATOM     29  C   UNL     1      33.125 -14.918 -25.817  0.00  0.00    -0.101 C 
ATOM     30  H   UNL     1      32.646 -15.434 -23.911  0.00  0.00    -0.080 HD
ENDBRANCH  26  27
ENDBRANCH  25  26
ENDBRANCH  24  25
ENDBRANCH  19  24
ENDBRANCH  17  18
ENDBRANCH   2  17
TORSDOF 10
ENDMDL
MODEL 3
REMARK VINA RESULT:      -9.6      0.087      2.356
REMARK  Name = 5577
REMARK  10 active torsions:
REMARK  status: ('A' for Active; 'I' for Inactive)
REMARK    1  A    between atoms: N_2  and  C_17
REMARK    2  A    between atoms: C_3  and  C_5
REMARK    3  A    between atoms: C_8  and  O_11
REMARK    4  A    between atoms: C_9  and  O_13
REMARK    5  A    between atoms: C_10  and  O_15
REMARK    6  A    between atoms: C_17  and  C_18
REMARK    7  A    between atoms: C_19  and  O_24
REMARK    8  A    between atoms: O_24  and  C_25
REMARK    9  A    between atoms: C_25  and  C_26
REMARK   10  A    between atoms: C_26  and  N_27
REMARK                            x       y       z     vdW  Elec       q    Type
REMARK                         _______ _______ _______ _____ _____    ______ ____
ROOT
ATOM      1  O   UNL     1      35.284 -16.253 -20.109  0.00  0.00    -0.270 OA
ATOM      2  N   UNL     1      35.120 -17.256 -22.195  0.00  0.00    -0.297 N 
ATOM      3  C   UNL     1      34.893 -16.242 -21.274  0.00  0.00    +0.246 C 
ATOM      4  H   UNL     1      34.764 -17.155 -23.107  0.00  0.00    +0.150 HD
ENDROOT
BRANCH   3   5
ATOM      5  C   UNL     1      34.096 -15.087 -21.761  0.00  0.00    +0.060 C 
ATOM      6  C   UNL     1      33.141 -14.500 -20.932  0.00  0.00    +0.045 C 
ATOM      7  C   UNL     1      34.301 -14.591 -23.049  0.00  0.00    +0.045 C 
ATOM      8  C   UNL     1      33.551 -13.508 -23.507  0.00  0.00    +0.176 C 
ATOM      9  C   UNL     1      32.391 -13.417 -21.390  0.00  0.00    +0.176 C 
ATOM     10  C   UNL     1      32.596 -12.921 -22.677  0.00  0.00    +0.206 C 
BRANCH   8  11
ATOM     11  O   UNL     1      33.760 -13.034 -24.766  0.00  0.00    -0.468 OA
ATOM     12  C   UNL     1      33.225 -13.800 -25.844  0.00  0.00    +0.253 C 
ENDBRANCH   8  11
BRANCH   9  13
ATOM     13  O   UNL     1      31.461 -12.853 -20.570  0.00  0.00    -0.468 OA
ATOM     14  C   UNL     1      31.915 -11.845 -19.670  0.00  0.00    +0.253 C 
ENDBRANCH   9  13
BRANCH  10  15
ATOM     15  O   UNL     1      31.864 -11.861 -23.125  0.00  0.00    -0.465 OA
ATOM     16  C   UNL     1      32.411 -10.562 -22.916  0.00  0.00    +0.253 C 
ENDBRANCH  10  15
ENDBRANCH   3   5
BRANCH   2  17
ATOM     17  C   UNL     1      35.854 -18.452 -21.867  0.00  0.00    +0.117 C 
BRANCH  17  18
ATOM     18  C   UNL     1      35.031 -19.431 -21.100  0.00  0.00    -0.002 C 
ATOM     19  C   UNL     1      33.490 -21.260 -19.665  0.00  0.00    +0.138 C 
ATOM     20  C   UNL     1      33.639 -19.354 -21.142  0.00  0.00    +0.000 C 
ATOM     21  C   UNL     1      35.653 -20.422 -20.340  0.00  0.00    +0.000 C 
ATOM     22  C   UNL     1      32.869 -20.269 -20.425  0.00  0.00    +0.037 C 
ATOM     23  C   UNL     1      34.883 -21.336 -19.623  0.00  0.00    +0.037 C 
BRANCH  19  24
ATOM     24  O   UNL     1      32.733 -22.159 -18.960  0.00  0.00    -0.478 OA
BRANCH  24  25
ATOM     25  C   UNL     1      33.416 -22.966 -18.009  0.00  0.00    +0.183 C 
BRANCH  25  26
ATOM     26  C   UNL     1      32.494 -23.213 -16.826  0.00  0.00    -0.029 C 
BRANCH  26  27
ATOM     27  N   UNL     1      33.242 -23.170 -15.570  0.00  0.00    +0.387 N 
ATOM     28  C   UNL     1      32.680 -24.117 -14.608  0.00  0.00    -0.101 C 
ATOM     29  C   UNL     1      34.656 -23.460 -15.806  0.00  0.00    -0.101 C 
ATOM     30  H   UNL     1      33.166 -22.230 -15.180  0.00  0.00    -0.080 HD
ENDBRANCH  26  27
ENDBRANCH  25  26
ENDBRANCH  24  25
ENDBRANCH  19  24
ENDBRANCH  17  18
ENDBRANCH   2  17
TORSDOF 10
ENDMDL
MODEL 4
REMARK VINA RESULT:      -9.5      2.449     10.353
REMARK  Name = 5577
REMARK  10 active torsions:
REMARK  status: ('A' for Active; 'I' for Inactive)
REMARK    1  A    between atoms: N_2  and  C_17
REMARK    2  A    between atoms: C_3  and  C_5
REMARK    3  A    between atoms: C_8  and  O_11
REMARK    4  A    between atoms: C_9  and  O_13
REMARK    5  A    between atoms: C_10  and  O_15
REMARK    6  A    between atoms: C_17  and  C_18
REMARK    7  A    between atoms: C_19  and  O_24
REMARK    8  A    between atoms: O_24  and  C_25
REMARK    9  A    between atoms: C_25  and  C_26
REMARK   10  A    between atoms: C_26  and  N_27
REMARK                            x       y       z     vdW  Elec       q    Type
REMARK                         _______ _______ _______ _____ _____    ______ ____
ROOT
ATOM      1  O   UNL     1      33.815 -23.848 -19.126  0.00  0.00    -0.270 OA
ATOM      2  N   UNL     1      34.982 -22.056 -18.227  0.00  0.00    -0.297 N 
ATOM      3  C   UNL     1      34.032 -23.069 -18.202  0.00  0.00    +0.246 C 
ATOM      4  H   UNL     1      35.080 -21.481 -17.435  0.00  0.00    +0.150 HD
ENDROOT
BRANCH   3   5
ATOM      5  C   UNL     1      33.222 -23.171 -16.961  0.00  0.00    +0.060 C 
ATOM      6  C   UNL     1      31.847 -22.942 -17.005  0.00  0.00    +0.045 C 
ATOM      7  C   UNL     1      33.837 -23.493 -15.751  0.00  0.00    +0.045 C 
ATOM      8  C   UNL     1      33.076 -23.587 -14.585  0.00  0.00    +0.176 C 
ATOM      9  C   UNL     1      31.086 -23.036 -15.840  0.00  0.00    +0.176 C 
ATOM     10  C   UNL     1      31.701 -23.358 -14.629  0.00  0.00    +0.206 C 
BRANCH   8  11
ATOM     11  O   UNL     1      33.688 -23.901 -13.410  0.00  0.00    -0.468 OA
ATOM     12  C   UNL     1      35.044 -24.339 -13.482  0.00  0.00    +0.253 C 
ENDBRANCH   8  11
BRANCH   9  13
ATOM     13  O   UNL     1      29.745 -22.810 -15.897  0.00  0.00    -0.468 OA
ATOM     14  C   UNL     1      28.928 -23.871 -16.388  0.00  0.00    +0.253 C 
ENDBRANCH   9  13
BRANCH  10  15
ATOM     15  O   UNL     1      30.957 -23.451 -13.490  0.00  0.00    -0.465 OA
ATOM     16  C   UNL     1      30.497 -24.749 -13.122  0.00  0.00    +0.253 C 
ENDBRANCH  10  15
ENDBRANCH   3   5
BRANCH   2  17
ATOM     17  C   UNL     1      35.828 -21.814 -19.368  0.00  0.00    +0.117 C 
BRANCH  17  18
ATOM     18  C   UNL     1      35.393 -20.624 -20.154  0.00  0.00    -0.002 C 
ATOM     19  C   UNL     1      34.578 -18.399 -21.626  0.00  0.00    +0.138 C 
ATOM     20  C   UNL     1      34.038 -20.418 -20.414  0.00  0.00    +0.000 C 
ATOM     21  C   UNL     1      36.340 -19.718 -20.631  0.00  0.00    +0.000 C 
ATOM     22  C   UNL     1      33.630 -19.305 -21.149  0.00  0.00    +0.037 C 
ATOM     23  C   UNL     1      35.933 -18.606 -21.367  0.00  0.00    +0.037 C 
BRANCH  19  24
ATOM     24  O   UNL     1      34.177 -17.305 -22.349  0.00  0.00    -0.478 OA
BRANCH  24  25
ATOM     25  C   UNL     1      34.754 -16.055 -21.993  0.00  0.00    +0.183 C 
BRANCH  25  26
ATOM     26  C   UNL     1      34.586 -15.092 -23.156  0.00  0.00    -0.029 C 
BRANCH  26  27
ATOM     27  N   UNL     1      33.959 -13.848 -22.710  0.00  0.00    +0.387 N 
ATOM     28  C   UNL     1      33.712 -12.963 -23.847  0.00  0.00    -0.101 C 
ATOM     29  C   UNL     1      32.711 -14.129 -22.001  0.00  0.00    -0.101 C 
ATOM     30  H   UNL     1      34.597 -13.377 -22.066  0.00  0.00    -0.080 HD
ENDBRANCH  26  27
ENDBRANCH  25  26
ENDBRANCH  24  25
ENDBRANCH  19  24
ENDBRANCH  17  18
ENDBRANCH   2  17
TORSDOF 10
ENDMDL
MODEL 5
REMARK VINA RESULT:      -9.4      1.627      2.227
REMARK  Name = 5577
REMARK  10 active torsions:
REMARK  status: ('A' for Active; 'I' for Inactive)
REMARK    1  A    between atoms: N_2  and  C_17
REMARK    2  A    between atoms: C_3  and  C_5
REMARK    3  A    between atoms: C_8  and  O_11
REMARK    4  A    between atoms: C_9  and  O_13
REMARK    5  A    between atoms: C_10  and  O_15
REMARK    6  A    between atoms: C_17  and  C_18
REMARK    7  A    between atoms: C_19  and  O_24
REMARK    8  A    between atoms: O_24  and  C_25
REMARK    9  A    between atoms: C_25  and  C_26
REMARK   10  A    between atoms: C_26  and  N_27
REMARK                            x       y       z     vdW  Elec       q    Type
REMARK                         _______ _______ _______ _____ _____    ______ ____
ROOT
ATOM      1  O   UNL     1      35.377 -19.019 -23.831  0.00  0.00    -0.270 OA
ATOM      2  N   UNL     1      35.764 -18.192 -21.699  0.00  0.00    -0.297 N 
ATOM      3  C   UNL     1      35.301 -18.113 -23.005  0.00  0.00    +0.246 C 
ATOM      4  H   UNL     1      35.658 -17.409 -21.112  0.00  0.00    +0.150 HD
ENDROOT
BRANCH   3   5
ATOM      5  C   UNL     1      34.698 -16.815 -23.405  0.00  0.00    +0.060 C 
ATOM      6  C   UNL     1      34.490 -16.529 -24.753  0.00  0.00    +0.045 C 
ATOM      7  C   UNL     1      34.344 -15.881 -22.430  0.00  0.00    +0.045 C 
ATOM      8  C   UNL     1      33.779 -14.662 -22.806  0.00  0.00    +0.176 C 
ATOM      9  C   UNL     1      33.926 -15.310 -25.129  0.00  0.00    +0.176 C 
ATOM     10  C   UNL     1      33.571 -14.376 -24.155  0.00  0.00    +0.206 C 
BRANCH   8  11
ATOM     11  O   UNL     1      33.438 -13.759 -21.846  0.00  0.00    -0.468 OA
ATOM     12  C   UNL     1      32.825 -14.270 -20.664  0.00  0.00    +0.253 C 
ENDBRANCH   8  11
BRANCH   9  13
ATOM     13  O   UNL     1      33.728 -15.043 -26.449  0.00  0.00    -0.468 OA
ATOM     14  C   UNL     1      32.384 -15.084 -26.926  0.00  0.00    +0.253 C 
ENDBRANCH   9  13
BRANCH  10  15
ATOM     15  O   UNL     1      33.018 -13.185 -24.522  0.00  0.00    -0.465 OA
ATOM     16  C   UNL     1      33.917 -12.115 -24.807  0.00  0.00    +0.253 C 
ENDBRANCH  10  15
ENDBRANCH   3   5
BRANCH   2  17
ATOM     17  C   UNL     1      36.395 -19.374 -21.170  0.00  0.00    +0.117 C 
BRANCH  17  18
ATOM     18  C   UNL     1      35.440 -20.242 -20.423  0.00  0.00    -0.002 C 
ATOM     19  C   UNL     1      33.653 -21.867 -19.027  0.00  0.00    +0.138 C 
ATOM     20  C   UNL     1      35.921 -21.241 -19.577  0.00  0.00    +0.000 C 
ATOM     21  C   UNL     1      34.066 -20.055 -20.571  0.00  0.00    +0.000 C 
ATOM     22  C   UNL     1      35.027 -22.053 -18.879  0.00  0.00    +0.037 C 
ATOM     23  C   UNL     1      33.172 -20.868 -19.874  0.00  0.00    +0.037 C 
BRANCH  19  24
ATOM     24  O   UNL     1      32.775 -22.665 -18.341  0.00  0.00    -0.478 OA
BRANCH  24  25
ATOM     25  C   UNL     1      33.319 -23.473 -17.305  0.00  0.00    +0.183 C 
BRANCH  25  26
ATOM     26  C   UNL     1      32.463 -23.311 -16.060  0.00  0.00    -0.029 C 
BRANCH  26  27
ATOM     27  N   UNL     1      33.301 -23.059 -14.887  0.00  0.00    +0.387 N 
ATOM     28  C   UNL     1      32.998 -24.020 -13.827  0.00  0.00    -0.101 C 
ATOM     29  C   UNL     1      34.717 -23.123 -15.246  0.00  0.00    -0.101 C 
ATOM     30  H   UNL     1      33.098 -22.120 -14.540  0.00  0.00    -0.080 HD
ENDBRANCH  26  27
ENDBRANCH  25  26
ENDBRANCH  24  25
ENDBRANCH  19  24
ENDBRANCH  17  18
ENDBRANCH   2  17
TORSDOF 10
ENDMDL
MODEL 6
REMARK VINA RESULT:      -9.3      1.600      3.050
REMARK  Name = 5577
REMARK  10 active torsions:
REMARK  status: ('A' for Active; 'I' for Inactive)
REMARK    1  A    between atoms: N_2  and  C_17
REMARK    2  A    between atoms: C_3  and  C_5
REMARK    3  A    between atoms: C_8  and  O_11
REMARK    4  A    between atoms: C_9  and  O_13
REMARK    5  A    between atoms: C_10  and  O_15
REMARK    6  A    between atoms: C_17  and  C_18
REMARK    7  A    between atoms: C_19  and  O_24
REMARK    8  A    between atoms: O_24  and  C_25
REMARK    9  A    between atoms: C_25  and  C_26
REMARK   10  A    between atoms: C_26  and  N_27
REMARK                            x       y       z     vdW  Elec       q    Type
REMARK                         _______ _______ _______ _____ _____    ______ ____
ROOT
ATOM      1  O   UNL     1      35.650 -18.716 -23.640  0.00  0.00    -0.270 OA
ATOM      2  N   UNL     1      35.705 -18.137 -21.394  0.00  0.00    -0.297 N 
ATOM      3  C   UNL     1      35.396 -17.928 -22.732  0.00  0.00    +0.246 C 
ATOM      4  H   UNL     1      35.461 -17.445 -20.739  0.00  0.00    +0.150 HD
ENDROOT
BRANCH   3   5
ATOM      5  C   UNL     1      34.734 -16.639 -23.053  0.00  0.00    +0.060 C 
ATOM      6  C   UNL     1      34.287 -15.809 -22.026  0.00  0.00    +0.045 C 
ATOM      7  C   UNL     1      34.555 -16.259 -24.384  0.00  0.00    +0.045 C 
ATOM      8  C   UNL     1      33.931 -15.048 -24.686  0.00  0.00    +0.176 C 
ATOM      9  C   UNL     1      33.663 -14.599 -22.328  0.00  0.00    +0.176 C 
ATOM     10  C   UNL     1      33.485 -14.218 -23.658  0.00  0.00    +0.206 C 
BRANCH   8  11
ATOM     11  O   UNL     1      33.762 -14.689 -25.989  0.00  0.00    -0.468 OA
ATOM     12  C   UNL     1      32.592 -15.171 -26.647  0.00  0.00    +0.253 C 
ENDBRANCH   8  11
BRANCH   9  13
ATOM     13  O   UNL     1      33.231 -13.798 -21.314  0.00  0.00    -0.468 OA
ATOM     14  C   UNL     1      32.589 -14.435 -20.212  0.00  0.00    +0.253 C 
ENDBRANCH   9  13
BRANCH  10  15
ATOM     15  O   UNL     1      32.875 -13.035 -23.953  0.00  0.00    -0.465 OA
ATOM     16  C   UNL     1      33.716 -11.892 -24.096  0.00  0.00    +0.253 C 
ENDBRANCH  10  15
ENDBRANCH   3   5
BRANCH   2  17
ATOM     17  C   UNL     1      36.371 -19.327 -20.929  0.00  0.00    +0.117 C 
BRANCH  17  18
ATOM     18  C   UNL     1      35.432 -20.285 -20.278  0.00  0.00    -0.002 C 
ATOM     19  C   UNL     1      33.672 -22.076 -19.062  0.00  0.00    +0.138 C 
ATOM     20  C   UNL     1      34.058 -20.163 -20.486  0.00  0.00    +0.000 C 
ATOM     21  C   UNL     1      35.926 -21.303 -19.462  0.00  0.00    +0.000 C 
ATOM     22  C   UNL     1      33.178 -21.059 -19.878  0.00  0.00    +0.037 C 
ATOM     23  C   UNL     1      35.046 -22.198 -18.854  0.00  0.00    +0.037 C 
BRANCH  19  24
ATOM     24  O   UNL     1      32.808 -22.955 -18.464  0.00  0.00    -0.478 OA
BRANCH  24  25
ATOM     25  C   UNL     1      32.985 -23.180 -17.071  0.00  0.00    +0.183 C 
BRANCH  25  26
ATOM     26  C   UNL     1      31.621 -23.175 -16.399  0.00  0.00    -0.029 C 
BRANCH  26  27
ATOM     27  N   UNL     1      31.654 -23.950 -15.159  0.00  0.00    +0.387 N 
ATOM     28  C   UNL     1      31.750 -23.061 -14.002  0.00  0.00    -0.101 C 
ATOM     29  C   UNL     1      30.467 -24.798 -15.054  0.00  0.00    -0.101 C 
ATOM     30  H   UNL     1      32.479 -24.551 -15.175  0.00  0.00    -0.080 HD
ENDBRANCH  26  27
ENDBRANCH  25  26
ENDBRANCH  24  25
ENDBRANCH  19  24
ENDBRANCH  17  18
ENDBRANCH   2  17
TORSDOF 10
ENDMDL
MODEL 7
REMARK VINA RESULT:      -9.3      2.350      4.919
REMARK  Name = 5577
REMARK  10 active torsions:
REMARK  status: ('A' for Active; 'I' for Inactive)
REMARK    1  A    between atoms: N_2  and  C_17
REMARK    2  A    between atoms: C_3  and  C_5
REMARK    3  A    between atoms: C_8  and  O_11
REMARK    4  A    between atoms: C_9  and  O_13
REMARK    5  A    between atoms: C_10  and  O_15
REMARK    6  A    between atoms: C_17  and  C_18
REMARK    7  A    between atoms: C_19  and  O_24
REMARK    8  A    between atoms: O_24  and  C_25
REMARK    9  A    between atoms: C_25  and  C_26
REMARK   10  A    between atoms: C_26  and  N_27
REMARK                            x       y       z     vdW  Elec       q    Type
REMARK                         _______ _______ _______ _____ _____    ______ ____
ROOT
ATOM      1  O   UNL     1      33.818 -12.247 -25.488  0.00  0.00    -0.270 OA
ATOM      2  N   UNL     1      33.600 -13.627 -23.636  0.00  0.00    -0.297 N 
ATOM      3  C   UNL     1      33.516 -12.415 -24.309  0.00  0.00    +0.246 C 
ATOM      4  H   UNL     1      33.336 -13.661 -22.689  0.00  0.00    +0.150 HD
ENDROOT
BRANCH   3   5
ATOM      5  C   UNL     1      33.049 -11.256 -23.507  0.00  0.00    +0.060 C 
ATOM      6  C   UNL     1      32.208 -11.458 -22.413  0.00  0.00    +0.045 C 
ATOM      7  C   UNL     1      33.449  -9.964 -23.849  0.00  0.00    +0.045 C 
ATOM      8  C   UNL     1      33.009  -8.875 -23.097  0.00  0.00    +0.176 C 
ATOM      9  C   UNL     1      31.767 -10.369 -21.661  0.00  0.00    +0.176 C 
ATOM     10  C   UNL     1      32.167  -9.077 -22.003  0.00  0.00    +0.206 C 
BRANCH   8  11
ATOM     11  O   UNL     1      33.405  -7.619 -23.442  0.00  0.00    -0.468 OA
ATOM     12  C   UNL     1      34.800  -7.418 -23.666  0.00  0.00    +0.253 C 
ENDBRANCH   8  11
BRANCH   9  13
ATOM     13  O   UNL     1      30.946 -10.582 -20.595  0.00  0.00    -0.468 OA
ATOM     14  C   UNL     1      31.534 -11.143 -19.424  0.00  0.00    +0.253 C 
ENDBRANCH   9  13
BRANCH  10  15
ATOM     15  O   UNL     1      31.737  -8.013 -21.267  0.00  0.00    -0.465 OA
ATOM     16  C   UNL     1      32.600  -7.553 -20.230  0.00  0.00    +0.253 C 
ENDBRANCH  10  15
ENDBRANCH   3   5
BRANCH   2  17
ATOM     17  C   UNL     1      34.060 -14.837 -24.270  0.00  0.00    +0.117 C 
BRANCH  17  18
ATOM     18  C   UNL     1      34.501 -15.862 -23.283  0.00  0.00    -0.002 C 
ATOM     19  C   UNL     1      35.327 -17.781 -21.433  0.00  0.00    +0.138 C 
ATOM     20  C   UNL     1      34.476 -15.572 -21.919  0.00  0.00    +0.000 C 
ATOM     21  C   UNL     1      34.939 -17.112 -23.722  0.00  0.00    +0.000 C 
ATOM     22  C   UNL     1      34.889 -16.532 -20.994  0.00  0.00    +0.037 C 
ATOM     23  C   UNL     1      35.352 -18.071 -22.798  0.00  0.00    +0.037 C 
BRANCH  19  24
ATOM     24  O   UNL     1      35.734 -18.723 -20.525  0.00  0.00    -0.478 OA
BRANCH  24  25
ATOM     25  C   UNL     1      35.574 -20.086 -20.900  0.00  0.00    +0.183 C 
BRANCH  25  26
ATOM     26  C   UNL     1      34.497 -20.709 -20.027  0.00  0.00    -0.029 C 
BRANCH  26  27
ATOM     27  N   UNL     1      34.968 -21.965 -19.444  0.00  0.00    +0.387 N 
ATOM     28  C   UNL     1      36.139 -21.730 -18.601  0.00  0.00    -0.101 C 
ATOM     29  C   UNL     1      33.902 -22.602 -18.672  0.00  0.00    -0.101 C 
ATOM     30  H   UNL     1      35.236 -22.593 -20.203  0.00  0.00    -0.080 HD
ENDBRANCH  26  27
ENDBRANCH  25  26
ENDBRANCH  24  25
ENDBRANCH  19  24
ENDBRANCH  17  18
ENDBRANCH   2  17
TORSDOF 10
ENDMDL
MODEL 8
REMARK VINA RESULT:      -9.3      1.483      2.961
REMARK  Name = 5577
REMARK  10 active torsions:
REMARK  status: ('A' for Active; 'I' for Inactive)
REMARK    1  A    between atoms: N_2  and  C_17
REMARK    2  A    between atoms: C_3  and  C_5
REMARK    3  A    between atoms: C_8  and  O_11
REMARK    4  A    between atoms: C_9  and  O_13
REMARK    5  A    between atoms: C_10  and  O_15
REMARK    6  A    between atoms: C_17  and  C_18
REMARK    7  A    between atoms: C_19  and  O_24
REMARK    8  A    between atoms: O_24  and  C_25
REMARK    9  A    between atoms: C_25  and  C_26
REMARK   10  A    between atoms: C_26  and  N_27
REMARK                            x       y       z     vdW  Elec       q    Type
REMARK                         _______ _______ _______ _____ _____    ______ ____
ROOT
ATOM      1  O   UNL     1      35.487 -18.455 -23.742  0.00  0.00    -0.270 OA
ATOM      2  N   UNL     1      35.706 -17.966 -21.484  0.00  0.00    -0.297 N 
ATOM      3  C   UNL     1      35.317 -17.696 -22.790  0.00  0.00    +0.246 C 
ATOM      4  H   UNL     1      35.527 -17.293 -20.789  0.00  0.00    +0.150 HD
ENDROOT
BRANCH   3   5
ATOM      5  C   UNL     1      34.676 -16.377 -23.018  0.00  0.00    +0.060 C 
ATOM      6  C   UNL     1      34.389 -15.544 -21.938  0.00  0.00    +0.045 C 
ATOM      7  C   UNL     1      34.356 -15.972 -24.315  0.00  0.00    +0.045 C 
ATOM      8  C   UNL     1      33.752 -14.733 -24.530  0.00  0.00    +0.176 C 
ATOM      9  C   UNL     1      33.785 -14.305 -22.153  0.00  0.00    +0.176 C 
ATOM     10  C   UNL     1      33.466 -13.899 -23.449  0.00  0.00    +0.206 C 
BRANCH   8  11
ATOM     11  O   UNL     1      33.444 -14.350 -25.800  0.00  0.00    -0.468 OA
ATOM     12  C   UNL     1      32.707 -15.276 -26.596  0.00  0.00    +0.253 C 
ENDBRANCH   8  11
BRANCH   9  13
ATOM     13  O   UNL     1      33.511 -13.501 -21.088  0.00  0.00    -0.468 OA
ATOM     14  C   UNL     1      32.202 -13.587 -20.529  0.00  0.00    +0.253 C 
ENDBRANCH   9  13
BRANCH  10  15
ATOM     15  O   UNL     1      32.876 -12.688 -23.659  0.00  0.00    -0.465 OA
ATOM     16  C   UNL     1      33.735 -11.599 -23.988  0.00  0.00    +0.253 C 
ENDBRANCH  10  15
ENDBRANCH   3   5
BRANCH   2  17
ATOM     17  C   UNL     1      36.363 -19.192 -21.108  0.00  0.00    +0.117 C 
BRANCH  17  18
ATOM     18  C   UNL     1      35.437 -20.150 -20.439  0.00  0.00    -0.002 C 
ATOM     19  C   UNL     1      33.706 -21.943 -19.186  0.00  0.00    +0.138 C 
ATOM     20  C   UNL     1      35.950 -21.171 -19.638  0.00  0.00    +0.000 C 
ATOM     21  C   UNL     1      34.059 -20.026 -20.613  0.00  0.00    +0.000 C 
ATOM     22  C   UNL     1      35.084 -22.067 -19.012  0.00  0.00    +0.037 C 
ATOM     23  C   UNL     1      33.193 -20.922 -19.987  0.00  0.00    +0.037 C 
BRANCH  19  24
ATOM     24  O   UNL     1      32.855 -22.824 -18.571  0.00  0.00    -0.478 OA
BRANCH  24  25
ATOM     25  C   UNL     1      33.182 -23.208 -17.241  0.00  0.00    +0.183 C 
BRANCH  25  26
ATOM     26  C   UNL     1      31.904 -23.254 -16.420  0.00  0.00    -0.029 C 
BRANCH  26  27
ATOM     27  N   UNL     1      32.195 -23.049 -15.001  0.00  0.00    +0.387 N 
ATOM     28  C   UNL     1      31.058 -23.463 -14.180  0.00  0.00    -0.101 C 
ATOM     29  C   UNL     1      33.399 -23.785 -14.614  0.00  0.00    -0.101 C 
ATOM     30  H   UNL     1      32.361 -22.054 -14.845  0.00  0.00    -0.080 HD
ENDBRANCH  26  27
ENDBRANCH  25  26
ENDBRANCH  24  25
ENDBRANCH  19  24
ENDBRANCH  17  18
ENDBRANCH   2  17
TORSDOF 10
ENDMDL
MODEL 9
REMARK VINA RESULT:      -9.3      2.685     10.486
REMARK  Name = 5577
REMARK  10 active torsions:
REMARK  status: ('A' for Active; 'I' for Inactive)
REMARK    1  A    between atoms: N_2  and  C_17
REMARK    2  A    between atoms: C_3  and  C_5
REMARK    3  A    between atoms: C_8  and  O_11
REMARK    4  A    between atoms: C_9  and  O_13
REMARK    5  A    between atoms: C_10  and  O_15
REMARK    6  A    between atoms: C_17  and  C_18
REMARK    7  A    between atoms: C_19  and  O_24
REMARK    8  A    between atoms: O_24  and  C_25
REMARK    9  A    between atoms: C_25  and  C_26
REMARK   10  A    between atoms: C_26  and  N_27
REMARK                            x       y       z     vdW  Elec       q    Type
REMARK                         _______ _______ _______ _____ _____    ______ ____
ROOT
ATOM      1  O   UNL     1      37.064 -22.366 -16.259  0.00  0.00    -0.270 OA
ATOM      2  N   UNL     1      35.632 -22.133 -18.070  0.00  0.00    -0.297 N 
ATOM      3  C   UNL     1      35.950 -22.484 -16.765  0.00  0.00    +0.246 C 
ATOM      4  H   UNL     1      34.709 -22.267 -18.383  0.00  0.00    +0.150 HD
ENDROOT
BRANCH   3   5
ATOM      5  C   UNL     1      34.845 -23.062 -15.958  0.00  0.00    +0.060 C 
ATOM      6  C   UNL     1      35.072 -23.445 -14.637  0.00  0.00    +0.045 C 
ATOM      7  C   UNL     1      33.580 -23.225 -16.524  0.00  0.00    +0.045 C 
ATOM      8  C   UNL     1      32.543 -23.770 -15.767  0.00  0.00    +0.176 C 
ATOM      9  C   UNL     1      34.035 -23.989 -13.880  0.00  0.00    +0.176 C 
ATOM     10  C   UNL     1      32.770 -24.152 -14.445  0.00  0.00    +0.206 C 
BRANCH   8  11
ATOM     11  O   UNL     1      31.313 -23.925 -16.331  0.00  0.00    -0.468 OA
ATOM     12  C   UNL     1      30.516 -22.751 -16.480  0.00  0.00    +0.253 C 
ENDBRANCH   8  11
BRANCH   9  13
ATOM     13  O   UNL     1      34.271 -24.359 -12.591  0.00  0.00    -0.468 OA
ATOM     14  C   UNL     1      35.533 -23.998 -12.032  0.00  0.00    +0.253 C 
ENDBRANCH   9  13
BRANCH  10  15
ATOM     15  O   UNL     1      31.756 -24.684 -13.705  0.00  0.00    -0.465 OA
ATOM     16  C   UNL     1      30.868 -23.767 -13.070  0.00  0.00    +0.253 C 
ENDBRANCH  10  15
ENDBRANCH   3   5
BRANCH   2  17
ATOM     17  C   UNL     1      36.601 -21.583 -18.984  0.00  0.00    +0.117 C 
BRANCH  17  18
ATOM     18  C   UNL     1      36.000 -20.589 -19.917  0.00  0.00    -0.002 C 
ATOM     19  C   UNL     1      34.874 -18.729 -21.665  0.00  0.00    +0.138 C 
ATOM     20  C   UNL     1      34.631 -20.621 -20.182  0.00  0.00    +0.000 C 
ATOM     21  C   UNL     1      36.806 -19.627 -20.526  0.00  0.00    +0.000 C 
ATOM     22  C   UNL     1      34.068 -19.691 -21.056  0.00  0.00    +0.037 C 
ATOM     23  C   UNL     1      36.243 -18.697 -21.400  0.00  0.00    +0.037 C 
BRANCH  19  24
ATOM     24  O   UNL     1      34.320 -17.815 -22.524  0.00  0.00    -0.478 OA
BRANCH  24  25
ATOM     25  C   UNL     1      35.127 -16.699 -22.878  0.00  0.00    +0.183 C 
BRANCH  25  26
ATOM     26  C   UNL     1      34.560 -15.456 -22.210  0.00  0.00    -0.029 C 
BRANCH  26  27
ATOM     27  N   UNL     1      33.251 -15.121 -22.770  0.00  0.00    +0.387 N 
ATOM     28  C   UNL     1      32.478 -14.323 -21.820  0.00  0.00    -0.101 C 
ATOM     29  C   UNL     1      33.403 -14.404 -24.036  0.00  0.00    -0.101 C 
ATOM     30  H   UNL     1      32.744 -15.990 -22.950  0.00  0.00    -0.080 HD
ENDBRANCH  26  27
ENDBRANCH  25  26
ENDBRANCH  24  25
ENDBRANCH  19  24
ENDBRANCH  17  18
ENDBRANCH   2  17
TORSDOF 10
ENDMDL
