MODEL 1
REMARK VINA RESULT:      -9.3      0.000      0.000
REMARK  Name = 4409
REMARK  4 active torsions:
REMARK  status: ('A' for Active; 'I' for Inactive)
REMARK    1  A    between atoms: C_1  and  C_13
REMARK    2  A    between atoms: C_9  and  O_11
REMARK    3  A    between atoms: C_13  and  C_14
REMARK    4  A    between atoms: C_14  and  C_16
REMARK                            x       y       z     vdW  Elec       q    Type
REMARK                         _______ _______ _______ _____ _____    ______ ____
ROOT
ATOM      1  C   UNL     1      35.383 -18.179 -21.951  0.00  0.00    -0.022 C 
ATOM      2  C   UNL     1      34.277 -19.919 -20.659  0.00  0.00    -0.000 C 
ATOM      3  C   UNL     1      35.540 -20.401 -20.241  0.00  0.00    +0.003 C 
ATOM      4  C   UNL     1      34.215 -18.807 -21.515  0.00  0.00    -0.004 C 
ATOM      5  C   UNL     1      36.624 -18.653 -21.539  0.00  0.00    -0.004 C 
ATOM      6  C   UNL     1      36.704 -19.757 -20.690  0.00  0.00    -0.000 C 
ATOM      7  C   UNL     1      33.113 -20.564 -20.210  0.00  0.00    +0.003 C 
ATOM      8  C   UNL     1      35.601 -21.513 -19.385  0.00  0.00    +0.037 C 
ATOM      9  C   UNL     1      34.434 -22.140 -18.949  0.00  0.00    +0.139 C 
ATOM     10  C   UNL     1      33.192 -21.667 -19.361  0.00  0.00    +0.037 C 
ENDROOT
BRANCH   9  11
ATOM     11  O   UNL     1      34.510 -23.218 -18.120  0.00  0.00    -0.471 OA
ATOM     12  C   UNL     1      33.557 -23.292 -17.062  0.00  0.00    +0.252 C 
ENDBRANCH   9  11
BRANCH   1  13
ATOM     13  C   UNL     1      35.298 -17.000 -22.859  0.00  0.00    +0.034 C 
BRANCH  13  14
ATOM     14  C   UNL     1      34.680 -17.355 -24.216  0.00  0.00    +0.069 C 
BRANCH  14  16
ATOM     15  O   UNL     1      34.009 -16.072 -26.153  0.00  0.00    -0.296 OA
ATOM     16  C   UNL     1      34.078 -16.156 -24.928  0.00  0.00    +0.151 C 
ATOM     17  C   UNL     1      33.561 -15.050 -24.044  0.00  0.00    +0.072 C 
ENDBRANCH  14  16
ENDBRANCH  13  14
ENDBRANCH   1  13
TORSDOF 4
ENDMDL
MODEL 2
REMARK VINA RESULT:      -9.2      1.770      1.954
REMARK  Name = 4409
REMARK  4 active torsions:
REMARK  status: ('A' for Active; 'I' for Inactive)
REMARK    1  A    between atoms: C_1  and  C_13
REMARK    2  A    between atoms: C_9  and  O_11
REMARK    3  A    between atoms: C_13  and  C_14
REMARK    4  A    between atoms: C_14  and  C_16
REMARK                            x       y       z     vdW  Elec       q    Type
REMARK                         _______ _______ _______ _____ _____    ______ ____
ROOT
ATOM      1  C   UNL     1      34.958 -18.356 -22.092  0.00  0.00    -0.022 C 
ATOM      2  C   UNL     1      34.157 -20.104 -20.602  0.00  0.00    -0.000 C 
ATOM      3  C   UNL     1      35.487 -20.349 -20.185  0.00  0.00    +0.003 C 
ATOM      4  C   UNL     1      33.909 -19.105 -21.557  0.00  0.00    -0.004 C 
ATOM      5  C   UNL     1      36.266 -18.598 -21.682  0.00  0.00    -0.004 C 
ATOM      6  C   UNL     1      36.530 -19.587 -20.735  0.00  0.00    -0.000 C 
ATOM      7  C   UNL     1      33.113 -20.867 -20.051  0.00  0.00    +0.003 C 
ATOM      8  C   UNL     1      35.734 -21.349 -19.230  0.00  0.00    +0.037 C 
ATOM      9  C   UNL     1      34.684 -22.096 -18.694  0.00  0.00    +0.139 C 
ATOM     10  C   UNL     1      33.377 -21.856 -19.104  0.00  0.00    +0.037 C 
ENDROOT
BRANCH   9  11
ATOM     11  O   UNL     1      34.940 -23.063 -17.770  0.00  0.00    -0.471 OA
ATOM     12  C   UNL     1      33.900 -23.367 -16.843  0.00  0.00    +0.252 C 
ENDBRANCH   9  11
BRANCH   1  13
ATOM     13  C   UNL     1      34.677 -17.299 -23.105  0.00  0.00    +0.034 C 
BRANCH  13  14
ATOM     14  C   UNL     1      35.011 -15.896 -22.588  0.00  0.00    +0.069 C 
BRANCH  14  16
ATOM     15  O   UNL     1      34.888 -15.465 -20.211  0.00  0.00    -0.296 OA
ATOM     16  C   UNL     1      34.301 -15.555 -21.289  0.00  0.00    +0.151 C 
ATOM     17  C   UNL     1      32.814 -15.332 -21.384  0.00  0.00    +0.072 C 
ENDBRANCH  14  16
ENDBRANCH  13  14
ENDBRANCH   1  13
TORSDOF 4
ENDMDL
MODEL 3
REMARK VINA RESULT:      -9.1      0.870      1.910
REMARK  Name = 4409
REMARK  4 active torsions:
REMARK  status: ('A' for Active; 'I' for Inactive)
REMARK    1  A    between atoms: C_1  and  C_13
REMARK    2  A    between atoms: C_9  and  O_11
REMARK    3  A    between atoms: C_13  and  C_14
REMARK    4  A    between atoms: C_14  and  C_16
REMARK                            x       y       z     vdW  Elec       q    Type
REMARK                         _______ _______ _______ _____ _____    ______ ____
ROOT
ATOM      1  C   UNL     1      35.149 -18.988 -21.795  0.00  0.00    -0.022 C 
ATOM      2  C   UNL     1      35.532 -20.588 -20.003  0.00  0.00    -0.000 C 
ATOM      3  C   UNL     1      34.146 -20.870 -19.968  0.00  0.00    +0.003 C 
ATOM      4  C   UNL     1      36.018 -19.643 -20.922  0.00  0.00    -0.004 C 
ATOM      5  C   UNL     1      33.786 -19.266 -21.760  0.00  0.00    -0.004 C 
ATOM      6  C   UNL     1      33.286 -20.201 -20.853  0.00  0.00    -0.000 C 
ATOM      7  C   UNL     1      36.392 -21.257 -19.117  0.00  0.00    +0.003 C 
ATOM      8  C   UNL     1      33.661 -21.815 -19.048  0.00  0.00    +0.037 C 
ATOM      9  C   UNL     1      34.531 -22.470 -18.176  0.00  0.00    +0.139 C 
ATOM     10  C   UNL     1      35.893 -22.192 -18.209  0.00  0.00    +0.037 C 
ENDROOT
BRANCH   9  11
ATOM     11  O   UNL     1      34.045 -23.383 -17.289  0.00  0.00    -0.471 OA
ATOM     12  C   UNL     1      32.680 -23.243 -16.897  0.00  0.00    +0.252 C 
ENDBRANCH   9  11
BRANCH   1  13
ATOM     13  C   UNL     1      35.682 -17.989 -22.765  0.00  0.00    +0.034 C 
BRANCH  13  14
ATOM     14  C   UNL     1      35.022 -18.108 -24.143  0.00  0.00    +0.069 C 
BRANCH  14  16
ATOM     15  O   UNL     1      34.583 -16.553 -25.943  0.00  0.00    -0.296 OA
ATOM     16  C   UNL     1      34.627 -16.764 -24.732  0.00  0.00    +0.151 C 
ATOM     17  C   UNL     1      34.289 -15.679 -23.742  0.00  0.00    +0.072 C 
ENDBRANCH  14  16
ENDBRANCH  13  14
ENDBRANCH   1  13
TORSDOF 4
ENDMDL
MODEL 4
REMARK VINA RESULT:      -8.7      1.512      7.286
REMARK  Name = 4409
REMARK  4 active torsions:
REMARK  status: ('A' for Active; 'I' for Inactive)
REMARK    1  A    between atoms: C_1  and  C_13
REMARK    2  A    between atoms: C_9  and  O_11
REMARK    3  A    between atoms: C_13  and  C_14
REMARK    4  A    between atoms: C_14  and  C_16
REMARK                            x       y       z     vdW  Elec       q    Type
REMARK                         _______ _______ _______ _____ _____    ______ ____
ROOT
ATOM      1  C   UNL     1      35.416 -18.763 -21.639  0.00  0.00    -0.022 C 
ATOM      2  C   UNL     1      34.752 -16.457 -22.038  0.00  0.00    -0.000 C 
ATOM      3  C   UNL     1      34.584 -16.751 -23.413  0.00  0.00    +0.003 C 
ATOM      4  C   UNL     1      35.169 -17.474 -21.165  0.00  0.00    -0.004 C 
ATOM      5  C   UNL     1      35.250 -19.051 -22.991  0.00  0.00    -0.004 C 
ATOM      6  C   UNL     1      34.837 -18.053 -23.873  0.00  0.00    -0.000 C 
ATOM      7  C   UNL     1      34.499 -15.154 -21.579  0.00  0.00    +0.003 C 
ATOM      8  C   UNL     1      34.167 -15.732 -24.286  0.00  0.00    +0.037 C 
ATOM      9  C   UNL     1      33.919 -14.444 -23.811  0.00  0.00    +0.139 C 
ATOM     10  C   UNL     1      34.086 -14.155 -22.460  0.00  0.00    +0.037 C 
ENDROOT
BRANCH   9  11
ATOM     11  O   UNL     1      33.517 -13.468 -24.670  0.00  0.00    -0.471 OA
ATOM     12  C   UNL     1      33.718 -12.117 -24.258  0.00  0.00    +0.252 C 
ENDBRANCH   9  11
BRANCH   1  13
ATOM     13  C   UNL     1      35.858 -19.831 -20.698  0.00  0.00    +0.034 C 
BRANCH  13  14
ATOM     14  C   UNL     1      34.692 -20.708 -20.225  0.00  0.00    +0.069 C 
BRANCH  14  16
ATOM     15  O   UNL     1      34.476 -22.857 -19.138  0.00  0.00    -0.296 OA
ATOM     16  C   UNL     1      35.128 -21.825 -19.293  0.00  0.00    +0.151 C 
ATOM     17  C   UNL     1      36.420 -21.604 -18.550  0.00  0.00    +0.072 C 
ENDBRANCH  14  16
ENDBRANCH  13  14
ENDBRANCH   1  13
TORSDOF 4
ENDMDL
MODEL 5
REMARK VINA RESULT:      -8.6      2.969      7.209
REMARK  Name = 4409
REMARK  4 active torsions:
REMARK  status: ('A' for Active; 'I' for Inactive)
REMARK    1  A    between atoms: C_1  and  C_13
REMARK    2  A    between atoms: C_9  and  O_11
REMARK    3  A    between atoms: C_13  and  C_14
REMARK    4  A    between atoms: C_14  and  C_16
REMARK                            x       y       z     vdW  Elec       q    Type
REMARK                         _______ _______ _______ _____ _____    ______ ____
ROOT
ATOM      1  C   UNL     1      34.878 -16.971 -22.837  0.00  0.00    -0.022 C 
ATOM      2  C   UNL     1      33.607 -15.198 -21.761  0.00  0.00    -0.000 C 
ATOM      3  C   UNL     1      33.348 -14.624 -23.029  0.00  0.00    +0.003 C 
ATOM      4  C   UNL     1      34.375 -16.371 -21.682  0.00  0.00    -0.004 C 
ATOM      5  C   UNL     1      34.623 -16.407 -24.083  0.00  0.00    -0.004 C 
ATOM      6  C   UNL     1      33.863 -15.241 -24.180  0.00  0.00    -0.000 C 
ATOM      7  C   UNL     1      33.092 -14.580 -20.610  0.00  0.00    +0.003 C 
ATOM      8  C   UNL     1      32.580 -13.451 -23.107  0.00  0.00    +0.037 C 
ATOM      9  C   UNL     1      32.076 -12.852 -21.952  0.00  0.00    +0.139 C 
ATOM     10  C   UNL     1      32.331 -13.415 -20.706  0.00  0.00    +0.037 C 
ENDROOT
BRANCH   9  11
ATOM     11  O   UNL     1      31.334 -11.713 -22.044  0.00  0.00    -0.471 OA
ATOM     12  C   UNL     1      30.817 -11.175 -20.829  0.00  0.00    +0.252 C 
ENDBRANCH   9  11
BRANCH   1  13
ATOM     13  C   UNL     1      35.691 -18.217 -22.734  0.00  0.00    +0.034 C 
BRANCH  13  14
ATOM     14  C   UNL     1      34.823 -19.460 -22.508  0.00  0.00    +0.069 C 
BRANCH  14  16
ATOM     15  O   UNL     1      35.597 -19.865 -20.253  0.00  0.00    -0.296 OA
ATOM     16  C   UNL     1      34.653 -19.807 -21.040  0.00  0.00    +0.151 C 
ATOM     17  C   UNL     1      33.244 -20.088 -20.583  0.00  0.00    +0.072 C 
ENDBRANCH  14  16
ENDBRANCH  13  14
ENDBRANCH   1  13
TORSDOF 4
ENDMDL
MODEL 6
REMARK VINA RESULT:      -8.6      1.871      7.033
REMARK  Name = 4409
REMARK  4 active torsions:
REMARK  status: ('A' for Active; 'I' for Inactive)
REMARK    1  A    between atoms: C_1  and  C_13
REMARK    2  A    between atoms: C_9  and  O_11
REMARK    3  A    between atoms: C_13  and  C_14
REMARK    4  A    between atoms: C_14  and  C_16
REMARK                            x       y       z     vdW  Elec       q    Type
REMARK                         _______ _______ _______ _____ _____    ______ ____
ROOT
ATOM      1  C   UNL     1      34.114 -22.455 -18.545  0.00  0.00    -0.022 C 
ATOM      2  C   UNL     1      34.030 -20.643 -20.166  0.00  0.00    -0.000 C 
ATOM      3  C   UNL     1      35.430 -20.477 -20.043  0.00  0.00    +0.003 C 
ATOM      4  C   UNL     1      33.387 -21.636 -19.410  0.00  0.00    -0.004 C 
ATOM      5  C   UNL     1      35.491 -22.291 -18.424  0.00  0.00    -0.004 C 
ATOM      6  C   UNL     1      36.146 -21.309 -19.167  0.00  0.00    -0.000 C 
ATOM      7  C   UNL     1      33.314 -19.811 -21.042  0.00  0.00    +0.003 C 
ATOM      8  C   UNL     1      36.073 -19.483 -20.800  0.00  0.00    +0.037 C 
ATOM      9  C   UNL     1      35.345 -18.666 -21.665  0.00  0.00    +0.139 C 
ATOM     10  C   UNL     1      33.968 -18.828 -21.786  0.00  0.00    +0.037 C 
ENDROOT
BRANCH   9  11
ATOM     11  O   UNL     1      35.982 -17.706 -22.392  0.00  0.00    -0.471 OA
ATOM     12  C   UNL     1      35.205 -16.586 -22.811  0.00  0.00    +0.252 C 
ENDBRANCH   9  11
BRANCH   1  13
ATOM     13  C   UNL     1      33.415 -23.504 -17.750  0.00  0.00    +0.034 C 
BRANCH  13  14
ATOM     14  C   UNL     1      33.081 -23.031 -16.330  0.00  0.00    +0.069 C 
BRANCH  14  16
ATOM     15  O   UNL     1      30.794 -22.626 -17.003  0.00  0.00    -0.296 OA
ATOM     16  C   UNL     1      31.590 -22.861 -16.095  0.00  0.00    +0.151 C 
ATOM     17  C   UNL     1      31.124 -22.992 -14.668  0.00  0.00    +0.072 C 
ENDBRANCH  14  16
ENDBRANCH  13  14
ENDBRANCH   1  13
TORSDOF 4
ENDMDL
MODEL 7
REMARK VINA RESULT:      -8.5      1.376      7.351
REMARK  Name = 4409
REMARK  4 active torsions:
REMARK  status: ('A' for Active; 'I' for Inactive)
REMARK    1  A    between atoms: C_1  and  C_13
REMARK    2  A    between atoms: C_9  and  O_11
REMARK    3  A    between atoms: C_13  and  C_14
REMARK    4  A    between atoms: C_14  and  C_16
REMARK                            x       y       z     vdW  Elec       q    Type
REMARK                         _______ _______ _______ _____ _____    ______ ____
ROOT
ATOM      1  C   UNL     1      34.204 -21.733 -19.073  0.00  0.00    -0.022 C 
ATOM      2  C   UNL     1      35.421 -20.136 -20.447  0.00  0.00    -0.000 C 
ATOM      3  C   UNL     1      34.192 -19.635 -20.940  0.00  0.00    +0.003 C 
ATOM      4  C   UNL     1      35.410 -21.186 -19.515  0.00  0.00    -0.004 C 
ATOM      5  C   UNL     1      32.997 -21.240 -19.558  0.00  0.00    -0.004 C 
ATOM      6  C   UNL     1      32.989 -20.198 -20.486  0.00  0.00    -0.000 C 
ATOM      7  C   UNL     1      36.624 -19.573 -20.902  0.00  0.00    +0.003 C 
ATOM      8  C   UNL     1      34.204 -18.585 -21.873  0.00  0.00    +0.037 C 
ATOM      9  C   UNL     1      35.409 -18.037 -22.313  0.00  0.00    +0.139 C 
ATOM     10  C   UNL     1      36.617 -18.530 -21.829  0.00  0.00    +0.037 C 
ENDROOT
BRANCH   9  11
ATOM     11  O   UNL     1      35.404 -17.020 -23.218  0.00  0.00    -0.471 OA
ATOM     12  C   UNL     1      34.821 -17.289 -24.492  0.00  0.00    +0.252 C 
ENDBRANCH   9  11
BRANCH   1  13
ATOM     13  C   UNL     1      34.211 -22.848 -18.083  0.00  0.00    +0.034 C 
BRANCH  13  14
ATOM     14  C   UNL     1      32.829 -23.083 -17.463  0.00  0.00    +0.069 C 
BRANCH  14  16
ATOM     15  O   UNL     1      33.894 -23.885 -15.446  0.00  0.00    -0.296 OA
ATOM     16  C   UNL     1      32.890 -23.422 -15.984  0.00  0.00    +0.151 C 
ATOM     17  C   UNL     1      31.634 -23.162 -15.192  0.00  0.00    +0.072 C 
ENDBRANCH  14  16
ENDBRANCH  13  14
ENDBRANCH   1  13
TORSDOF 4
ENDMDL
MODEL 8
REMARK VINA RESULT:      -8.4      1.534      7.487
REMARK  Name = 4409
REMARK  4 active torsions:
REMARK  status: ('A' for Active; 'I' for Inactive)
REMARK    1  A    between atoms: C_1  and  C_13
REMARK    2  A    between atoms: C_9  and  O_11
REMARK    3  A    between atoms: C_13  and  C_14
REMARK    4  A    between atoms: C_14  and  C_16
REMARK                            x       y       z     vdW  Elec       q    Type
REMARK                         _______ _______ _______ _____ _____    ______ ____
ROOT
ATOM      1  C   UNL     1      35.181 -18.017 -21.701  0.00  0.00    -0.022 C 
ATOM      2  C   UNL     1      34.461 -16.898 -23.738  0.00  0.00    -0.000 C 
ATOM      3  C   UNL     1      34.235 -15.713 -22.998  0.00  0.00    +0.003 C 
ATOM      4  C   UNL     1      34.934 -18.042 -23.075  0.00  0.00    -0.004 C 
ATOM      5  C   UNL     1      34.958 -16.852 -20.974  0.00  0.00    -0.004 C 
ATOM      6  C   UNL     1      34.488 -15.706 -21.617  0.00  0.00    -0.000 C 
ATOM      7  C   UNL     1      34.208 -16.904 -25.119  0.00  0.00    +0.003 C 
ATOM      8  C   UNL     1      33.762 -14.568 -23.662  0.00  0.00    +0.037 C 
ATOM      9  C   UNL     1      33.516 -14.593 -25.035  0.00  0.00    +0.139 C 
ATOM     10  C   UNL     1      33.738 -15.759 -25.763  0.00  0.00    +0.037 C 
ENDROOT
BRANCH   9  11
ATOM     11  O   UNL     1      33.056 -13.476 -25.664  0.00  0.00    -0.471 OA
ATOM     12  C   UNL     1      33.273 -13.389 -27.071  0.00  0.00    +0.252 C 
ENDBRANCH   9  11
BRANCH   1  13
ATOM     13  C   UNL     1      35.683 -19.241 -21.014  0.00  0.00    +0.034 C 
BRANCH  13  14
ATOM     14  C   UNL     1      34.547 -20.188 -20.610  0.00  0.00    +0.069 C 
BRANCH  14  16
ATOM     15  O   UNL     1      34.244 -22.182 -19.278  0.00  0.00    -0.296 OA
ATOM     16  C   UNL     1      35.003 -21.307 -19.691  0.00  0.00    +0.151 C 
ATOM     17  C   UNL     1      36.458 -21.292 -19.298  0.00  0.00    +0.072 C 
ENDBRANCH  14  16
ENDBRANCH  13  14
ENDBRANCH   1  13
TORSDOF 4
ENDMDL
MODEL 9
REMARK VINA RESULT:      -8.4      7.297     10.136
REMARK  Name = 4409
REMARK  4 active torsions:
REMARK  status: ('A' for Active; 'I' for Inactive)
REMARK    1  A    between atoms: C_1  and  C_13
REMARK    2  A    between atoms: C_9  and  O_11
REMARK    3  A    between atoms: C_13  and  C_14
REMARK    4  A    between atoms: C_14  and  C_16
REMARK                            x       y       z     vdW  Elec       q    Type
REMARK                         _______ _______ _______ _____ _____    ______ ____
ROOT
ATOM      1  C   UNL     1      34.636 -24.133 -14.304  0.00  0.00    -0.022 C 
ATOM      2  C   UNL     1      32.274 -23.638 -14.611  0.00  0.00    -0.000 C 
ATOM      3  C   UNL     1      32.529 -23.288 -15.958  0.00  0.00    +0.003 C 
ATOM      4  C   UNL     1      33.338 -24.058 -13.797  0.00  0.00    -0.004 C 
ATOM      5  C   UNL     1      34.886 -23.788 -15.629  0.00  0.00    -0.004 C 
ATOM      6  C   UNL     1      33.841 -23.368 -16.452  0.00  0.00    -0.000 C 
ATOM      7  C   UNL     1      30.961 -23.558 -14.118  0.00  0.00    +0.003 C 
ATOM      8  C   UNL     1      31.464 -22.868 -16.772  0.00  0.00    +0.037 C 
ATOM      9  C   UNL     1      30.166 -22.795 -16.265  0.00  0.00    +0.139 C 
ATOM     10  C   UNL     1      29.915 -23.138 -14.940  0.00  0.00    +0.037 C 
ENDROOT
BRANCH   9  11
ATOM     11  O   UNL     1      29.145 -22.385 -17.066  0.00  0.00    -0.471 OA
ATOM     12  C   UNL     1      27.818 -22.640 -16.609  0.00  0.00    +0.252 C 
ENDBRANCH   9  11
BRANCH   1  13
ATOM     13  C   UNL     1      35.754 -24.581 -13.425  0.00  0.00    +0.034 C 
BRANCH  13  14
ATOM     14  C   UNL     1      35.352 -24.614 -11.946  0.00  0.00    +0.069 C 
BRANCH  14  16
ATOM     15  O   UNL     1      36.313 -23.977  -9.820  0.00  0.00    -0.296 OA
ATOM     16  C   UNL     1      36.334 -23.883 -11.047  0.00  0.00    +0.151 C 
ATOM     17  C   UNL     1      37.352 -23.016 -11.741  0.00  0.00    +0.072 C 
ENDBRANCH  14  16
ENDBRANCH  13  14
ENDBRANCH   1  13
TORSDOF 4
ENDMDL
