MODEL 1
REMARK VINA RESULT:      -7.5      0.000      0.000
REMARK  Name = 54682930
REMARK  1 active torsions:
REMARK  status: ('A' for Active; 'I' for Inactive)
REMARK    1  A    between atoms: C_5  and  O_12
REMARK                            x       y       z     vdW  Elec       q    Type
REMARK                         _______ _______ _______ _____ _____    ______ ____
ROOT
ATOM      1  O   UNL     1      33.181 -14.966 -24.476  0.00  0.00    -0.421 OA
ATOM      2  O   UNL     1      33.410 -15.549 -26.676  0.00  0.00    -0.244 OA
ATOM      3  C   UNL     1      34.476 -16.151 -22.771  0.00  0.00    +0.069 C 
ATOM      4  C   UNL     1      33.557 -15.161 -23.130  0.00  0.00    +0.152 C 
ATOM      5  C   UNL     1      35.026 -16.988 -23.843  0.00  0.00    +0.143 C 
ATOM      6  C   UNL     1      34.810 -16.258 -21.415  0.00  0.00    +0.006 C 
ATOM      7  C   UNL     1      32.968 -14.309 -22.192  0.00  0.00    +0.038 C 
ATOM      8  C   UNL     1      34.671 -16.777 -25.113  0.00  0.00    +0.119 C 
ATOM      9  C   UNL     1      34.230 -15.411 -20.463  0.00  0.00    +0.000 C 
ATOM     10  C   UNL     1      33.309 -14.440 -20.851  0.00  0.00    +0.003 C 
ATOM     11  C   UNL     1      33.716 -15.728 -25.503  0.00  0.00    +0.349 C 
ENDROOT
BRANCH   5  12
ATOM     12  O   UNL     1      35.916 -17.967 -23.462  0.00  0.00    -0.505 OA
ATOM     13  H   UNL     1      35.677 -18.585 -22.800  0.00  0.00    +0.292 HD
ENDBRANCH   5  12
TORSDOF 1
ENDMDL
MODEL 2
REMARK VINA RESULT:      -7.4      4.961      7.008
REMARK  Name = 54682930
REMARK  1 active torsions:
REMARK  status: ('A' for Active; 'I' for Inactive)
REMARK    1  A    between atoms: C_5  and  O_12
REMARK                            x       y       z     vdW  Elec       q    Type
REMARK                         _______ _______ _______ _____ _____    ______ ____
ROOT
ATOM      1  O   UNL     1      36.719 -20.679 -19.301  0.00  0.00    -0.421 OA
ATOM      2  O   UNL     1      36.843 -22.246 -17.639  0.00  0.00    -0.244 OA
ATOM      3  C   UNL     1      34.615 -20.364 -20.509  0.00  0.00    +0.069 C 
ATOM      4  C   UNL     1      35.949 -20.018 -20.282  0.00  0.00    +0.152 C 
ATOM      5  C   UNL     1      34.046 -21.447 -19.700  0.00  0.00    +0.143 C 
ATOM      6  C   UNL     1      33.918 -19.639 -21.485  0.00  0.00    +0.006 C 
ATOM      7  C   UNL     1      36.593 -19.004 -20.996  0.00  0.00    +0.038 C 
ATOM      8  C   UNL     1      34.785 -22.050 -18.764  0.00  0.00    +0.119 C 
ATOM      9  C   UNL     1      34.549 -18.619 -22.208  0.00  0.00    +0.000 C 
ATOM     10  C   UNL     1      35.884 -18.304 -21.965  0.00  0.00    +0.003 C 
ATOM     11  C   UNL     1      36.186 -21.683 -18.507  0.00  0.00    +0.349 C 
ENDROOT
BRANCH   5  12
ATOM     12  O   UNL     1      32.735 -21.781 -19.954  0.00  0.00    -0.505 OA
ATOM     13  H   UNL     1      32.159 -21.992 -19.245  0.00  0.00    +0.292 HD
ENDBRANCH   5  12
TORSDOF 1
ENDMDL
MODEL 3
REMARK VINA RESULT:      -7.3      1.771      3.535
REMARK  Name = 54682930
REMARK  1 active torsions:
REMARK  status: ('A' for Active; 'I' for Inactive)
REMARK    1  A    between atoms: C_5  and  O_12
REMARK                            x       y       z     vdW  Elec       q    Type
REMARK                         _______ _______ _______ _____ _____    ______ ____
ROOT
ATOM      1  O   UNL     1      34.146 -15.141 -24.189  0.00  0.00    -0.421 OA
ATOM      2  O   UNL     1      33.881 -13.012 -23.396  0.00  0.00    -0.244 OA
ATOM      3  C   UNL     1      34.722 -16.945 -22.639  0.00  0.00    +0.069 C 
ATOM      4  C   UNL     1      34.421 -16.501 -23.930  0.00  0.00    +0.152 C 
ATOM      5  C   UNL     1      34.754 -15.945 -21.566  0.00  0.00    +0.143 C 
ATOM      6  C   UNL     1      34.958 -18.315 -22.468  0.00  0.00    +0.006 C 
ATOM      7  C   UNL     1      34.366 -17.365 -25.026  0.00  0.00    +0.038 C 
ATOM      8  C   UNL     1      34.474 -14.665 -21.828  0.00  0.00    +0.119 C 
ATOM      9  C   UNL     1      34.905 -19.195 -23.557  0.00  0.00    +0.000 C 
ATOM     10  C   UNL     1      34.611 -18.719 -24.834  0.00  0.00    +0.003 C 
ATOM     11  C   UNL     1      34.141 -14.190 -23.180  0.00  0.00    +0.349 C 
ENDROOT
BRANCH   5  12
ATOM     12  O   UNL     1      35.070 -16.404 -20.308  0.00  0.00    -0.505 OA
ATOM     13  H   UNL     1      35.932 -16.274 -19.964  0.00  0.00    +0.292 HD
ENDBRANCH   5  12
TORSDOF 1
ENDMDL
MODEL 4
REMARK VINA RESULT:      -7.2      6.165      7.777
REMARK  Name = 54682930
REMARK  1 active torsions:
REMARK  status: ('A' for Active; 'I' for Inactive)
REMARK    1  A    between atoms: C_5  and  O_12
REMARK                            x       y       z     vdW  Elec       q    Type
REMARK                         _______ _______ _______ _____ _____    ______ ____
ROOT
ATOM      1  O   UNL     1      32.609 -21.885 -18.841  0.00  0.00    -0.421 OA
ATOM      2  O   UNL     1      32.293 -23.398 -17.156  0.00  0.00    -0.244 OA
ATOM      3  C   UNL     1      34.882 -21.225 -19.461  0.00  0.00    +0.069 C 
ATOM      4  C   UNL     1      33.500 -21.144 -19.648  0.00  0.00    +0.152 C 
ATOM      5  C   UNL     1      35.375 -22.096 -18.389  0.00  0.00    +0.143 C 
ATOM      6  C   UNL     1      35.694 -20.475 -20.323  0.00  0.00    +0.006 C 
ATOM      7  C   UNL     1      32.922 -20.345 -20.637  0.00  0.00    +0.038 C 
ATOM      8  C   UNL     1      34.517 -22.802 -17.646  0.00  0.00    +0.119 C 
ATOM      9  C   UNL     1      35.129 -19.669 -21.321  0.00  0.00    +0.000 C 
ATOM     10  C   UNL     1      33.746 -19.603 -21.476  0.00  0.00    +0.003 C 
ATOM     11  C   UNL     1      33.061 -22.736 -17.845  0.00  0.00    +0.349 C 
ENDROOT
BRANCH   5  12
ATOM     12  O   UNL     1      36.739 -22.144 -18.213  0.00  0.00    -0.505 OA
ATOM     13  H   UNL     1      37.176 -22.971 -18.161  0.00  0.00    +0.292 HD
ENDBRANCH   5  12
TORSDOF 1
ENDMDL
MODEL 5
REMARK VINA RESULT:      -7.1      1.619      3.487
REMARK  Name = 54682930
REMARK  1 active torsions:
REMARK  status: ('A' for Active; 'I' for Inactive)
REMARK    1  A    between atoms: C_5  and  O_12
REMARK                            x       y       z     vdW  Elec       q    Type
REMARK                         _______ _______ _______ _____ _____    ______ ____
ROOT
ATOM      1  O   UNL     1      35.083 -17.171 -20.572  0.00  0.00    -0.421 OA
ATOM      2  O   UNL     1      36.354 -19.073 -20.593  0.00  0.00    -0.244 OA
ATOM      3  C   UNL     1      34.426 -16.133 -22.689  0.00  0.00    +0.069 C 
ATOM      4  C   UNL     1      34.404 -16.164 -21.292  0.00  0.00    +0.152 C 
ATOM      5  C   UNL     1      35.190 -17.178 -23.380  0.00  0.00    +0.143 C 
ATOM      6  C   UNL     1      33.706 -15.113 -23.322  0.00  0.00    +0.006 C 
ATOM      7  C   UNL     1      33.712 -15.218 -20.532  0.00  0.00    +0.038 C 
ATOM      8  C   UNL     1      35.812 -18.133 -22.682  0.00  0.00    +0.119 C 
ATOM      9  C   UNL     1      33.005 -14.158 -22.574  0.00  0.00    +0.000 C 
ATOM     10  C   UNL     1      33.011 -14.210 -21.182  0.00  0.00    +0.003 C 
ATOM     11  C   UNL     1      35.782 -18.183 -21.212  0.00  0.00    +0.349 C 
ENDROOT
BRANCH   5  12
ATOM     12  O   UNL     1      35.211 -17.116 -24.755  0.00  0.00    -0.505 OA
ATOM     13  H   UNL     1      35.156 -17.903 -25.261  0.00  0.00    +0.292 HD
ENDBRANCH   5  12
TORSDOF 1
ENDMDL
MODEL 6
REMARK VINA RESULT:      -7.1      1.510      2.948
REMARK  Name = 54682930
REMARK  1 active torsions:
REMARK  status: ('A' for Active; 'I' for Inactive)
REMARK    1  A    between atoms: C_5  and  O_12
REMARK                            x       y       z     vdW  Elec       q    Type
REMARK                         _______ _______ _______ _____ _____    ______ ____
ROOT
ATOM      1  O   UNL     1      34.220 -17.026 -25.154  0.00  0.00    -0.421 OA
ATOM      2  O   UNL     1      33.371 -15.528 -26.660  0.00  0.00    -0.244 OA
ATOM      3  C   UNL     1      34.541 -16.347 -22.825  0.00  0.00    +0.069 C 
ATOM      4  C   UNL     1      34.611 -17.317 -23.829  0.00  0.00    +0.152 C 
ATOM      5  C   UNL     1      34.060 -15.013 -23.200  0.00  0.00    +0.143 C 
ATOM      6  C   UNL     1      34.926 -16.729 -21.533  0.00  0.00    +0.006 C 
ATOM      7  C   UNL     1      35.056 -18.618 -23.586  0.00  0.00    +0.038 C 
ATOM      8  C   UNL     1      33.679 -14.762 -24.456  0.00  0.00    +0.119 C 
ATOM      9  C   UNL     1      35.374 -18.031 -21.273  0.00  0.00    +0.000 C 
ATOM     10  C   UNL     1      35.440 -18.972 -22.298  0.00  0.00    +0.003 C 
ATOM     11  C   UNL     1      33.733 -15.780 -25.517  0.00  0.00    +0.349 C 
ENDROOT
BRANCH   5  12
ATOM     12  O   UNL     1      34.018 -14.071 -22.197  0.00  0.00    -0.505 OA
ATOM     13  H   UNL     1      33.721 -13.202 -22.383  0.00  0.00    +0.292 HD
ENDBRANCH   5  12
TORSDOF 1
ENDMDL
MODEL 7
REMARK VINA RESULT:      -7.0      1.885      3.514
REMARK  Name = 54682930
REMARK  1 active torsions:
REMARK  status: ('A' for Active; 'I' for Inactive)
REMARK    1  A    between atoms: C_5  and  O_12
REMARK                            x       y       z     vdW  Elec       q    Type
REMARK                         _______ _______ _______ _____ _____    ______ ____
ROOT
ATOM      1  O   UNL     1      34.349 -14.642 -22.865  0.00  0.00    -0.421 OA
ATOM      2  O   UNL     1      33.537 -12.548 -23.296  0.00  0.00    -0.244 OA
ATOM      3  C   UNL     1      34.206 -16.372 -24.590  0.00  0.00    +0.069 C 
ATOM      4  C   UNL     1      34.594 -15.959 -23.313  0.00  0.00    +0.152 C 
ATOM      5  C   UNL     1      33.523 -15.394 -25.443  0.00  0.00    +0.143 C 
ATOM      6  C   UNL     1      34.511 -17.688 -24.961  0.00  0.00    +0.006 C 
ATOM      7  C   UNL     1      35.248 -16.807 -22.416  0.00  0.00    +0.038 C 
ATOM      8  C   UNL     1      33.315 -14.148 -25.008  0.00  0.00    +0.119 C 
ATOM      9  C   UNL     1      35.168 -18.551 -24.074  0.00  0.00    +0.000 C 
ATOM     10  C   UNL     1      35.534 -18.111 -22.803  0.00  0.00    +0.003 C 
ATOM     11  C   UNL     1      33.733 -13.698 -23.671  0.00  0.00    +0.349 C 
ENDROOT
BRANCH   5  12
ATOM     12  O   UNL     1      33.135 -15.831 -26.690  0.00  0.00    -0.505 OA
ATOM     13  H   UNL     1      32.378 -16.376 -26.780  0.00  0.00    +0.292 HD
ENDBRANCH   5  12
TORSDOF 1
ENDMDL
MODEL 8
REMARK VINA RESULT:      -7.0      4.068      5.191
REMARK  Name = 54682930
REMARK  1 active torsions:
REMARK  status: ('A' for Active; 'I' for Inactive)
REMARK    1  A    between atoms: C_5  and  O_12
REMARK                            x       y       z     vdW  Elec       q    Type
REMARK                         _______ _______ _______ _____ _____    ______ ____
ROOT
ATOM      1  O   UNL     1      33.628 -18.630 -21.302  0.00  0.00    -0.421 OA
ATOM      2  O   UNL     1      34.053 -16.666 -22.395  0.00  0.00    -0.244 OA
ATOM      3  C   UNL     1      35.494 -20.013 -20.534  0.00  0.00    +0.069 C 
ATOM      4  C   UNL     1      34.121 -19.779 -20.646  0.00  0.00    +0.152 C 
ATOM      5  C   UNL     1      36.404 -19.030 -21.131  0.00  0.00    +0.143 C 
ATOM      6  C   UNL     1      35.896 -21.166 -19.846  0.00  0.00    +0.006 C 
ATOM      7  C   UNL     1      33.165 -20.649 -20.117  0.00  0.00    +0.038 C 
ATOM      8  C   UNL     1      35.919 -17.941 -21.733  0.00  0.00    +0.119 C 
ATOM      9  C   UNL     1      34.950 -22.048 -19.308  0.00  0.00    +0.000 C 
ATOM     10  C   UNL     1      33.587 -21.790 -19.446  0.00  0.00    +0.003 C 
ATOM     11  C   UNL     1      34.476 -17.676 -21.844  0.00  0.00    +0.349 C 
ENDROOT
BRANCH   5  12
ATOM     12  O   UNL     1      37.751 -19.293 -21.022  0.00  0.00    -0.505 OA
ATOM     13  H   UNL     1      38.121 -20.033 -21.462  0.00  0.00    +0.292 HD
ENDBRANCH   5  12
TORSDOF 1
ENDMDL
MODEL 9
REMARK VINA RESULT:      -7.0      6.518      7.980
REMARK  Name = 54682930
REMARK  1 active torsions:
REMARK  status: ('A' for Active; 'I' for Inactive)
REMARK    1  A    between atoms: C_5  and  O_12
REMARK                            x       y       z     vdW  Elec       q    Type
REMARK                         _______ _______ _______ _____ _____    ______ ____
ROOT
ATOM      1  O   UNL     1      31.702  -8.851 -22.971  0.00  0.00    -0.421 OA
ATOM      2  O   UNL     1      32.192  -6.910 -24.078  0.00  0.00    -0.244 OA
ATOM      3  C   UNL     1      32.118  -9.008 -20.565  0.00  0.00    +0.069 C 
ATOM      4  C   UNL     1      31.661  -9.573 -21.759  0.00  0.00    +0.152 C 
ATOM      5  C   UNL     1      32.652  -7.643 -20.619  0.00  0.00    +0.143 C 
ATOM      6  C   UNL     1      32.017  -9.786 -19.404  0.00  0.00    +0.006 C 
ATOM      7  C   UNL     1      31.135 -10.865 -21.824  0.00  0.00    +0.038 C 
ATOM      8  C   UNL     1      32.667  -6.969 -21.773  0.00  0.00    +0.119 C 
ATOM      9  C   UNL     1      31.491 -11.083 -19.453  0.00  0.00    +0.000 C 
ATOM     10  C   UNL     1      31.053 -11.622 -20.661  0.00  0.00    +0.003 C 
ATOM     11  C   UNL     1      32.175  -7.549 -23.033  0.00  0.00    +0.349 C 
ENDROOT
BRANCH   5  12
ATOM     12  O   UNL     1      33.112  -7.115 -19.434  0.00  0.00    -0.505 OA
ATOM     13  H   UNL     1      32.774  -6.298 -19.123  0.00  0.00    +0.292 HD
ENDBRANCH   5  12
TORSDOF 1
ENDMDL
