MODEL 1
REMARK VINA RESULT:      -6.5      0.000      0.000
REMARK  Name = 49852385
REMARK  3 active torsions:
REMARK  status: ('A' for Active; 'I' for Inactive)
REMARK    1  A    between atoms: C_1  and  N_7
REMARK    2  A    between atoms: C_2  and  O_14
REMARK    3  A    between atoms: C_3  and  C_13
REMARK                            x       y       z     vdW  Elec       q    Type
REMARK                         _______ _______ _______ _____ _____    ______ ____
ROOT
ATOM      1  C   UNL     1      37.980 -25.006 -15.196  0.00  0.00    +0.066 C 
ATOM      2  C   UNL     1      36.492 -25.167 -14.786  0.00  0.00    +0.145 C 
ATOM      3  C   UNL     1      38.957 -25.440 -14.134  0.00  0.00    +0.094 C 
ATOM      4  C   UNL     1      36.254 -25.272 -13.305  0.00  0.00    +0.038 C 
ATOM      5  C   UNL     1      38.607 -25.662 -12.860  0.00  0.00    +0.008 C 
ATOM      6  C   UNL     1      37.244 -25.482 -12.427  0.00  0.00    +0.003 C 
ENDROOT
BRANCH   1   7
ATOM      7  N   UNL     1      38.195 -23.569 -15.569  0.00  0.00    -0.413 NA
ATOM      8  H   UNL     1      39.196 -23.378 -15.620  0.00  0.00    +0.121 HD
ATOM      9  H   UNL     1      37.770 -22.968 -14.863  0.00  0.00    +0.121 HD
ATOM     10  H   UNL     1      37.767 -23.385 -16.476  0.00  0.00    +0.121 HD
ENDBRANCH   1   7
BRANCH   3  13
ATOM     11  O   UNL     1      40.747 -26.873 -14.636  0.00  0.00    -0.241 OA
ATOM     12  O   UNL     1      41.100 -24.612 -14.615  0.00  0.00    -0.241 OA
ATOM     13  C   UNL     1      40.410 -25.664 -14.497  0.00  0.00    +0.389 C 
ENDBRANCH   3  13
BRANCH   2  14
ATOM     14  O   UNL     1      35.968 -26.356 -15.382  0.00  0.00    -0.504 OA
ATOM     15  H   UNL     1      36.080 -27.101 -14.772  0.00  0.00    +0.292 HD
ENDBRANCH   2  14
TORSDOF 3
ENDMDL
MODEL 2
REMARK VINA RESULT:      -6.3      2.263      3.038
REMARK  Name = 49852385
REMARK  3 active torsions:
REMARK  status: ('A' for Active; 'I' for Inactive)
REMARK    1  A    between atoms: C_1  and  N_7
REMARK    2  A    between atoms: C_2  and  O_14
REMARK    3  A    between atoms: C_3  and  C_13
REMARK                            x       y       z     vdW  Elec       q    Type
REMARK                         _______ _______ _______ _____ _____    ______ ____
ROOT
ATOM      1  C   UNL     1      38.358 -24.817 -12.523  0.00  0.00    +0.066 C 
ATOM      2  C   UNL     1      37.364 -23.694 -12.126  0.00  0.00    +0.145 C 
ATOM      3  C   UNL     1      38.690 -24.847 -13.992  0.00  0.00    +0.094 C 
ATOM      4  C   UNL     1      36.552 -23.138 -13.263  0.00  0.00    +0.038 C 
ATOM      5  C   UNL     1      37.988 -24.181 -14.919  0.00  0.00    +0.008 C 
ATOM      6  C   UNL     1      36.843 -23.388 -14.548  0.00  0.00    +0.003 C 
ENDROOT
BRANCH   1   7
ATOM      7  N   UNL     1      37.769 -26.123 -12.079  0.00  0.00    -0.413 NA
ATOM      8  H   UNL     1      38.147 -26.372 -11.165  0.00  0.00    +0.121 HD
ATOM      9  H   UNL     1      38.007 -26.850 -12.754  0.00  0.00    +0.121 HD
ATOM     10  H   UNL     1      36.755 -26.036 -12.015  0.00  0.00    +0.121 HD
ENDBRANCH   1   7
BRANCH   3  13
ATOM     11  O   UNL     1      40.939 -24.978 -14.653  0.00  0.00    -0.241 OA
ATOM     12  O   UNL     1      39.667 -26.880 -14.641  0.00  0.00    -0.241 OA
ATOM     13  C   UNL     1      39.882 -25.646 -14.476  0.00  0.00    +0.389 C 
ENDBRANCH   3  13
BRANCH   2  14
ATOM     14  O   UNL     1      38.091 -22.604 -11.556  0.00  0.00    -0.504 OA
ATOM     15  H   UNL     1      38.736 -22.943 -10.916  0.00  0.00    +0.292 HD
ENDBRANCH   2  14
TORSDOF 3
ENDMDL
MODEL 3
REMARK VINA RESULT:      -6.2      1.848      2.428
REMARK  Name = 49852385
REMARK  3 active torsions:
REMARK  status: ('A' for Active; 'I' for Inactive)
REMARK    1  A    between atoms: C_1  and  N_7
REMARK    2  A    between atoms: C_2  and  O_14
REMARK    3  A    between atoms: C_3  and  C_13
REMARK                            x       y       z     vdW  Elec       q    Type
REMARK                         _______ _______ _______ _____ _____    ______ ____
ROOT
ATOM      1  C   UNL     1      36.689 -25.893 -14.841  0.00  0.00    +0.066 C 
ATOM      2  C   UNL     1      35.355 -25.113 -14.981  0.00  0.00    +0.145 C 
ATOM      3  C   UNL     1      37.914 -25.016 -14.852  0.00  0.00    +0.094 C 
ATOM      4  C   UNL     1      35.491 -23.729 -15.556  0.00  0.00    +0.038 C 
ATOM      5  C   UNL     1      37.897 -23.734 -15.239  0.00  0.00    +0.008 C 
ATOM      6  C   UNL     1      36.675 -23.114 -15.685  0.00  0.00    +0.003 C 
ENDROOT
BRANCH   1   7
ATOM      7  N   UNL     1      36.742 -26.904 -15.949  0.00  0.00    -0.413 NA
ATOM      8  H   UNL     1      36.118 -27.680 -15.730  0.00  0.00    +0.121 HD
ATOM      9  H   UNL     1      37.696 -27.252 -16.045  0.00  0.00    +0.121 HD
ATOM     10  H   UNL     1      36.449 -26.467 -16.823  0.00  0.00    +0.121 HD
ENDBRANCH   1   7
BRANCH   3  13
ATOM     11  O   UNL     1      39.447 -26.787 -14.693  0.00  0.00    -0.241 OA
ATOM     12  O   UNL     1      39.978 -24.765 -13.763  0.00  0.00    -0.241 OA
ATOM     13  C   UNL     1      39.243 -25.578 -14.391  0.00  0.00    +0.389 C 
ENDBRANCH   3  13
BRANCH   2  14
ATOM     14  O   UNL     1      34.755 -24.975 -13.691  0.00  0.00    -0.504 OA
ATOM     15  H   UNL     1      33.790 -24.969 -13.781  0.00  0.00    +0.292 HD
ENDBRANCH   2  14
TORSDOF 3
ENDMDL
MODEL 4
REMARK VINA RESULT:      -6.2      2.913      3.565
REMARK  Name = 49852385
REMARK  3 active torsions:
REMARK  status: ('A' for Active; 'I' for Inactive)
REMARK    1  A    between atoms: C_1  and  N_7
REMARK    2  A    between atoms: C_2  and  O_14
REMARK    3  A    between atoms: C_3  and  C_13
REMARK                            x       y       z     vdW  Elec       q    Type
REMARK                         _______ _______ _______ _____ _____    ______ ____
ROOT
ATOM      1  C   UNL     1      35.753 -24.332 -13.446  0.00  0.00    +0.066 C 
ATOM      2  C   UNL     1      35.654 -25.031 -14.829  0.00  0.00    +0.145 C 
ATOM      3  C   UNL     1      37.005 -24.668 -12.680  0.00  0.00    +0.094 C 
ATOM      4  C   UNL     1      36.532 -26.242 -14.987  0.00  0.00    +0.038 C 
ATOM      5  C   UNL     1      37.814 -25.687 -13.002  0.00  0.00    +0.008 C 
ATOM      6  C   UNL     1      37.513 -26.540 -14.124  0.00  0.00    +0.003 C 
ENDROOT
BRANCH   1   7
ATOM      7  N   UNL     1      34.528 -24.699 -12.663  0.00  0.00    -0.413 NA
ATOM      8  H   UNL     1      34.799 -25.245 -11.845  0.00  0.00    +0.121 HD
ATOM      9  H   UNL     1      33.903 -25.252 -13.249  0.00  0.00    +0.121 HD
ATOM     10  H   UNL     1      34.049 -23.850 -12.361  0.00  0.00    +0.121 HD
ENDBRANCH   1   7
BRANCH   3  13
ATOM     11  O   UNL     1      38.439 -23.112 -11.663  0.00  0.00    -0.241 OA
ATOM     12  O   UNL     1      36.660 -23.931 -10.478  0.00  0.00    -0.241 OA
ATOM     13  C   UNL     1      37.407 -23.821 -11.491  0.00  0.00    +0.389 C 
ENDBRANCH   3  13
BRANCH   2  14
ATOM     14  O   UNL     1      36.027 -24.104 -15.851  0.00  0.00    -0.504 OA
ATOM     15  H   UNL     1      36.886 -24.359 -16.222  0.00  0.00    +0.292 HD
ENDBRANCH   2  14
TORSDOF 3
ENDMDL
MODEL 5
REMARK VINA RESULT:      -6.2      7.637      9.014
REMARK  Name = 49852385
REMARK  3 active torsions:
REMARK  status: ('A' for Active; 'I' for Inactive)
REMARK    1  A    between atoms: C_1  and  N_7
REMARK    2  A    between atoms: C_2  and  O_14
REMARK    3  A    between atoms: C_3  and  C_13
REMARK                            x       y       z     vdW  Elec       q    Type
REMARK                         _______ _______ _______ _____ _____    ______ ____
ROOT
ATOM      1  C   UNL     1      35.561 -20.409 -20.746  0.00  0.00    +0.066 C 
ATOM      2  C   UNL     1      35.043 -19.306 -21.707  0.00  0.00    +0.145 C 
ATOM      3  C   UNL     1      34.471 -21.109 -19.976  0.00  0.00    +0.094 C 
ATOM      4  C   UNL     1      33.664 -18.794 -21.395  0.00  0.00    +0.038 C 
ATOM      5  C   UNL     1      33.217 -20.645 -19.890  0.00  0.00    +0.008 C 
ATOM      6  C   UNL     1      32.839 -19.415 -20.539  0.00  0.00    +0.003 C 
ENDROOT
BRANCH   1   7
ATOM      7  N   UNL     1      36.553 -19.775 -19.818  0.00  0.00    -0.413 NA
ATOM      8  H   UNL     1      37.231 -19.240 -20.360  0.00  0.00    +0.121 HD
ATOM      9  H   UNL     1      37.036 -20.501 -19.290  0.00  0.00    +0.121 HD
ATOM     10  H   UNL     1      36.066 -19.152 -19.173  0.00  0.00    +0.121 HD
ENDBRANCH   1   7
BRANCH   3  13
ATOM     11  O   UNL     1      35.721 -22.365 -18.437  0.00  0.00    -0.241 OA
ATOM     12  O   UNL     1      34.034 -23.384 -19.600  0.00  0.00    -0.241 OA
ATOM     13  C   UNL     1      34.772 -22.414 -19.269  0.00  0.00    +0.389 C 
ENDBRANCH   3  13
BRANCH   2  14
ATOM     14  O   UNL     1      35.009 -19.822 -23.039  0.00  0.00    -0.504 OA
ATOM     15  H   UNL     1      35.913 -19.888 -23.385  0.00  0.00    +0.292 HD
ENDBRANCH   2  14
TORSDOF 3
ENDMDL
MODEL 6
REMARK VINA RESULT:      -6.1      2.240      3.216
REMARK  Name = 49852385
REMARK  3 active torsions:
REMARK  status: ('A' for Active; 'I' for Inactive)
REMARK    1  A    between atoms: C_1  and  N_7
REMARK    2  A    between atoms: C_2  and  O_14
REMARK    3  A    between atoms: C_3  and  C_13
REMARK                            x       y       z     vdW  Elec       q    Type
REMARK                         _______ _______ _______ _____ _____    ______ ____
ROOT
ATOM      1  C   UNL     1      35.720 -24.974 -13.227  0.00  0.00    +0.066 C 
ATOM      2  C   UNL     1      35.744 -24.213 -11.874  0.00  0.00    +0.145 C 
ATOM      3  C   UNL     1      37.072 -25.467 -13.674  0.00  0.00    +0.094 C 
ATOM      4  C   UNL     1      37.095 -23.689 -11.470  0.00  0.00    +0.038 C 
ATOM      5  C   UNL     1      38.223 -25.048 -13.133  0.00  0.00    +0.008 C 
ATOM      6  C   UNL     1      38.229 -24.071 -12.074  0.00  0.00    +0.003 C 
ENDROOT
BRANCH   1   7
ATOM      7  N   UNL     1      35.115 -24.061 -14.251  0.00  0.00    -0.413 NA
ATOM      8  H   UNL     1      34.707 -23.251 -13.786  0.00  0.00    +0.121 HD
ATOM      9  H   UNL     1      34.387 -24.560 -14.763  0.00  0.00    +0.121 HD
ATOM     10  H   UNL     1      35.837 -23.752 -14.902  0.00  0.00    +0.121 HD
ENDBRANCH   1   7
BRANCH   3  13
ATOM     11  O   UNL     1      38.216 -27.203 -14.764  0.00  0.00    -0.241 OA
ATOM     12  O   UNL     1      36.181 -26.532 -15.567  0.00  0.00    -0.241 OA
ATOM     13  C   UNL     1      37.165 -26.502 -14.776  0.00  0.00    +0.389 C 
ENDBRANCH   3  13
BRANCH   2  14
ATOM     14  O   UNL     1      35.304 -25.089 -10.835  0.00  0.00    -0.504 OA
ATOM     15  H   UNL     1      35.429 -24.660  -9.974  0.00  0.00    +0.292 HD
ENDBRANCH   2  14
TORSDOF 3
ENDMDL
MODEL 7
REMARK VINA RESULT:      -6.1      2.789      4.019
REMARK  Name = 49852385
REMARK  3 active torsions:
REMARK  status: ('A' for Active; 'I' for Inactive)
REMARK    1  A    between atoms: C_1  and  N_7
REMARK    2  A    between atoms: C_2  and  O_14
REMARK    3  A    between atoms: C_3  and  C_13
REMARK                            x       y       z     vdW  Elec       q    Type
REMARK                         _______ _______ _______ _____ _____    ______ ____
ROOT
ATOM      1  C   UNL     1      36.810 -25.049 -13.510  0.00  0.00    +0.066 C 
ATOM      2  C   UNL     1      36.272 -25.352 -14.933  0.00  0.00    +0.145 C 
ATOM      3  C   UNL     1      35.766 -24.519 -12.562  0.00  0.00    +0.094 C 
ATOM      4  C   UNL     1      34.981 -24.661 -15.280  0.00  0.00    +0.038 C 
ATOM      5  C   UNL     1      34.570 -24.067 -12.963  0.00  0.00    +0.008 C 
ATOM      6  C   UNL     1      34.216 -24.056 -14.360  0.00  0.00    +0.003 C 
ENDROOT
BRANCH   1   7
ATOM      7  N   UNL     1      37.949 -24.083 -13.650  0.00  0.00    -0.413 NA
ATOM      8  H   UNL     1      38.127 -23.635 -12.752  0.00  0.00    +0.121 HD
ATOM      9  H   UNL     1      37.709 -23.374 -14.342  0.00  0.00    +0.121 HD
ATOM     10  H   UNL     1      38.785 -24.584 -13.952  0.00  0.00    +0.121 HD
ENDBRANCH   1   7
BRANCH   3  13
ATOM     11  O   UNL     1      35.215 -25.135 -10.365  0.00  0.00    -0.241 OA
ATOM     12  O   UNL     1      37.071 -23.847 -10.730  0.00  0.00    -0.241 OA
ATOM     13  C   UNL     1      36.045 -24.498 -11.074  0.00  0.00    +0.389 C 
ENDBRANCH   3  13
BRANCH   2  14
ATOM     14  O   UNL     1      36.045 -26.757 -15.060  0.00  0.00    -0.504 OA
ATOM     15  H   UNL     1      35.349 -27.030 -14.442  0.00  0.00    +0.292 HD
ENDBRANCH   2  14
TORSDOF 3
ENDMDL
MODEL 8
REMARK VINA RESULT:      -6.1      7.348      9.497
REMARK  Name = 49852385
REMARK  3 active torsions:
REMARK  status: ('A' for Active; 'I' for Inactive)
REMARK    1  A    between atoms: C_1  and  N_7
REMARK    2  A    between atoms: C_2  and  O_14
REMARK    3  A    between atoms: C_3  and  C_13
REMARK                            x       y       z     vdW  Elec       q    Type
REMARK                         _______ _______ _______ _____ _____    ______ ____
ROOT
ATOM      1  C   UNL     1      30.685 -22.765 -15.589  0.00  0.00    +0.066 C 
ATOM      2  C   UNL     1      31.709 -23.533 -14.711  0.00  0.00    +0.145 C 
ATOM      3  C   UNL     1      29.299 -23.354 -15.566  0.00  0.00    +0.094 C 
ATOM      4  C   UNL     1      31.315 -24.943 -14.370  0.00  0.00    +0.038 C 
ATOM      5  C   UNL     1      29.027 -24.576 -15.089  0.00  0.00    +0.008 C 
ATOM      6  C   UNL     1      30.076 -25.415 -14.568  0.00  0.00    +0.003 C 
ENDROOT
BRANCH   1   7
ATOM      7  N   UNL     1      31.227 -22.720 -16.986  0.00  0.00    -0.413 NA
ATOM      8  H   UNL     1      31.934 -23.447 -17.100  0.00  0.00    +0.121 HD
ATOM      9  H   UNL     1      31.649 -21.807 -17.158  0.00  0.00    +0.121 HD
ATOM     10  H   UNL     1      30.469 -22.875 -17.651  0.00  0.00    +0.121 HD
ENDBRANCH   1   7
BRANCH   3  13
ATOM     11  O   UNL     1      27.090 -22.585 -15.370  0.00  0.00    -0.241 OA
ATOM     12  O   UNL     1      28.344 -21.928 -17.167  0.00  0.00    -0.241 OA
ATOM     13  C   UNL     1      28.130 -22.543 -16.085  0.00  0.00    +0.389 C 
ENDBRANCH   3  13
BRANCH   2  14
ATOM     14  O   UNL     1      31.886 -22.834 -13.477  0.00  0.00    -0.504 OA
ATOM     15  H   UNL     1      32.143 -21.917 -13.657  0.00  0.00    +0.292 HD
ENDBRANCH   2  14
TORSDOF 3
ENDMDL
MODEL 9
REMARK VINA RESULT:      -6.1     13.003     14.057
REMARK  Name = 49852385
REMARK  3 active torsions:
REMARK  status: ('A' for Active; 'I' for Inactive)
REMARK    1  A    between atoms: C_1  and  N_7
REMARK    2  A    between atoms: C_2  and  O_14
REMARK    3  A    between atoms: C_3  and  C_13
REMARK                            x       y       z     vdW  Elec       q    Type
REMARK                         _______ _______ _______ _____ _____    ______ ____
ROOT
ATOM      1  C   UNL     1      33.572 -14.949 -23.341  0.00  0.00    +0.066 C 
ATOM      2  C   UNL     1      33.411 -14.909 -21.798  0.00  0.00    +0.145 C 
ATOM      3  C   UNL     1      34.308 -16.161 -23.848  0.00  0.00    +0.094 C 
ATOM      4  C   UNL     1      34.372 -15.785 -21.041  0.00  0.00    +0.038 C 
ATOM      5  C   UNL     1      35.016 -16.977 -23.055  0.00  0.00    +0.008 C 
ATOM      6  C   UNL     1      35.120 -16.723 -21.640  0.00  0.00    +0.003 C 
ENDROOT
BRANCH   1   7
ATOM      7  N   UNL     1      34.266 -13.686 -23.758  0.00  0.00    -0.413 NA
ATOM      8  H   UNL     1      35.229 -13.701 -23.423  0.00  0.00    +0.121 HD
ATOM      9  H   UNL     1      33.780 -12.883 -23.357  0.00  0.00    +0.121 HD
ATOM     10  H   UNL     1      34.260 -13.614 -24.775  0.00  0.00    +0.121 HD
ENDBRANCH   1   7
BRANCH   3  13
ATOM     11  O   UNL     1      33.838 -15.589 -26.075  0.00  0.00    -0.241 OA
ATOM     12  O   UNL     1      34.619 -17.688 -25.604  0.00  0.00    -0.241 OA
ATOM     13  C   UNL     1      34.249 -16.514 -25.319  0.00  0.00    +0.389 C 
ENDBRANCH   3  13
BRANCH   2  14
ATOM     14  O   UNL     1      32.092 -15.336 -21.452  0.00  0.00    -0.504 OA
ATOM     15  H   UNL     1      31.590 -14.586 -21.099  0.00  0.00    +0.292 HD
ENDBRANCH   2  14
TORSDOF 3
ENDMDL
