MODEL 1
REMARK VINA RESULT:      -8.9      0.000      0.000
REMARK  Name = 5328
REMARK  3 active torsions:
REMARK  status: ('A' for Active; 'I' for Inactive)
REMARK    1  A    between atoms: S_1  and  N_5
REMARK    2  A    between atoms: S_1  and  C_12
REMARK    3  A    between atoms: C_15  and  N_18
REMARK                            x       y       z     vdW  Elec       q    Type
REMARK                         _______ _______ _______ _____ _____    ______ ____
ROOT
ATOM      1  S   UNL     1      34.011 -22.788 -18.682  0.00  0.00    +0.075 S 
ATOM      2  O   UNL     1      35.067 -22.748 -17.678  0.00  0.00    -0.150 OA
ATOM      3  O   UNL     1      33.915 -23.951 -19.555  0.00  0.00    -0.150 OA
ENDROOT
BRANCH   1   5
ATOM      4  S   UNL     1      30.807 -23.822 -16.087  0.00  0.00    -0.034 S 
ATOM      5  N   UNL     1      32.505 -22.539 -17.884  0.00  0.00    -0.192 N 
ATOM      6  N   UNL     1      33.273 -23.251 -15.689  0.00  0.00    -0.124 NA
ATOM      7  N   UNL     1      32.843 -23.878 -14.533  0.00  0.00    -0.144 NA
ATOM      8  C   UNL     1      32.312 -23.151 -16.596  0.00  0.00    +0.201 A 
ATOM      9  C   UNL     1      31.577 -24.226 -14.608  0.00  0.00    +0.113 A 
ATOM     10  C   UNL     1      30.816 -24.914 -13.546  0.00  0.00    +0.061 C 
ATOM     11  H   UNL     1      31.796 -21.995 -18.296  0.00  0.00    +0.176 HD
ENDBRANCH   1   5
BRANCH   1  12
ATOM     12  C   UNL     1      34.164 -21.358 -19.673  0.00  0.00    +0.125 C 
ATOM     13  C   UNL     1      33.023 -20.660 -20.072  0.00  0.00    +0.021 C 
ATOM     14  C   UNL     1      35.426 -20.912 -20.064  0.00  0.00    +0.021 C 
ATOM     15  C   UNL     1      34.407 -19.073 -21.255  0.00  0.00    +0.042 C 
ATOM     16  C   UNL     1      33.145 -19.518 -20.863  0.00  0.00    +0.015 C 
ATOM     17  C   UNL     1      35.548 -19.769 -20.855  0.00  0.00    +0.015 C 
BRANCH  15  18
ATOM     18  N   UNL     1      34.531 -17.917 -22.053  0.00  0.00    -0.357 N 
ATOM     19  H   UNL     1      34.200 -17.052 -21.721  0.00  0.00    +0.142 HD
ATOM     20  H   UNL     1      34.949 -17.975 -22.943  0.00  0.00    +0.142 HD
ENDBRANCH  15  18
ENDBRANCH   1  12
TORSDOF 3
ENDMDL
MODEL 2
REMARK VINA RESULT:      -8.6      4.347      8.436
REMARK  Name = 5328
REMARK  3 active torsions:
REMARK  status: ('A' for Active; 'I' for Inactive)
REMARK    1  A    between atoms: S_1  and  N_5
REMARK    2  A    between atoms: S_1  and  C_12
REMARK    3  A    between atoms: C_15  and  N_18
REMARK                            x       y       z     vdW  Elec       q    Type
REMARK                         _______ _______ _______ _____ _____    ______ ____
ROOT
ATOM      1  S   UNL     1      35.139 -18.604 -22.200  0.00  0.00    +0.075 S 
ATOM      2  O   UNL     1      34.582 -19.029 -23.479  0.00  0.00    -0.150 OA
ATOM      3  O   UNL     1      36.563 -18.300 -22.121  0.00  0.00    -0.150 OA
ENDROOT
BRANCH   1   5
ATOM      4  S   UNL     1      34.113 -14.487 -21.952  0.00  0.00    -0.034 S 
ATOM      5  N   UNL     1      34.229 -17.252 -21.643  0.00  0.00    -0.192 N 
ATOM      6  N   UNL     1      33.959 -16.224 -23.830  0.00  0.00    -0.124 NA
ATOM      7  N   UNL     1      33.854 -14.991 -24.451  0.00  0.00    -0.144 NA
ATOM      8  C   UNL     1      34.099 -16.116 -22.516  0.00  0.00    +0.201 A 
ATOM      9  C   UNL     1      33.919 -14.002 -23.586  0.00  0.00    +0.113 A 
ATOM     10  C   UNL     1      33.842 -12.567 -23.924  0.00  0.00    +0.061 C 
ATOM     11  H   UNL     1      33.810 -17.255 -20.752  0.00  0.00    +0.176 HD
ENDBRANCH   1   5
BRANCH   1  12
ATOM     12  C   UNL     1      34.764 -19.836 -21.020  0.00  0.00    +0.125 C 
ATOM     13  C   UNL     1      33.438 -20.065 -20.650  0.00  0.00    +0.021 C 
ATOM     14  C   UNL     1      35.787 -20.591 -20.450  0.00  0.00    +0.021 C 
ATOM     15  C   UNL     1      34.162 -21.802 -19.136  0.00  0.00    +0.042 C 
ATOM     16  C   UNL     1      33.137 -21.048 -19.707  0.00  0.00    +0.015 C 
ATOM     17  C   UNL     1      35.487 -21.574 -19.507  0.00  0.00    +0.015 C 
BRANCH  15  18
ATOM     18  N   UNL     1      33.859 -22.798 -18.184  0.00  0.00    -0.357 N 
ATOM     19  H   UNL     1      33.079 -23.385 -18.317  0.00  0.00    +0.142 HD
ATOM     20  H   UNL     1      34.426 -22.907 -17.387  0.00  0.00    +0.142 HD
ENDBRANCH  15  18
ENDBRANCH   1  12
TORSDOF 3
ENDMDL
MODEL 3
REMARK VINA RESULT:      -8.5      4.570      8.862
REMARK  Name = 5328
REMARK  3 active torsions:
REMARK  status: ('A' for Active; 'I' for Inactive)
REMARK    1  A    between atoms: S_1  and  N_5
REMARK    2  A    between atoms: S_1  and  C_12
REMARK    3  A    between atoms: C_15  and  N_18
REMARK                            x       y       z     vdW  Elec       q    Type
REMARK                         _______ _______ _______ _____ _____    ______ ____
ROOT
ATOM      1  S   UNL     1      35.486 -18.516 -22.555  0.00  0.00    +0.075 S 
ATOM      2  O   UNL     1      35.431 -19.155 -23.864  0.00  0.00    -0.150 OA
ATOM      3  O   UNL     1      36.779 -18.085 -22.038  0.00  0.00    -0.150 OA
ENDROOT
BRANCH   1   5
ATOM      4  S   UNL     1      33.885 -14.855 -24.006  0.00  0.00    -0.034 S 
ATOM      5  N   UNL     1      34.395 -17.183 -22.565  0.00  0.00    -0.192 N 
ATOM      6  N   UNL     1      33.971 -17.232 -24.958  0.00  0.00    -0.124 NA
ATOM      7  N   UNL     1      33.690 -16.409 -26.034  0.00  0.00    -0.144 NA
ATOM      8  C   UNL     1      34.101 -16.557 -23.826  0.00  0.00    +0.201 A 
ATOM      9  C   UNL     1      33.617 -15.145 -25.675  0.00  0.00    +0.113 A 
ATOM     10  C   UNL     1      33.335 -14.015 -26.583  0.00  0.00    +0.061 C 
ATOM     11  H   UNL     1      33.984 -16.858 -21.731  0.00  0.00    +0.176 HD
ENDBRANCH   1   5
BRANCH   1  12
ATOM     12  C   UNL     1      34.757 -19.604 -21.400  0.00  0.00    +0.125 C 
ATOM     13  C   UNL     1      35.559 -20.476 -20.662  0.00  0.00    +0.021 C 
ATOM     14  C   UNL     1      33.375 -19.602 -21.215  0.00  0.00    +0.021 C 
ATOM     15  C   UNL     1      33.595 -21.343 -19.555  0.00  0.00    +0.042 C 
ATOM     16  C   UNL     1      34.977 -21.346 -19.740  0.00  0.00    +0.015 C 
ATOM     17  C   UNL     1      32.793 -20.471 -20.293  0.00  0.00    +0.015 C 
BRANCH  15  18
ATOM     18  N   UNL     1      33.006 -22.221 -18.622  0.00  0.00    -0.357 N 
ATOM     19  H   UNL     1      32.033 -22.375 -18.635  0.00  0.00    +0.142 HD
ATOM     20  H   UNL     1      33.567 -22.681 -17.955  0.00  0.00    +0.142 HD
ENDBRANCH  15  18
ENDBRANCH   1  12
TORSDOF 3
ENDMDL
MODEL 4
REMARK VINA RESULT:      -8.4      2.168      2.688
REMARK  Name = 5328
REMARK  3 active torsions:
REMARK  status: ('A' for Active; 'I' for Inactive)
REMARK    1  A    between atoms: S_1  and  N_5
REMARK    2  A    between atoms: S_1  and  C_12
REMARK    3  A    between atoms: C_15  and  N_18
REMARK                            x       y       z     vdW  Elec       q    Type
REMARK                         _______ _______ _______ _____ _____    ______ ____
ROOT
ATOM      1  S   UNL     1      33.858 -22.591 -18.703  0.00  0.00    +0.075 S 
ATOM      2  O   UNL     1      33.991 -23.781 -19.534  0.00  0.00    -0.150 OA
ATOM      3  O   UNL     1      32.637 -22.408 -17.927  0.00  0.00    -0.150 OA
ENDROOT
BRANCH   1   5
ATOM      4  S   UNL     1      35.828 -22.495 -14.938  0.00  0.00    -0.034 S 
ATOM      5  N   UNL     1      35.224 -22.513 -17.657  0.00  0.00    -0.192 N 
ATOM      6  N   UNL     1      34.498 -24.301 -16.177  0.00  0.00    -0.124 NA
ATOM      7  N   UNL     1      34.545 -24.711 -14.857  0.00  0.00    -0.144 NA
ATOM      8  C   UNL     1      35.130 -23.152 -16.371  0.00  0.00    +0.201 A 
ATOM      9  C   UNL     1      35.209 -23.861 -14.105  0.00  0.00    +0.113 A 
ATOM     10  C   UNL     1      35.440 -24.004 -12.653  0.00  0.00    +0.061 C 
ATOM     11  H   UNL     1      36.045 -22.045 -17.930  0.00  0.00    +0.176 HD
ENDBRANCH   1   5
BRANCH   1  12
ATOM     12  C   UNL     1      34.079 -21.197 -19.732  0.00  0.00    +0.125 C 
ATOM     13  C   UNL     1      35.365 -20.809 -20.114  0.00  0.00    +0.021 C 
ATOM     14  C   UNL     1      32.973 -20.472 -20.173  0.00  0.00    +0.021 C 
ATOM     15  C   UNL     1      34.435 -18.971 -21.376  0.00  0.00    +0.042 C 
ATOM     16  C   UNL     1      35.542 -19.696 -20.936  0.00  0.00    +0.015 C 
ATOM     17  C   UNL     1      33.150 -19.359 -20.995  0.00  0.00    +0.015 C 
BRANCH  15  18
ATOM     18  N   UNL     1      34.613 -17.846 -22.208  0.00  0.00    -0.357 N 
ATOM     19  H   UNL     1      33.885 -17.192 -22.314  0.00  0.00    +0.142 HD
ATOM     20  H   UNL     1      35.465 -17.715 -22.683  0.00  0.00    +0.142 HD
ENDBRANCH  15  18
ENDBRANCH   1  12
TORSDOF 3
ENDMDL
MODEL 5
REMARK VINA RESULT:      -8.4      4.298      5.942
REMARK  Name = 5328
REMARK  3 active torsions:
REMARK  status: ('A' for Active; 'I' for Inactive)
REMARK    1  A    between atoms: S_1  and  N_5
REMARK    2  A    between atoms: S_1  and  C_12
REMARK    3  A    between atoms: C_15  and  N_18
REMARK                            x       y       z     vdW  Elec       q    Type
REMARK                         _______ _______ _______ _____ _____    ______ ____
ROOT
ATOM      1  S   UNL     1      35.217 -18.471 -22.838  0.00  0.00    +0.075 S 
ATOM      2  O   UNL     1      36.551 -18.203 -22.314  0.00  0.00    -0.150 OA
ATOM      3  O   UNL     1      35.040 -19.571 -23.778  0.00  0.00    -0.150 OA
ENDROOT
BRANCH   1   5
ATOM      4  S   UNL     1      33.020 -20.709 -19.968  0.00  0.00    -0.034 S 
ATOM      5  N   UNL     1      34.149 -18.677 -21.502  0.00  0.00    -0.192 N 
ATOM      6  N   UNL     1      35.524 -20.312 -20.341  0.00  0.00    -0.124 NA
ATOM      7  N   UNL     1      35.440 -21.423 -19.520  0.00  0.00    -0.144 NA
ATOM      8  C   UNL     1      34.332 -19.828 -20.659  0.00  0.00    +0.201 A 
ATOM      9  C   UNL     1      34.191 -21.735 -19.249  0.00  0.00    +0.113 A 
ATOM     10  C   UNL     1      33.759 -22.866 -18.404  0.00  0.00    +0.061 C 
ATOM     11  H   UNL     1      33.434 -18.026 -21.321  0.00  0.00    +0.176 HD
ENDBRANCH   1   5
BRANCH   1  12
ATOM     12  C   UNL     1      34.632 -17.002 -23.579  0.00  0.00    +0.125 C 
ATOM     13  C   UNL     1      34.555 -15.827 -22.831  0.00  0.00    +0.021 C 
ATOM     14  C   UNL     1      34.242 -17.003 -24.918  0.00  0.00    +0.021 C 
ATOM     15  C   UNL     1      33.697 -14.655 -24.761  0.00  0.00    +0.042 C 
ATOM     16  C   UNL     1      34.087 -14.653 -23.422  0.00  0.00    +0.015 C 
ATOM     17  C   UNL     1      33.774 -15.830 -25.509  0.00  0.00    +0.015 C 
BRANCH  15  18
ATOM     18  N   UNL     1      33.225 -13.469 -25.360  0.00  0.00    -0.357 N 
ATOM     19  H   UNL     1      32.270 -13.234 -25.303  0.00  0.00    +0.142 HD
ATOM     20  H   UNL     1      33.850 -12.875 -25.836  0.00  0.00    +0.142 HD
ENDBRANCH  15  18
ENDBRANCH   1  12
TORSDOF 3
ENDMDL
MODEL 6
REMARK VINA RESULT:      -8.3      4.355      7.522
REMARK  Name = 5328
REMARK  3 active torsions:
REMARK  status: ('A' for Active; 'I' for Inactive)
REMARK    1  A    between atoms: S_1  and  N_5
REMARK    2  A    between atoms: S_1  and  C_12
REMARK    3  A    between atoms: C_15  and  N_18
REMARK                            x       y       z     vdW  Elec       q    Type
REMARK                         _______ _______ _______ _____ _____    ______ ____
ROOT
ATOM      1  S   UNL     1      35.532 -18.472 -21.759  0.00  0.00    +0.075 S 
ATOM      2  O   UNL     1      34.618 -18.269 -22.877  0.00  0.00    -0.150 OA
ATOM      3  O   UNL     1      36.941 -18.718 -22.040  0.00  0.00    -0.150 OA
ENDROOT
BRANCH   1   5
ATOM      4  S   UNL     1      34.453 -14.500 -20.695  0.00  0.00    -0.034 S 
ATOM      5  N   UNL     1      35.383 -17.125 -20.695  0.00  0.00    -0.192 N 
ATOM      6  N   UNL     1      33.094 -16.584 -21.308  0.00  0.00    -0.124 NA
ATOM      7  N   UNL     1      32.226 -15.515 -21.451  0.00  0.00    -0.144 NA
ATOM      8  C   UNL     1      34.301 -16.204 -20.915  0.00  0.00    +0.201 A 
ATOM      9  C   UNL     1      32.808 -14.372 -21.162  0.00  0.00    +0.113 A 
ATOM     10  C   UNL     1      32.160 -13.046 -21.217  0.00  0.00    +0.061 C 
ATOM     11  H   UNL     1      36.020 -16.990 -19.956  0.00  0.00    +0.176 HD
ENDBRANCH   1   5
BRANCH   1  12
ATOM     12  C   UNL     1      34.914 -19.794 -20.800  0.00  0.00    +0.125 C 
ATOM     13  C   UNL     1      33.536 -19.953 -20.638  0.00  0.00    +0.021 C 
ATOM     14  C   UNL     1      35.795 -20.690 -20.196  0.00  0.00    +0.021 C 
ATOM     15  C   UNL     1      33.924 -21.904 -19.268  0.00  0.00    +0.042 C 
ATOM     16  C   UNL     1      33.042 -21.008 -19.872  0.00  0.00    +0.015 C 
ATOM     17  C   UNL     1      35.300 -21.745 -19.429  0.00  0.00    +0.015 C 
BRANCH  15  18
ATOM     18  N   UNL     1      33.424 -22.972 -18.494  0.00  0.00    -0.357 N 
ATOM     19  H   UNL     1      34.046 -23.556 -18.002  0.00  0.00    +0.142 HD
ATOM     20  H   UNL     1      32.455 -23.135 -18.446  0.00  0.00    +0.142 HD
ENDBRANCH  15  18
ENDBRANCH   1  12
TORSDOF 3
ENDMDL
MODEL 7
REMARK VINA RESULT:      -8.1      4.284      8.226
REMARK  Name = 5328
REMARK  3 active torsions:
REMARK  status: ('A' for Active; 'I' for Inactive)
REMARK    1  A    between atoms: S_1  and  N_5
REMARK    2  A    between atoms: S_1  and  C_12
REMARK    3  A    between atoms: C_15  and  N_18
REMARK                            x       y       z     vdW  Elec       q    Type
REMARK                         _______ _______ _______ _____ _____    ______ ____
ROOT
ATOM      1  S   UNL     1      36.064 -18.641 -21.314  0.00  0.00    +0.075 S 
ATOM      2  O   UNL     1      37.483 -18.915 -21.121  0.00  0.00    -0.150 OA
ATOM      3  O   UNL     1      35.527 -17.365 -20.856  0.00  0.00    -0.150 OA
ENDROOT
BRANCH   1   5
ATOM      4  S   UNL     1      33.948 -17.893 -24.924  0.00  0.00    -0.034 S 
ATOM      5  N   UNL     1      35.700 -18.855 -22.984  0.00  0.00    -0.192 N 
ATOM      6  N   UNL     1      35.550 -16.484 -23.505  0.00  0.00    -0.124 NA
ATOM      7  N   UNL     1      34.886 -15.586 -24.322  0.00  0.00    -0.144 NA
ATOM      8  C   UNL     1      35.161 -17.734 -23.708  0.00  0.00    +0.201 A 
ATOM      9  C   UNL     1      34.024 -16.190 -25.111  0.00  0.00    +0.113 A 
ATOM     10  C   UNL     1      33.155 -15.519 -26.099  0.00  0.00    +0.061 C 
ATOM     11  H   UNL     1      35.856 -19.718 -23.430  0.00  0.00    +0.176 HD
ENDBRANCH   1   5
BRANCH   1  12
ATOM     12  C   UNL     1      35.165 -19.931 -20.553  0.00  0.00    +0.125 C 
ATOM     13  C   UNL     1      33.771 -19.943 -20.620  0.00  0.00    +0.021 C 
ATOM     14  C   UNL     1      35.840 -20.949 -19.881  0.00  0.00    +0.021 C 
ATOM     15  C   UNL     1      33.728 -21.990 -19.340  0.00  0.00    +0.042 C 
ATOM     16  C   UNL     1      33.053 -20.973 -20.013  0.00  0.00    +0.015 C 
ATOM     17  C   UNL     1      35.121 -21.979 -19.273  0.00  0.00    +0.015 C 
BRANCH  15  18
ATOM     18  N   UNL     1      33.002 -23.033 -18.727  0.00  0.00    -0.357 N 
ATOM     19  H   UNL     1      32.989 -23.113 -17.746  0.00  0.00    +0.142 HD
ATOM     20  H   UNL     1      32.510 -23.682 -19.280  0.00  0.00    +0.142 HD
ENDBRANCH  15  18
ENDBRANCH   1  12
TORSDOF 3
ENDMDL
MODEL 8
REMARK VINA RESULT:      -8.1      4.254      8.423
REMARK  Name = 5328
REMARK  3 active torsions:
REMARK  status: ('A' for Active; 'I' for Inactive)
REMARK    1  A    between atoms: S_1  and  N_5
REMARK    2  A    between atoms: S_1  and  C_12
REMARK    3  A    between atoms: C_15  and  N_18
REMARK                            x       y       z     vdW  Elec       q    Type
REMARK                         _______ _______ _______ _____ _____    ______ ____
ROOT
ATOM      1  S   UNL     1      35.044 -18.481 -21.882  0.00  0.00    +0.075 S 
ATOM      2  O   UNL     1      34.682 -18.834 -23.250  0.00  0.00    -0.150 OA
ATOM      3  O   UNL     1      36.434 -18.164 -21.583  0.00  0.00    -0.150 OA
ENDROOT
BRANCH   1   5
ATOM      4  S   UNL     1      33.826 -14.415 -21.654  0.00  0.00    -0.034 S 
ATOM      5  N   UNL     1      34.034 -17.179 -21.381  0.00  0.00    -0.192 N 
ATOM      6  N   UNL     1      33.901 -16.120 -23.565  0.00  0.00    -0.124 NA
ATOM      7  N   UNL     1      33.796 -14.881 -24.173  0.00  0.00    -0.144 NA
ATOM      8  C   UNL     1      33.928 -16.032 -22.244  0.00  0.00    +0.201 A 
ATOM      9  C   UNL     1      33.748 -13.907 -23.290  0.00  0.00    +0.113 A 
ATOM     10  C   UNL     1      33.638 -12.470 -23.610  0.00  0.00    +0.061 C 
ATOM     11  H   UNL     1      33.543 -17.217 -20.529  0.00  0.00    +0.176 HD
ENDBRANCH   1   5
BRANCH   1  12
ATOM     12  C   UNL     1      34.533 -19.789 -20.843  0.00  0.00    +0.125 C 
ATOM     13  C   UNL     1      35.472 -20.473 -20.070  0.00  0.00    +0.021 C 
ATOM     14  C   UNL     1      33.187 -20.149 -20.785  0.00  0.00    +0.021 C 
ATOM     15  C   UNL     1      33.718 -21.877 -19.183  0.00  0.00    +0.042 C 
ATOM     16  C   UNL     1      35.064 -21.517 -19.240  0.00  0.00    +0.015 C 
ATOM     17  C   UNL     1      32.779 -21.194 -19.956  0.00  0.00    +0.015 C 
BRANCH  15  18
ATOM     18  N   UNL     1      33.305 -22.933 -18.343  0.00  0.00    -0.357 N 
ATOM     19  H   UNL     1      32.496 -23.449 -18.563  0.00  0.00    +0.142 HD
ATOM     20  H   UNL     1      33.825 -23.153 -17.537  0.00  0.00    +0.142 HD
ENDBRANCH  15  18
ENDBRANCH   1  12
TORSDOF 3
ENDMDL
MODEL 9
REMARK VINA RESULT:      -8.1      5.324      7.251
REMARK  Name = 5328
REMARK  3 active torsions:
REMARK  status: ('A' for Active; 'I' for Inactive)
REMARK    1  A    between atoms: S_1  and  N_5
REMARK    2  A    between atoms: S_1  and  C_12
REMARK    3  A    between atoms: C_15  and  N_18
REMARK                            x       y       z     vdW  Elec       q    Type
REMARK                         _______ _______ _______ _____ _____    ______ ____
ROOT
ATOM      1  S   UNL     1      34.576 -23.839 -13.532  0.00  0.00    +0.075 S 
ATOM      2  O   UNL     1      34.372 -23.701 -12.095  0.00  0.00    -0.150 OA
ATOM      3  O   UNL     1      35.266 -22.773 -14.249  0.00  0.00    -0.150 OA
ENDROOT
BRANCH   1   5
ATOM      4  S   UNL     1      37.770 -26.313 -14.854  0.00  0.00    -0.034 S 
ATOM      5  N   UNL     1      35.376 -25.337 -13.818  0.00  0.00    -0.192 N 
ATOM      6  N   UNL     1      37.529 -24.637 -12.931  0.00  0.00    -0.124 NA
ATOM      7  N   UNL     1      38.890 -24.823 -13.097  0.00  0.00    -0.144 NA
ATOM      8  C   UNL     1      36.814 -25.355 -13.785  0.00  0.00    +0.201 A 
ATOM      9  C   UNL     1      39.152 -25.673 -14.066  0.00  0.00    +0.113 A 
ATOM     10  C   UNL     1      40.503 -26.086 -14.497  0.00  0.00    +0.061 C 
ATOM     11  H   UNL     1      34.864 -26.159 -13.999  0.00  0.00    +0.176 HD
ENDBRANCH   1   5
BRANCH   1  12
ATOM     12  C   UNL     1      33.013 -24.087 -14.270  0.00  0.00    +0.125 C 
ATOM     13  C   UNL     1      32.107 -24.982 -13.698  0.00  0.00    +0.021 C 
ATOM     14  C   UNL     1      32.669 -23.392 -15.428  0.00  0.00    +0.021 C 
ATOM     15  C   UNL     1      30.516 -24.486 -15.447  0.00  0.00    +0.042 C 
ATOM     16  C   UNL     1      30.858 -25.182 -14.288  0.00  0.00    +0.015 C 
ATOM     17  C   UNL     1      31.421 -23.591 -16.018  0.00  0.00    +0.015 C 
BRANCH  15  18
ATOM     18  N   UNL     1      29.252 -24.686 -16.042  0.00  0.00    -0.357 N 
ATOM     19  H   UNL     1      28.990 -25.584 -16.349  0.00  0.00    +0.142 HD
ATOM     20  H   UNL     1      28.634 -23.928 -16.151  0.00  0.00    +0.142 HD
ENDBRANCH  15  18
ENDBRANCH   1  12
TORSDOF 3
ENDMDL
