MODEL 1
REMARK VINA RESULT:      -6.6      0.000      0.000
REMARK  Name = 5287884
REMARK  4 active torsions:
REMARK  status: ('A' for Active; 'I' for Inactive)
REMARK    1  A    between atoms: C_3  and  C_10
REMARK    2  A    between atoms: C_10  and  C_11
REMARK    3  A    between atoms: C_11  and  O_12
REMARK    4  A    between atoms: C_11  and  O_14
REMARK                            x       y       z     vdW  Elec       q    Type
REMARK                         _______ _______ _______ _____ _____    ______ ____
ROOT
ATOM      1  O   UNL     1      39.705 -26.547 -14.496  0.00  0.00    -0.296 OA
ATOM      2  C   UNL     1      36.772 -24.513 -14.544  0.00  0.00    +0.007 C 
ATOM      3  C   UNL     1      37.033 -24.740 -13.027  0.00  0.00    +0.013 C 
ATOM      4  C   UNL     1      37.556 -25.682 -15.211  0.00  0.00    +0.058 C 
ATOM      5  C   UNL     1      38.504 -25.158 -12.938  0.00  0.00    +0.065 C 
ATOM      6  C   UNL     1      38.711 -25.878 -14.246  0.00  0.00    +0.150 C 
ATOM      7  C   UNL     1      37.345 -23.169 -15.049  0.00  0.00    +0.000 C 
ATOM      8  C   UNL     1      35.268 -24.529 -14.855  0.00  0.00    +0.000 C 
ATOM      9  C   UNL     1      36.808 -27.004 -15.350  0.00  0.00    +0.008 C 
ENDROOT
BRANCH   3  10
ATOM     10  C   UNL     1      36.722 -23.565 -12.108  0.00  0.00    +0.061 C 
BRANCH  10  11
ATOM     11  C   UNL     1      35.698 -23.926 -11.039  0.00  0.00    +0.228 C 
BRANCH  11  12
ATOM     12  O   UNL     1      36.314 -24.104  -9.769  0.00  0.00    -0.360 OA
ATOM     13  H   UNL     1      36.325 -23.257  -9.296  0.00  0.00    +0.213 HD
ENDBRANCH  11  12
BRANCH  11  14
ATOM     14  O   UNL     1      35.036 -25.118 -11.444  0.00  0.00    -0.360 OA
ATOM     15  H   UNL     1      35.569 -25.887 -11.190  0.00  0.00    +0.213 HD
ENDBRANCH  11  14
ENDBRANCH  10  11
ENDBRANCH   3  10
TORSDOF 4
ENDMDL
MODEL 2
REMARK VINA RESULT:      -6.5      6.144      7.941
REMARK  Name = 5287884
REMARK  4 active torsions:
REMARK  status: ('A' for Active; 'I' for Inactive)
REMARK    1  A    between atoms: C_3  and  C_10
REMARK    2  A    between atoms: C_10  and  C_11
REMARK    3  A    between atoms: C_11  and  O_12
REMARK    4  A    between atoms: C_11  and  O_14
REMARK                            x       y       z     vdW  Elec       q    Type
REMARK                         _______ _______ _______ _____ _____    ______ ____
ROOT
ATOM      1  O   UNL     1      33.242 -23.418 -17.008  0.00  0.00    -0.296 OA
ATOM      2  C   UNL     1      30.715 -24.220 -14.617  0.00  0.00    +0.007 C 
ATOM      3  C   UNL     1      30.187 -22.917 -15.283  0.00  0.00    +0.013 C 
ATOM      4  C   UNL     1      32.240 -24.180 -14.935  0.00  0.00    +0.058 C 
ATOM      5  C   UNL     1      30.944 -22.817 -16.610  0.00  0.00    +0.065 C 
ATOM      6  C   UNL     1      32.262 -23.466 -16.275  0.00  0.00    +0.150 C 
ATOM      7  C   UNL     1      30.103 -25.494 -15.239  0.00  0.00    +0.000 C 
ATOM      8  C   UNL     1      30.406 -24.237 -13.112  0.00  0.00    +0.000 C 
ATOM      9  C   UNL     1      33.115 -23.404 -13.956  0.00  0.00    +0.008 C 
ENDROOT
BRANCH   3  10
ATOM     10  C   UNL     1      28.678 -22.829 -15.483  0.00  0.00    +0.061 C 
BRANCH  10  11
ATOM     11  C   UNL     1      28.301 -22.678 -16.952  0.00  0.00    +0.228 C 
BRANCH  11  12
ATOM     12  O   UNL     1      27.412 -21.586 -17.150  0.00  0.00    -0.360 OA
ATOM     13  H   UNL     1      26.813 -21.516 -16.390  0.00  0.00    +0.213 HD
ENDBRANCH  11  12
BRANCH  11  14
ATOM     14  O   UNL     1      27.702 -23.894 -17.383  0.00  0.00    -0.360 OA
ATOM     15  H   UNL     1      27.944 -24.608 -16.772  0.00  0.00    +0.213 HD
ENDBRANCH  11  14
ENDBRANCH  10  11
ENDBRANCH   3  10
TORSDOF 4
ENDMDL
MODEL 3
REMARK VINA RESULT:      -6.3     10.111     11.674
REMARK  Name = 5287884
REMARK  4 active torsions:
REMARK  status: ('A' for Active; 'I' for Inactive)
REMARK    1  A    between atoms: C_3  and  C_10
REMARK    2  A    between atoms: C_10  and  C_11
REMARK    3  A    between atoms: C_11  and  O_12
REMARK    4  A    between atoms: C_11  and  O_14
REMARK                            x       y       z     vdW  Elec       q    Type
REMARK                         _______ _______ _______ _____ _____    ______ ____
ROOT
ATOM      1  O   UNL     1      34.688 -17.878 -25.591  0.00  0.00    -0.296 OA
ATOM      2  C   UNL     1      35.338 -17.774 -22.082  0.00  0.00    +0.007 C 
ATOM      3  C   UNL     1      34.292 -18.918 -22.226  0.00  0.00    +0.013 C 
ATOM      4  C   UNL     1      35.143 -16.957 -23.394  0.00  0.00    +0.058 C 
ATOM      5  C   UNL     1      34.359 -19.331 -23.699  0.00  0.00    +0.065 C 
ATOM      6  C   UNL     1      34.726 -18.037 -24.377  0.00  0.00    +0.150 C 
ATOM      7  C   UNL     1      36.789 -18.302 -22.028  0.00  0.00    +0.000 C 
ATOM      8  C   UNL     1      35.089 -16.953 -20.808  0.00  0.00    +0.000 C 
ATOM      9  C   UNL     1      34.063 -15.881 -23.366  0.00  0.00    +0.008 C 
ENDROOT
BRANCH   3  10
ATOM     10  C   UNL     1      34.469 -20.111 -21.293  0.00  0.00    +0.061 C 
BRANCH  10  11
ATOM     11  C   UNL     1      33.336 -20.222 -20.281  0.00  0.00    +0.228 C 
BRANCH  11  12
ATOM     12  O   UNL     1      32.785 -21.533 -20.260  0.00  0.00    -0.360 OA
ATOM     13  H   UNL     1      31.909 -21.521 -20.677  0.00  0.00    +0.213 HD
ENDBRANCH  11  12
BRANCH  11  14
ATOM     14  O   UNL     1      32.340 -19.266 -20.623  0.00  0.00    -0.360 OA
ATOM     15  H   UNL     1      32.763 -18.418 -20.831  0.00  0.00    +0.213 HD
ENDBRANCH  11  14
ENDBRANCH  10  11
ENDBRANCH   3  10
TORSDOF 4
ENDMDL
MODEL 4
REMARK VINA RESULT:      -6.2      5.415      7.619
REMARK  Name = 5287884
REMARK  4 active torsions:
REMARK  status: ('A' for Active; 'I' for Inactive)
REMARK    1  A    between atoms: C_3  and  C_10
REMARK    2  A    between atoms: C_10  and  C_11
REMARK    3  A    between atoms: C_11  and  O_12
REMARK    4  A    between atoms: C_11  and  O_14
REMARK                            x       y       z     vdW  Elec       q    Type
REMARK                         _______ _______ _______ _____ _____    ______ ____
ROOT
ATOM      1  O   UNL     1      28.830 -22.228 -16.861  0.00  0.00    -0.296 OA
ATOM      2  C   UNL     1      31.273 -23.730 -14.735  0.00  0.00    +0.007 C 
ATOM      3  C   UNL     1      31.957 -23.731 -16.133  0.00  0.00    +0.013 C 
ATOM      4  C   UNL     1      29.762 -23.593 -15.087  0.00  0.00    +0.058 C 
ATOM      5  C   UNL     1      31.195 -22.680 -16.945  0.00  0.00    +0.065 C 
ATOM      6  C   UNL     1      29.809 -22.767 -16.359  0.00  0.00    +0.150 C 
ATOM      7  C   UNL     1      31.700 -22.526 -13.867  0.00  0.00    +0.000 C 
ATOM      8  C   UNL     1      31.605 -25.012 -13.956  0.00  0.00    +0.000 C 
ATOM      9  C   UNL     1      29.014 -24.891 -15.377  0.00  0.00    +0.008 C 
ENDROOT
BRANCH   3  10
ATOM     10  C   UNL     1      33.460 -23.477 -16.146  0.00  0.00    +0.061 C 
BRANCH  10  11
ATOM     11  C   UNL     1      33.947 -22.981 -17.501  0.00  0.00    +0.228 C 
BRANCH  11  12
ATOM     12  O   UNL     1      33.718 -23.945 -18.520  0.00  0.00    -0.360 OA
ATOM     13  H   UNL     1      32.977 -23.657 -19.076  0.00  0.00    +0.213 HD
ENDBRANCH  11  12
BRANCH  11  14
ATOM     14  O   UNL     1      35.335 -22.688 -17.393  0.00  0.00    -0.360 OA
ATOM     15  H   UNL     1      35.536 -21.883 -17.895  0.00  0.00    +0.213 HD
ENDBRANCH  11  14
ENDBRANCH  10  11
ENDBRANCH   3  10
TORSDOF 4
ENDMDL
MODEL 5
REMARK VINA RESULT:      -6.1     18.988     20.477
REMARK  Name = 5287884
REMARK  4 active torsions:
REMARK  status: ('A' for Active; 'I' for Inactive)
REMARK    1  A    between atoms: C_3  and  C_10
REMARK    2  A    between atoms: C_10  and  C_11
REMARK    3  A    between atoms: C_11  and  O_12
REMARK    4  A    between atoms: C_11  and  O_14
REMARK                            x       y       z     vdW  Elec       q    Type
REMARK                         _______ _______ _______ _____ _____    ______ ____
ROOT
ATOM      1  O   UNL     1      32.521  -9.452 -19.255  0.00  0.00    -0.296 OA
ATOM      2  C   UNL     1      32.455  -8.068 -22.545  0.00  0.00    +0.007 C 
ATOM      3  C   UNL     1      31.666  -7.029 -21.697  0.00  0.00    +0.013 C 
ATOM      4  C   UNL     1      32.381  -9.358 -21.674  0.00  0.00    +0.058 C 
ATOM      5  C   UNL     1      32.085  -7.302 -20.249  0.00  0.00    +0.065 C 
ATOM      6  C   UNL     1      32.350  -8.786 -20.268  0.00  0.00    +0.150 C 
ATOM      7  C   UNL     1      33.937  -7.674 -22.737  0.00  0.00    +0.000 C 
ATOM      8  C   UNL     1      31.830  -8.235 -23.938  0.00  0.00    +0.000 C 
ATOM      9  C   UNL     1      31.148 -10.235 -21.869  0.00  0.00    +0.008 C 
ENDROOT
BRANCH   3  10
ATOM     10  C   UNL     1      31.860  -5.566 -22.077  0.00  0.00    +0.061 C 
BRANCH  10  11
ATOM     11  C   UNL     1      30.594  -4.950 -22.659  0.00  0.00    +0.228 C 
BRANCH  11  12
ATOM     12  O   UNL     1      30.700  -4.779 -24.067  0.00  0.00    -0.360 OA
ATOM     13  H   UNL     1      30.206  -5.484 -24.515  0.00  0.00    +0.213 HD
ENDBRANCH  11  12
BRANCH  11  14
ATOM     14  O   UNL     1      30.374  -3.700 -22.019  0.00  0.00    -0.360 OA
ATOM     15  H   UNL     1      30.771  -2.991 -22.548  0.00  0.00    +0.213 HD
ENDBRANCH  11  14
ENDBRANCH  10  11
ENDBRANCH   3  10
TORSDOF 4
ENDMDL
MODEL 6
REMARK VINA RESULT:      -6.0      1.637      2.379
REMARK  Name = 5287884
REMARK  4 active torsions:
REMARK  status: ('A' for Active; 'I' for Inactive)
REMARK    1  A    between atoms: C_3  and  C_10
REMARK    2  A    between atoms: C_10  and  C_11
REMARK    3  A    between atoms: C_11  and  O_12
REMARK    4  A    between atoms: C_11  and  O_14
REMARK                            x       y       z     vdW  Elec       q    Type
REMARK                         _______ _______ _______ _____ _____    ______ ____
ROOT
ATOM      1  O   UNL     1      38.331 -22.797 -16.130  0.00  0.00    -0.296 OA
ATOM      2  C   UNL     1      36.891 -25.358 -14.101  0.00  0.00    +0.007 C 
ATOM      3  C   UNL     1      36.709 -24.070 -13.247  0.00  0.00    +0.013 C 
ATOM      4  C   UNL     1      38.034 -24.965 -15.084  0.00  0.00    +0.058 C 
ATOM      5  C   UNL     1      36.839 -22.914 -14.243  0.00  0.00    +0.065 C 
ATOM      6  C   UNL     1      37.799 -23.475 -15.260  0.00  0.00    +0.150 C 
ATOM      7  C   UNL     1      35.627 -25.713 -14.915  0.00  0.00    +0.000 C 
ATOM      8  C   UNL     1      37.235 -26.565 -13.216  0.00  0.00    +0.000 C 
ATOM      9  C   UNL     1      39.459 -25.177 -14.583  0.00  0.00    +0.008 C 
ENDROOT
BRANCH   3  10
ATOM     10  C   UNL     1      35.421 -23.978 -12.437  0.00  0.00    +0.061 C 
BRANCH  10  11
ATOM     11  C   UNL     1      35.680 -24.041 -10.936  0.00  0.00    +0.228 C 
BRANCH  11  12
ATOM     12  O   UNL     1      37.056 -23.838 -10.638  0.00  0.00    -0.360 OA
ATOM     13  H   UNL     1      37.177 -23.819  -9.676  0.00  0.00    +0.213 HD
ENDBRANCH  11  12
BRANCH  11  14
ATOM     14  O   UNL     1      35.249 -25.312 -10.466  0.00  0.00    -0.360 OA
ATOM     15  H   UNL     1      35.881 -25.646  -9.811  0.00  0.00    +0.213 HD
ENDBRANCH  11  14
ENDBRANCH  10  11
ENDBRANCH   3  10
TORSDOF 4
ENDMDL
MODEL 7
REMARK VINA RESULT:      -6.0     18.394     20.068
REMARK  Name = 5287884
REMARK  4 active torsions:
REMARK  status: ('A' for Active; 'I' for Inactive)
REMARK    1  A    between atoms: C_3  and  C_10
REMARK    2  A    between atoms: C_10  and  C_11
REMARK    3  A    between atoms: C_11  and  O_12
REMARK    4  A    between atoms: C_11  and  O_14
REMARK                            x       y       z     vdW  Elec       q    Type
REMARK                         _______ _______ _______ _____ _____    ______ ____
ROOT
ATOM      1  O   UNL     1      30.885  -5.666 -24.574  0.00  0.00    -0.296 OA
ATOM      2  C   UNL     1      32.610  -7.506 -22.048  0.00  0.00    +0.007 C 
ATOM      3  C   UNL     1      31.573  -8.527 -22.598  0.00  0.00    +0.013 C 
ATOM      4  C   UNL     1      32.011  -6.134 -22.478  0.00  0.00    +0.058 C 
ATOM      5  C   UNL     1      31.171  -7.980 -23.971  0.00  0.00    +0.065 C 
ATOM      6  C   UNL     1      31.304  -6.492 -23.773  0.00  0.00    +0.150 C 
ATOM      7  C   UNL     1      34.004  -7.672 -22.694  0.00  0.00    +0.000 C 
ATOM      8  C   UNL     1      32.777  -7.651 -20.528  0.00  0.00    +0.000 C 
ATOM      9  C   UNL     1      30.995  -5.512 -21.526  0.00  0.00    +0.008 C 
ENDROOT
BRANCH   3  10
ATOM     10  C   UNL     1      32.035  -9.977 -22.679  0.00  0.00    +0.061 C 
BRANCH  10  11
ATOM     11  C   UNL     1      31.063 -10.930 -21.994  0.00  0.00    +0.228 C 
BRANCH  11  12
ATOM     12  O   UNL     1      31.035 -10.721 -20.588  0.00  0.00    -0.360 OA
ATOM     13  H   UNL     1      30.130 -10.841 -20.262  0.00  0.00    +0.213 HD
ENDBRANCH  11  12
BRANCH  11  14
ATOM     14  O   UNL     1      31.462 -12.261 -22.294  0.00  0.00    -0.360 OA
ATOM     15  H   UNL     1      30.928 -12.601 -23.030  0.00  0.00    +0.213 HD
ENDBRANCH  11  14
ENDBRANCH  10  11
ENDBRANCH   3  10
TORSDOF 4
ENDMDL
MODEL 8
REMARK VINA RESULT:      -5.9      1.965      3.325
REMARK  Name = 5287884
REMARK  4 active torsions:
REMARK  status: ('A' for Active; 'I' for Inactive)
REMARK    1  A    between atoms: C_3  and  C_10
REMARK    2  A    between atoms: C_10  and  C_11
REMARK    3  A    between atoms: C_11  and  O_12
REMARK    4  A    between atoms: C_11  and  O_14
REMARK                            x       y       z     vdW  Elec       q    Type
REMARK                         _______ _______ _______ _____ _____    ______ ____
ROOT
ATOM      1  O   UNL     1      34.429 -22.882 -16.629  0.00  0.00    -0.296 OA
ATOM      2  C   UNL     1      36.820 -24.513 -14.538  0.00  0.00    +0.007 C 
ATOM      3  C   UNL     1      35.802 -23.911 -13.527  0.00  0.00    +0.013 C 
ATOM      4  C   UNL     1      36.578 -23.665 -15.823  0.00  0.00    +0.058 C 
ATOM      5  C   UNL     1      34.536 -23.651 -14.349  0.00  0.00    +0.065 C 
ATOM      6  C   UNL     1      35.098 -23.343 -15.713  0.00  0.00    +0.150 C 
ATOM      7  C   UNL     1      36.534 -25.998 -14.854  0.00  0.00    +0.000 C 
ATOM      8  C   UNL     1      38.256 -24.415 -14.003  0.00  0.00    +0.000 C 
ATOM      9  C   UNL     1      37.354 -22.356 -15.924  0.00  0.00    +0.008 C 
ENDROOT
BRANCH   3  10
ATOM     10  C   UNL     1      35.511 -24.749 -12.287  0.00  0.00    +0.061 C 
BRANCH  10  11
ATOM     11  C   UNL     1      35.946 -24.050 -11.006  0.00  0.00    +0.228 C 
BRANCH  11  12
ATOM     12  O   UNL     1      37.359 -24.094 -10.844  0.00  0.00    -0.360 OA
ATOM     13  H   UNL     1      37.608 -23.602 -10.047  0.00  0.00    +0.213 HD
ENDBRANCH  11  12
BRANCH  11  14
ATOM     14  O   UNL     1      35.298 -24.686  -9.912  0.00  0.00    -0.360 OA
ATOM     15  H   UNL     1      34.509 -25.152 -10.230  0.00  0.00    +0.213 HD
ENDBRANCH  11  14
ENDBRANCH  10  11
ENDBRANCH   3  10
TORSDOF 4
ENDMDL
MODEL 9
REMARK VINA RESULT:      -5.8     19.666     21.336
REMARK  Name = 5287884
REMARK  4 active torsions:
REMARK  status: ('A' for Active; 'I' for Inactive)
REMARK    1  A    between atoms: C_3  and  C_10
REMARK    2  A    between atoms: C_10  and  C_11
REMARK    3  A    between atoms: C_11  and  O_12
REMARK    4  A    between atoms: C_11  and  O_14
REMARK                            x       y       z     vdW  Elec       q    Type
REMARK                         _______ _______ _______ _____ _____    ______ ____
ROOT
ATOM      1  O   UNL     1      29.670  -4.428 -21.789  0.00  0.00    -0.296 OA
ATOM      2  C   UNL     1      31.983  -6.386 -23.676  0.00  0.00    +0.007 C 
ATOM      3  C   UNL     1      32.538  -6.464 -22.224  0.00  0.00    +0.013 C 
ATOM      4  C   UNL     1      31.082  -5.115 -23.636  0.00  0.00    +0.058 C 
ATOM      5  C   UNL     1      31.355  -6.085 -21.328  0.00  0.00    +0.065 C 
ATOM      6  C   UNL     1      30.589  -5.124 -22.200  0.00  0.00    +0.150 C 
ATOM      7  C   UNL     1      31.114  -7.609 -24.044  0.00  0.00    +0.000 C 
ATOM      8  C   UNL     1      33.123  -6.295 -24.700  0.00  0.00    +0.000 C 
ATOM      9  C   UNL     1      31.778  -3.785 -23.903  0.00  0.00    +0.008 C 
ENDROOT
BRANCH   3  10
ATOM     10  C   UNL     1      33.158  -7.794 -21.812  0.00  0.00    +0.061 C 
BRANCH  10  11
ATOM     11  C   UNL     1      32.261  -8.576 -20.861  0.00  0.00    +0.228 C 
BRANCH  11  12
ATOM     12  O   UNL     1      32.853  -8.700 -19.574  0.00  0.00    -0.360 OA
ATOM     13  H   UNL     1      33.575  -9.346 -19.612  0.00  0.00    +0.213 HD
ENDBRANCH  11  12
BRANCH  11  14
ATOM     14  O   UNL     1      32.024  -9.858 -21.428  0.00  0.00    -0.360 OA
ATOM     15  H   UNL     1      31.222 -10.241 -21.040  0.00  0.00    +0.213 HD
ENDBRANCH  11  14
ENDBRANCH  10  11
ENDBRANCH   3  10
TORSDOF 4
ENDMDL
