MODEL 1
REMARK VINA RESULT:     -11.3      0.000      0.000
REMARK  Name = 5342
REMARK  6 active torsions:
REMARK  status: ('A' for Active; 'I' for Inactive)
REMARK    1  A    between atoms: N_3  and  C_8
REMARK    2  A    between atoms: N_4  and  C_14
REMARK    3  A    between atoms: C_5  and  C_20
REMARK    4  A    between atoms: C_20  and  C_21
REMARK    5  A    between atoms: C_21  and  S_22
REMARK    6  A    between atoms: S_22  and  C_24
REMARK                            x       y       z     vdW  Elec       q    Type
REMARK                         _______ _______ _______ _____ _____    ______ ____
ROOT
ATOM      1  O   UNL     1      35.438 -15.889 -23.642  0.00  0.00    -0.272 OA
ATOM      2  O   UNL     1      31.914 -15.869 -20.505  0.00  0.00    -0.272 OA
ATOM      3  N   UNL     1      33.685 -14.358 -23.134  0.00  0.00    -0.179 N 
ATOM      4  N   UNL     1      32.697 -14.306 -22.120  0.00  0.00    -0.179 N 
ATOM      5  C   UNL     1      33.796 -16.353 -21.936  0.00  0.00    +0.158 C 
ATOM      6  C   UNL     1      34.468 -15.515 -22.999  0.00  0.00    +0.254 C 
ATOM      7  C   UNL     1      32.644 -15.522 -21.421  0.00  0.00    +0.254 C 
ENDROOT
BRANCH   3   8
ATOM      8  C   UNL     1      33.637 -13.602 -24.344  0.00  0.00    +0.073 C 
ATOM      9  C   UNL     1      34.087 -12.278 -24.362  0.00  0.00    +0.017 C 
ATOM     10  C   UNL     1      33.141 -14.181 -25.513  0.00  0.00    +0.017 C 
ATOM     11  C   UNL     1      34.040 -11.540 -25.544  0.00  0.00    +0.001 C 
ATOM     12  C   UNL     1      33.095 -13.442 -26.695  0.00  0.00    +0.001 C 
ATOM     13  C   UNL     1      33.544 -12.122 -26.711  0.00  0.00    +0.000 C 
ENDBRANCH   3   8
BRANCH   4  14
ATOM     14  C   UNL     1      32.155 -13.097 -21.589  0.00  0.00    +0.073 C 
ATOM     15  C   UNL     1      32.251 -12.826 -20.222  0.00  0.00    +0.017 C 
ATOM     16  C   UNL     1      31.530 -12.177 -22.435  0.00  0.00    +0.017 C 
ATOM     17  C   UNL     1      31.723 -11.644 -19.703  0.00  0.00    +0.001 C 
ATOM     18  C   UNL     1      31.001 -10.995 -21.916  0.00  0.00    +0.001 C 
ATOM     19  C   UNL     1      31.098 -10.729 -20.549  0.00  0.00    +0.000 C 
ENDBRANCH   4  14
BRANCH   5  20
ATOM     20  C   UNL     1      34.767 -16.707 -20.824  0.00  0.00    +0.033 C 
BRANCH  20  21
ATOM     21  C   UNL     1      35.459 -18.036 -21.094  0.00  0.00    +0.097 C 
BRANCH  21  22
ATOM     22  S   UNL     1      34.238 -19.342 -21.432  0.00  0.00    +0.065 S 
ATOM     23  O   UNL     1      32.913 -18.838 -20.952  0.00  0.00    -0.251 OA
BRANCH  22  24
ATOM     24  C   UNL     1      34.821 -20.511 -20.187  0.00  0.00    +0.056 C 
ATOM     25  C   UNL     1      36.171 -20.552 -19.862  0.00  0.00    +0.009 C 
ATOM     26  C   UNL     1      33.913 -21.360 -19.564  0.00  0.00    +0.009 C 
ATOM     27  C   UNL     1      36.622 -21.456 -18.900  0.00  0.00    +0.001 C 
ATOM     28  C   UNL     1      34.365 -22.263 -18.601  0.00  0.00    +0.001 C 
ATOM     29  C   UNL     1      35.719 -22.311 -18.269  0.00  0.00    +0.000 C 
ENDBRANCH  22  24
ENDBRANCH  21  22
ENDBRANCH  20  21
ENDBRANCH   5  20
TORSDOF 6
ENDMDL
MODEL 2
REMARK VINA RESULT:     -11.1      1.024      4.010
REMARK  Name = 5342
REMARK  6 active torsions:
REMARK  status: ('A' for Active; 'I' for Inactive)
REMARK    1  A    between atoms: N_3  and  C_8
REMARK    2  A    between atoms: N_4  and  C_14
REMARK    3  A    between atoms: C_5  and  C_20
REMARK    4  A    between atoms: C_20  and  C_21
REMARK    5  A    between atoms: C_21  and  S_22
REMARK    6  A    between atoms: S_22  and  C_24
REMARK                            x       y       z     vdW  Elec       q    Type
REMARK                         _______ _______ _______ _____ _____    ______ ____
ROOT
ATOM      1  O   UNL     1      32.183 -16.045 -20.501  0.00  0.00    -0.272 OA
ATOM      2  O   UNL     1      35.628 -15.863 -23.720  0.00  0.00    -0.272 OA
ATOM      3  N   UNL     1      32.857 -14.425 -22.113  0.00  0.00    -0.179 N 
ATOM      4  N   UNL     1      33.822 -14.421 -23.149  0.00  0.00    -0.179 N 
ATOM      5  C   UNL     1      34.096 -16.389 -21.931  0.00  0.00    +0.158 C 
ATOM      6  C   UNL     1      32.886 -15.644 -21.417  0.00  0.00    +0.254 C 
ATOM      7  C   UNL     1      34.670 -15.535 -23.037  0.00  0.00    +0.254 C 
ENDROOT
BRANCH   3   8
ATOM      8  C   UNL     1      32.248 -13.250 -21.576  0.00  0.00    +0.073 C 
ATOM      9  C   UNL     1      31.536 -12.385 -22.412  0.00  0.00    +0.017 C 
ATOM     10  C   UNL     1      32.361 -12.962 -20.215  0.00  0.00    +0.017 C 
ATOM     11  C   UNL     1      30.941 -11.239 -21.887  0.00  0.00    +0.001 C 
ATOM     12  C   UNL     1      31.766 -11.815 -19.691  0.00  0.00    +0.001 C 
ATOM     13  C   UNL     1      31.056 -10.953 -20.527  0.00  0.00    +0.000 C 
ENDBRANCH   3   8
BRANCH   4  14
ATOM     14  C   UNL     1      33.695 -13.679 -24.362  0.00  0.00    +0.073 C 
ATOM     15  C   UNL     1      33.166 -14.286 -25.504  0.00  0.00    +0.017 C 
ATOM     16  C   UNL     1      34.096 -12.342 -24.412  0.00  0.00    +0.017 C 
ATOM     17  C   UNL     1      33.041 -13.561 -26.688  0.00  0.00    +0.001 C 
ATOM     18  C   UNL     1      33.971 -11.616 -25.596  0.00  0.00    +0.001 C 
ATOM     19  C   UNL     1      33.443 -12.226 -26.736  0.00  0.00    +0.000 C 
ENDBRANCH   4  14
BRANCH   5  20
ATOM     20  C   UNL     1      33.715 -17.769 -22.435  0.00  0.00    +0.033 C 
BRANCH  20  21
ATOM     21  C   UNL     1      34.939 -18.660 -22.594  0.00  0.00    +0.097 C 
BRANCH  21  22
ATOM     22  S   UNL     1      35.968 -18.617 -21.094  0.00  0.00    +0.065 S 
ATOM     23  O   UNL     1      37.355 -19.004 -21.504  0.00  0.00    -0.251 OA
BRANCH  22  24
ATOM     24  C   UNL     1      35.249 -20.065 -20.296  0.00  0.00    +0.056 C 
ATOM     25  C   UNL     1      33.873 -20.259 -20.335  0.00  0.00    +0.009 C 
ATOM     26  C   UNL     1      36.077 -20.975 -19.649  0.00  0.00    +0.009 C 
ATOM     27  C   UNL     1      33.316 -21.379 -19.717  0.00  0.00    +0.001 C 
ATOM     28  C   UNL     1      35.520 -22.096 -19.031  0.00  0.00    +0.001 C 
ATOM     29  C   UNL     1      34.140 -22.298 -19.066  0.00  0.00    +0.000 C 
ENDBRANCH  22  24
ENDBRANCH  21  22
ENDBRANCH  20  21
ENDBRANCH   5  20
TORSDOF 6
ENDMDL
MODEL 3
REMARK VINA RESULT:     -10.9      1.064      3.884
REMARK  Name = 5342
REMARK  6 active torsions:
REMARK  status: ('A' for Active; 'I' for Inactive)
REMARK    1  A    between atoms: N_3  and  C_8
REMARK    2  A    between atoms: N_4  and  C_14
REMARK    3  A    between atoms: C_5  and  C_20
REMARK    4  A    between atoms: C_20  and  C_21
REMARK    5  A    between atoms: C_21  and  S_22
REMARK    6  A    between atoms: S_22  and  C_24
REMARK                            x       y       z     vdW  Elec       q    Type
REMARK                         _______ _______ _______ _____ _____    ______ ____
ROOT
ATOM      1  O   UNL     1      32.575 -14.494 -20.014  0.00  0.00    -0.272 OA
ATOM      2  O   UNL     1      35.625 -15.537 -23.459  0.00  0.00    -0.272 OA
ATOM      3  N   UNL     1      32.981 -13.608 -22.187  0.00  0.00    -0.179 N 
ATOM      4  N   UNL     1      33.823 -13.995 -23.258  0.00  0.00    -0.179 N 
ATOM      5  C   UNL     1      34.331 -15.348 -21.431  0.00  0.00    +0.158 C 
ATOM      6  C   UNL     1      33.150 -14.469 -21.092  0.00  0.00    +0.254 C 
ATOM      7  C   UNL     1      34.734 -14.978 -22.839  0.00  0.00    +0.254 C 
ENDROOT
BRANCH   3   8
ATOM      8  C   UNL     1      32.377 -12.320 -22.064  0.00  0.00    +0.073 C 
ATOM      9  C   UNL     1      32.835 -11.253 -22.842  0.00  0.00    +0.017 C 
ATOM     10  C   UNL     1      31.326 -12.122 -21.166  0.00  0.00    +0.017 C 
ATOM     11  C   UNL     1      32.244  -9.996 -22.721  0.00  0.00    +0.001 C 
ATOM     12  C   UNL     1      30.736 -10.864 -21.046  0.00  0.00    +0.001 C 
ATOM     13  C   UNL     1      31.195  -9.801 -21.823  0.00  0.00    +0.000 C 
ENDBRANCH   3   8
BRANCH   4  14
ATOM     14  C   UNL     1      33.524 -13.771 -24.636  0.00  0.00    +0.073 C 
ATOM     15  C   UNL     1      33.859 -12.556 -25.239  0.00  0.00    +0.017 C 
ATOM     16  C   UNL     1      32.897 -14.768 -25.389  0.00  0.00    +0.017 C 
ATOM     17  C   UNL     1      33.567 -12.339 -26.585  0.00  0.00    +0.001 C 
ATOM     18  C   UNL     1      32.605 -14.550 -26.735  0.00  0.00    +0.001 C 
ATOM     19  C   UNL     1      32.940 -13.335 -27.334  0.00  0.00    +0.000 C 
ENDBRANCH   4  14
BRANCH   5  20
ATOM     20  C   UNL     1      33.967 -16.818 -21.325  0.00  0.00    +0.033 C 
BRANCH  20  21
ATOM     21  C   UNL     1      35.159 -17.656 -20.882  0.00  0.00    +0.097 C 
BRANCH  21  22
ATOM     22  S   UNL     1      35.319 -19.146 -21.913  0.00  0.00    +0.065 S 
ATOM     23  O   UNL     1      34.222 -19.094 -22.930  0.00  0.00    -0.251 OA
BRANCH  22  24
ATOM     24  C   UNL     1      34.796 -20.334 -20.659  0.00  0.00    +0.056 C 
ATOM     25  C   UNL     1      33.445 -20.480 -20.373  0.00  0.00    +0.009 C 
ATOM     26  C   UNL     1      35.751 -21.093 -19.992  0.00  0.00    +0.009 C 
ATOM     27  C   UNL     1      33.040 -21.398 -19.403  0.00  0.00    +0.001 C 
ATOM     28  C   UNL     1      35.346 -22.012 -19.023  0.00  0.00    +0.001 C 
ATOM     29  C   UNL     1      33.991 -22.164 -18.729  0.00  0.00    +0.000 C 
ENDBRANCH  22  24
ENDBRANCH  21  22
ENDBRANCH  20  21
ENDBRANCH   5  20
TORSDOF 6
ENDMDL
MODEL 4
REMARK VINA RESULT:     -10.8      2.560      4.076
REMARK  Name = 5342
REMARK  6 active torsions:
REMARK  status: ('A' for Active; 'I' for Inactive)
REMARK    1  A    between atoms: N_3  and  C_8
REMARK    2  A    between atoms: N_4  and  C_14
REMARK    3  A    between atoms: C_5  and  C_20
REMARK    4  A    between atoms: C_20  and  C_21
REMARK    5  A    between atoms: C_21  and  S_22
REMARK    6  A    between atoms: S_22  and  C_24
REMARK                            x       y       z     vdW  Elec       q    Type
REMARK                         _______ _______ _______ _____ _____    ______ ____
ROOT
ATOM      1  O   UNL     1      34.271 -13.957 -23.278  0.00  0.00    -0.272 OA
ATOM      2  O   UNL     1      30.499 -11.623 -21.669  0.00  0.00    -0.272 OA
ATOM      3  N   UNL     1      33.485 -11.721 -23.515  0.00  0.00    -0.179 N 
ATOM      4  N   UNL     1      32.412 -10.997 -22.942  0.00  0.00    -0.179 N 
ATOM      5  C   UNL     1      32.199 -13.222 -22.283  0.00  0.00    +0.158 C 
ATOM      6  C   UNL     1      33.487 -13.047 -23.054  0.00  0.00    +0.254 C 
ATOM      7  C   UNL     1      31.540 -11.863 -22.263  0.00  0.00    +0.254 C 
ENDROOT
BRANCH   3   8
ATOM      8  C   UNL     1      34.194 -11.316 -24.686  0.00  0.00    +0.073 C 
ATOM      9  C   UNL     1      33.969 -11.966 -25.903  0.00  0.00    +0.017 C 
ATOM     10  C   UNL     1      35.114 -10.268 -24.620  0.00  0.00    +0.017 C 
ATOM     11  C   UNL     1      34.662 -11.569 -27.046  0.00  0.00    +0.001 C 
ATOM     12  C   UNL     1      35.807  -9.872 -25.765  0.00  0.00    +0.001 C 
ATOM     13  C   UNL     1      35.580 -10.522 -26.977  0.00  0.00    +0.000 C 
ENDBRANCH   3   8
BRANCH   4  14
ATOM     14  C   UNL     1      32.432  -9.591 -22.697  0.00  0.00    +0.073 C 
ATOM     15  C   UNL     1      32.116  -8.695 -23.722  0.00  0.00    +0.017 C 
ATOM     16  C   UNL     1      32.765  -9.103 -21.431  0.00  0.00    +0.017 C 
ATOM     17  C   UNL     1      32.135  -7.322 -23.483  0.00  0.00    +0.001 C 
ATOM     18  C   UNL     1      32.784  -7.729 -21.192  0.00  0.00    +0.001 C 
ATOM     19  C   UNL     1      32.469  -6.838 -22.219  0.00  0.00    +0.000 C 
ENDBRANCH   4  14
BRANCH   5  20
ATOM     20  C   UNL     1      32.469 -13.729 -20.878  0.00  0.00    +0.033 C 
BRANCH  20  21
ATOM     21  C   UNL     1      32.535 -15.250 -20.839  0.00  0.00    +0.097 C 
BRANCH  21  22
ATOM     22  S   UNL     1      34.131 -15.809 -20.167  0.00  0.00    +0.065 S 
ATOM     23  O   UNL     1      35.129 -14.731 -20.455  0.00  0.00    -0.251 OA
BRANCH  22  24
ATOM     24  C   UNL     1      34.429 -17.116 -21.374  0.00  0.00    +0.056 C 
ATOM     25  C   UNL     1      34.066 -18.423 -21.075  0.00  0.00    +0.009 C 
ATOM     26  C   UNL     1      35.018 -16.803 -22.594  0.00  0.00    +0.009 C 
ATOM     27  C   UNL     1      34.296 -19.434 -22.008  0.00  0.00    +0.001 C 
ATOM     28  C   UNL     1      35.248 -17.814 -23.527  0.00  0.00    +0.001 C 
ATOM     29  C   UNL     1      34.887 -19.130 -23.234  0.00  0.00    +0.000 C 
ENDBRANCH  22  24
ENDBRANCH  21  22
ENDBRANCH  20  21
ENDBRANCH   5  20
TORSDOF 6
ENDMDL
MODEL 5
REMARK VINA RESULT:     -10.7      2.881      4.387
REMARK  Name = 5342
REMARK  6 active torsions:
REMARK  status: ('A' for Active; 'I' for Inactive)
REMARK    1  A    between atoms: N_3  and  C_8
REMARK    2  A    between atoms: N_4  and  C_14
REMARK    3  A    between atoms: C_5  and  C_20
REMARK    4  A    between atoms: C_20  and  C_21
REMARK    5  A    between atoms: C_21  and  S_22
REMARK    6  A    between atoms: S_22  and  C_24
REMARK                            x       y       z     vdW  Elec       q    Type
REMARK                         _______ _______ _______ _____ _____    ______ ____
ROOT
ATOM      1  O   UNL     1      34.610 -11.189 -25.280  0.00  0.00    -0.272 OA
ATOM      2  O   UNL     1      31.503 -13.356 -22.467  0.00  0.00    -0.272 OA
ATOM      3  N   UNL     1      33.189 -10.458 -23.513  0.00  0.00    -0.179 N 
ATOM      4  N   UNL     1      32.340 -11.131 -22.600  0.00  0.00    -0.179 N 
ATOM      5  C   UNL     1      33.114 -12.700 -24.140  0.00  0.00    +0.158 C 
ATOM      6  C   UNL     1      33.788 -11.372 -24.393  0.00  0.00    +0.254 C 
ATOM      7  C   UNL     1      32.173 -12.472 -22.980  0.00  0.00    +0.254 C 
ENDROOT
BRANCH   3   8
ATOM      8  C   UNL     1      33.128  -9.058 -23.786  0.00  0.00    +0.073 C 
ATOM      9  C   UNL     1      31.894  -8.440 -24.010  0.00  0.00    +0.017 C 
ATOM     10  C   UNL     1      34.300  -8.301 -23.828  0.00  0.00    +0.017 C 
ATOM     11  C   UNL     1      31.835  -7.073 -24.276  0.00  0.00    +0.001 C 
ATOM     12  C   UNL     1      34.240  -6.933 -24.094  0.00  0.00    +0.001 C 
ATOM     13  C   UNL     1      33.008  -6.319 -24.318  0.00  0.00    +0.000 C 
ENDBRANCH   3   8
BRANCH   4  14
ATOM     14  C   UNL     1      32.059 -10.673 -21.278  0.00  0.00    +0.073 C 
ATOM     15  C   UNL     1      31.671 -11.580 -20.288  0.00  0.00    +0.017 C 
ATOM     16  C   UNL     1      32.173  -9.316 -20.966  0.00  0.00    +0.017 C 
ATOM     17  C   UNL     1      31.398 -11.132 -18.996  0.00  0.00    +0.001 C 
ATOM     18  C   UNL     1      31.900  -8.868 -19.674  0.00  0.00    +0.001 C 
ATOM     19  C   UNL     1      31.512  -9.777 -18.688  0.00  0.00    +0.000 C 
ENDBRANCH   4  14
BRANCH   5  20
ATOM     20  C   UNL     1      34.133 -13.780 -23.824  0.00  0.00    +0.033 C 
BRANCH  20  21
ATOM     21  C   UNL     1      33.594 -15.166 -24.150  0.00  0.00    +0.097 C 
BRANCH  21  22
ATOM     22  S   UNL     1      34.921 -16.246 -24.768  0.00  0.00    +0.065 S 
ATOM     23  O   UNL     1      34.355 -17.022 -25.916  0.00  0.00    -0.251 OA
BRANCH  22  24
ATOM     24  C   UNL     1      34.958 -17.372 -23.359  0.00  0.00    +0.056 C 
ATOM     25  C   UNL     1      35.111 -16.862 -22.075  0.00  0.00    +0.009 C 
ATOM     26  C   UNL     1      34.832 -18.740 -23.569  0.00  0.00    +0.009 C 
ATOM     27  C   UNL     1      35.139 -17.732 -20.985  0.00  0.00    +0.001 C 
ATOM     28  C   UNL     1      34.860 -19.611 -22.479  0.00  0.00    +0.001 C 
ATOM     29  C   UNL     1      35.013 -19.106 -21.187  0.00  0.00    +0.000 C 
ENDBRANCH  22  24
ENDBRANCH  21  22
ENDBRANCH  20  21
ENDBRANCH   5  20
TORSDOF 6
ENDMDL
MODEL 6
REMARK VINA RESULT:     -10.7      8.956     12.206
REMARK  Name = 5342
REMARK  6 active torsions:
REMARK  status: ('A' for Active; 'I' for Inactive)
REMARK    1  A    between atoms: N_3  and  C_8
REMARK    2  A    between atoms: N_4  and  C_14
REMARK    3  A    between atoms: C_5  and  C_20
REMARK    4  A    between atoms: C_20  and  C_21
REMARK    5  A    between atoms: C_21  and  S_22
REMARK    6  A    between atoms: S_22  and  C_24
REMARK                            x       y       z     vdW  Elec       q    Type
REMARK                         _______ _______ _______ _____ _____    ______ ____
ROOT
ATOM      1  O   UNL     1      32.053 -23.170 -16.080  0.00  0.00    -0.272 OA
ATOM      2  O   UNL     1      34.440 -24.275 -12.163  0.00  0.00    -0.272 OA
ATOM      3  N   UNL     1      34.356 -23.537 -15.595  0.00  0.00    -0.179 N 
ATOM      4  N   UNL     1      35.054 -23.975 -14.444  0.00  0.00    -0.179 N 
ATOM      5  C   UNL     1      32.821 -23.675 -13.849  0.00  0.00    +0.158 C 
ATOM      6  C   UNL     1      32.979 -23.457 -15.336  0.00  0.00    +0.254 C 
ATOM      7  C   UNL     1      34.204 -23.986 -13.327  0.00  0.00    +0.254 C 
ENDROOT
BRANCH   3   8
ATOM      8  C   UNL     1      34.967 -22.875 -16.703  0.00  0.00    +0.073 C 
ATOM      9  C   UNL     1      36.240 -22.314 -16.569  0.00  0.00    +0.017 C 
ATOM     10  C   UNL     1      34.296 -22.786 -17.924  0.00  0.00    +0.017 C 
ATOM     11  C   UNL     1      36.837 -21.668 -17.652  0.00  0.00    +0.001 C 
ATOM     12  C   UNL     1      34.893 -22.140 -19.006  0.00  0.00    +0.001 C 
ATOM     13  C   UNL     1      36.163 -21.581 -18.870  0.00  0.00    +0.000 C 
ENDBRANCH   3   8
BRANCH   4  14
ATOM     14  C   UNL     1      36.277 -24.710 -14.477  0.00  0.00    +0.073 C 
ATOM     15  C   UNL     1      37.440 -24.164 -13.928  0.00  0.00    +0.017 C 
ATOM     16  C   UNL     1      36.317 -25.981 -15.058  0.00  0.00    +0.017 C 
ATOM     17  C   UNL     1      38.635 -24.883 -13.960  0.00  0.00    +0.001 C 
ATOM     18  C   UNL     1      37.512 -26.699 -15.090  0.00  0.00    +0.001 C 
ATOM     19  C   UNL     1      38.671 -26.150 -14.541  0.00  0.00    +0.000 C 
ENDBRANCH   4  14
BRANCH   5  20
ATOM     20  C   UNL     1      31.851 -24.807 -13.562  0.00  0.00    +0.033 C 
BRANCH  20  21
ATOM     21  C   UNL     1      30.408 -24.321 -13.583  0.00  0.00    +0.097 C 
BRANCH  21  22
ATOM     22  S   UNL     1      29.375 -25.410 -14.611  0.00  0.00    +0.065 S 
ATOM     23  O   UNL     1      30.295 -26.131 -15.546  0.00  0.00    -0.251 OA
BRANCH  22  24
ATOM     24  C   UNL     1      28.582 -24.108 -15.576  0.00  0.00    +0.056 C 
ATOM     25  C   UNL     1      28.349 -24.305 -16.932  0.00  0.00    +0.009 C 
ATOM     26  C   UNL     1      28.211 -22.921 -14.956  0.00  0.00    +0.009 C 
ATOM     27  C   UNL     1      27.736 -23.299 -17.680  0.00  0.00    +0.001 C 
ATOM     28  C   UNL     1      27.598 -21.916 -15.703  0.00  0.00    +0.001 C 
ATOM     29  C   UNL     1      27.360 -22.104 -17.065  0.00  0.00    +0.000 C 
ENDBRANCH  22  24
ENDBRANCH  21  22
ENDBRANCH  20  21
ENDBRANCH   5  20
TORSDOF 6
ENDMDL
MODEL 7
REMARK VINA RESULT:     -10.6      3.933      8.632
REMARK  Name = 5342
REMARK  6 active torsions:
REMARK  status: ('A' for Active; 'I' for Inactive)
REMARK    1  A    between atoms: N_3  and  C_8
REMARK    2  A    between atoms: N_4  and  C_14
REMARK    3  A    between atoms: C_5  and  C_20
REMARK    4  A    between atoms: C_20  and  C_21
REMARK    5  A    between atoms: C_21  and  S_22
REMARK    6  A    between atoms: S_22  and  C_24
REMARK                            x       y       z     vdW  Elec       q    Type
REMARK                         _______ _______ _______ _____ _____    ______ ____
ROOT
ATOM      1  O   UNL     1      32.668 -14.176 -20.530  0.00  0.00    -0.272 OA
ATOM      2  O   UNL     1      31.329 -10.487 -23.150  0.00  0.00    -0.272 OA
ATOM      3  N   UNL     1      33.246 -13.395 -22.705  0.00  0.00    -0.179 N 
ATOM      4  N   UNL     1      32.924 -12.230 -23.442  0.00  0.00    -0.179 N 
ATOM      5  C   UNL     1      31.650 -12.211 -21.492  0.00  0.00    +0.158 C 
ATOM      6  C   UNL     1      32.604 -13.382 -21.457  0.00  0.00    +0.254 C 
ATOM      7  C   UNL     1      31.892 -11.518 -22.811  0.00  0.00    +0.254 C 
ENDROOT
BRANCH   3   8
ATOM      8  C   UNL     1      33.781 -14.588 -23.279  0.00  0.00    +0.073 C 
ATOM      9  C   UNL     1      34.720 -15.347 -22.573  0.00  0.00    +0.017 C 
ATOM     10  C   UNL     1      33.368 -15.002 -24.547  0.00  0.00    +0.017 C 
ATOM     11  C   UNL     1      35.242 -16.511 -23.135  0.00  0.00    +0.001 C 
ATOM     12  C   UNL     1      33.891 -16.168 -25.107  0.00  0.00    +0.001 C 
ATOM     13  C   UNL     1      34.827 -16.922 -24.401  0.00  0.00    +0.000 C 
ENDBRANCH   3   8
BRANCH   4  14
ATOM     14  C   UNL     1      33.785 -11.629 -24.409  0.00  0.00    +0.073 C 
ATOM     15  C   UNL     1      33.811 -12.109 -25.721  0.00  0.00    +0.017 C 
ATOM     16  C   UNL     1      34.603 -10.555 -24.050  0.00  0.00    +0.017 C 
ATOM     17  C   UNL     1      34.651 -11.521 -26.666  0.00  0.00    +0.001 C 
ATOM     18  C   UNL     1      35.444  -9.967 -24.995  0.00  0.00    +0.001 C 
ATOM     19  C   UNL     1      35.467 -10.450 -26.304  0.00  0.00    +0.000 C 
ENDBRANCH   4  14
BRANCH   5  20
ATOM     20  C   UNL     1      31.889 -11.276 -20.320  0.00  0.00    +0.033 C 
BRANCH  20  21
ATOM     21  C   UNL     1      31.359  -9.878 -20.607  0.00  0.00    +0.097 C 
BRANCH  21  22
ATOM     22  S   UNL     1      32.584  -8.615 -20.144  0.00  0.00    +0.065 S 
ATOM     23  O   UNL     1      31.927  -7.713 -19.147  0.00  0.00    -0.251 OA
BRANCH  22  24
ATOM     24  C   UNL     1      32.584  -7.727 -21.714  0.00  0.00    +0.056 C 
ATOM     25  C   UNL     1      33.754  -7.648 -22.459  0.00  0.00    +0.009 C 
ATOM     26  C   UNL     1      31.413  -7.130 -22.166  0.00  0.00    +0.009 C 
ATOM     27  C   UNL     1      33.755  -6.961 -23.673  0.00  0.00    +0.001 C 
ATOM     28  C   UNL     1      31.413  -6.443 -23.380  0.00  0.00    +0.001 C 
ATOM     29  C   UNL     1      32.584  -6.359 -24.134  0.00  0.00    +0.000 C 
ENDBRANCH  22  24
ENDBRANCH  21  22
ENDBRANCH  20  21
ENDBRANCH   5  20
TORSDOF 6
ENDMDL
MODEL 8
REMARK VINA RESULT:     -10.5      3.335      6.086
REMARK  Name = 5342
REMARK  6 active torsions:
REMARK  status: ('A' for Active; 'I' for Inactive)
REMARK    1  A    between atoms: N_3  and  C_8
REMARK    2  A    between atoms: N_4  and  C_14
REMARK    3  A    between atoms: C_5  and  C_20
REMARK    4  A    between atoms: C_20  and  C_21
REMARK    5  A    between atoms: C_21  and  S_22
REMARK    6  A    between atoms: S_22  and  C_24
REMARK                            x       y       z     vdW  Elec       q    Type
REMARK                         _______ _______ _______ _____ _____    ______ ____
ROOT
ATOM      1  O   UNL     1      32.222 -13.157 -22.509  0.00  0.00    -0.272 OA
ATOM      2  O   UNL     1      34.895 -10.365 -25.215  0.00  0.00    -0.272 OA
ATOM      3  N   UNL     1      32.551 -10.801 -22.637  0.00  0.00    -0.179 N 
ATOM      4  N   UNL     1      33.270  -9.962 -23.522  0.00  0.00    -0.179 N 
ATOM      5  C   UNL     1      33.778 -12.170 -24.066  0.00  0.00    +0.158 C 
ATOM      6  C   UNL     1      32.716 -12.149 -22.992  0.00  0.00    +0.254 C 
ATOM      7  C   UNL     1      34.110 -10.724 -24.350  0.00  0.00    +0.254 C 
ENDROOT
BRANCH   3   8
ATOM      8  C   UNL     1      32.085 -10.400 -21.348  0.00  0.00    +0.073 C 
ATOM      9  C   UNL     1      31.308 -11.272 -20.580  0.00  0.00    +0.017 C 
ATOM     10  C   UNL     1      32.406  -9.136 -20.849  0.00  0.00    +0.017 C 
ATOM     11  C   UNL     1      30.854 -10.879 -19.322  0.00  0.00    +0.001 C 
ATOM     12  C   UNL     1      31.951  -8.744 -19.590  0.00  0.00    +0.001 C 
ATOM     13  C   UNL     1      31.175  -9.616 -18.826  0.00  0.00    +0.000 C 
ENDBRANCH   3   8
BRANCH   4  14
ATOM     14  C   UNL     1      32.893  -8.623 -23.843  0.00  0.00    +0.073 C 
ATOM     15  C   UNL     1      31.547  -8.299 -24.030  0.00  0.00    +0.017 C 
ATOM     16  C   UNL     1      33.868  -7.630 -23.970  0.00  0.00    +0.017 C 
ATOM     17  C   UNL     1      31.178  -6.991 -24.343  0.00  0.00    +0.001 C 
ATOM     18  C   UNL     1      33.499  -6.322 -24.283  0.00  0.00    +0.001 C 
ATOM     19  C   UNL     1      32.153  -6.002 -24.470  0.00  0.00    +0.000 C 
ENDBRANCH   4  14
BRANCH   5  20
ATOM     20  C   UNL     1      33.282 -12.881 -25.312  0.00  0.00    +0.033 C 
BRANCH  20  21
ATOM     21  C   UNL     1      32.791 -14.286 -24.992  0.00  0.00    +0.097 C 
BRANCH  21  22
ATOM     22  S   UNL     1      33.547 -15.505 -26.112  0.00  0.00    +0.065 S 
ATOM     23  O   UNL     1      32.428 -16.286 -26.727  0.00  0.00    -0.251 OA
BRANCH  22  24
ATOM     24  C   UNL     1      34.263 -16.558 -24.834  0.00  0.00    +0.056 C 
ATOM     25  C   UNL     1      34.425 -17.917 -25.076  0.00  0.00    +0.009 C 
ATOM     26  C   UNL     1      34.647 -16.001 -23.620  0.00  0.00    +0.009 C 
ATOM     27  C   UNL     1      34.978 -18.732 -24.088  0.00  0.00    +0.001 C 
ATOM     28  C   UNL     1      35.201 -16.817 -22.633  0.00  0.00    +0.001 C 
ATOM     29  C   UNL     1      35.367 -18.182 -22.867  0.00  0.00    +0.000 C 
ENDBRANCH  22  24
ENDBRANCH  21  22
ENDBRANCH  20  21
ENDBRANCH   5  20
TORSDOF 6
ENDMDL
MODEL 9
REMARK VINA RESULT:      -9.9      4.148      9.103
REMARK  Name = 5342
REMARK  6 active torsions:
REMARK  status: ('A' for Active; 'I' for Inactive)
REMARK    1  A    between atoms: N_3  and  C_8
REMARK    2  A    between atoms: N_4  and  C_14
REMARK    3  A    between atoms: C_5  and  C_20
REMARK    4  A    between atoms: C_20  and  C_21
REMARK    5  A    between atoms: C_21  and  S_22
REMARK    6  A    between atoms: S_22  and  C_24
REMARK                            x       y       z     vdW  Elec       q    Type
REMARK                         _______ _______ _______ _____ _____    ______ ____
ROOT
ATOM      1  O   UNL     1      32.226 -13.233 -20.156  0.00  0.00    -0.272 OA
ATOM      2  O   UNL     1      31.193  -9.818 -23.243  0.00  0.00    -0.272 OA
ATOM      3  N   UNL     1      32.972 -12.712 -22.358  0.00  0.00    -0.179 N 
ATOM      4  N   UNL     1      32.741 -11.626 -23.237  0.00  0.00    -0.179 N 
ATOM      5  C   UNL     1      31.343 -11.357 -21.391  0.00  0.00    +0.158 C 
ATOM      6  C   UNL     1      32.251 -12.544 -21.166  0.00  0.00    +0.254 C 
ATOM      7  C   UNL     1      31.695 -10.820 -22.758  0.00  0.00    +0.254 C 
ENDROOT
BRANCH   3   8
ATOM      8  C   UNL     1      33.501 -13.976 -22.763  0.00  0.00    +0.073 C 
ATOM      9  C   UNL     1      34.350 -14.686 -21.910  0.00  0.00    +0.017 C 
ATOM     10  C   UNL     1      33.169 -14.507 -24.011  0.00  0.00    +0.017 C 
ATOM     11  C   UNL     1      34.865 -15.920 -22.306  0.00  0.00    +0.001 C 
ATOM     12  C   UNL     1      33.686 -15.741 -24.406  0.00  0.00    +0.001 C 
ATOM     13  C   UNL     1      34.533 -16.448 -23.553  0.00  0.00    +0.000 C 
ENDBRANCH   3   8
BRANCH   4  14
ATOM     14  C   UNL     1      33.683 -11.159 -24.201  0.00  0.00    +0.073 C 
ATOM     15  C   UNL     1      34.483 -10.048 -23.921  0.00  0.00    +0.017 C 
ATOM     16  C   UNL     1      33.813 -11.813 -25.430  0.00  0.00    +0.017 C 
ATOM     17  C   UNL     1      35.404  -9.592 -24.864  0.00  0.00    +0.001 C 
ATOM     18  C   UNL     1      34.734 -11.357 -26.372  0.00  0.00    +0.001 C 
ATOM     19  C   UNL     1      35.530 -10.246 -26.089  0.00  0.00    +0.000 C 
ENDBRANCH   4  14
BRANCH   5  20
ATOM     20  C   UNL     1      31.539 -10.307 -20.313  0.00  0.00    +0.033 C 
BRANCH  20  21
ATOM     21  C   UNL     1      32.712  -9.391 -20.636  0.00  0.00    +0.097 C 
BRANCH  21  22
ATOM     22  S   UNL     1      32.474  -7.749 -19.889  0.00  0.00    +0.065 S 
ATOM     23  O   UNL     1      31.173  -7.790 -19.150  0.00  0.00    -0.251 OA
BRANCH  22  24
ATOM     24  C   UNL     1      32.161  -6.855 -21.424  0.00  0.00    +0.056 C 
ATOM     25  C   UNL     1      31.138  -5.916 -21.476  0.00  0.00    +0.009 C 
ATOM     26  C   UNL     1      32.946  -7.113 -22.542  0.00  0.00    +0.009 C 
ATOM     27  C   UNL     1      30.895  -5.225 -22.663  0.00  0.00    +0.001 C 
ATOM     28  C   UNL     1      32.704  -6.421 -23.729  0.00  0.00    +0.001 C 
ATOM     29  C   UNL     1      31.679  -5.477 -23.789  0.00  0.00    +0.000 C 
ENDBRANCH  22  24
ENDBRANCH  21  22
ENDBRANCH  20  21
ENDBRANCH   5  20
TORSDOF 6
ENDMDL
