MODEL 1
REMARK VINA RESULT:      -9.6      0.000      0.000
REMARK  Name = 6918653
REMARK  9 active torsions:
REMARK  status: ('A' for Active; 'I' for Inactive)
REMARK    1  A    between atoms: C_2  and  C_10
REMARK    2  A    between atoms: C_4  and  O_18
REMARK    3  A    between atoms: C_7  and  O_20
REMARK    4  A    between atoms: C_11  and  C_13
REMARK    5  A    between atoms: C_13  and  C_14
REMARK    6  A    between atoms: O_20  and  C_23
REMARK    7  A    between atoms: N_22  and  C_25
REMARK    8  A    between atoms: C_25  and  C_28
REMARK    9  A    between atoms: C_25  and  C_31
REMARK                            x       y       z     vdW  Elec       q    Type
REMARK                         _______ _______ _______ _____ _____    ______ ____
ROOT
ATOM      1  O   UNL     1      32.890 -16.212 -20.997  0.00  0.00    -0.353 OA
ATOM      2  C   UNL     1      34.422 -15.456 -22.817  0.00  0.00    +0.085 C 
ATOM      3  C   UNL     1      33.767 -15.176 -21.467  0.00  0.00    +0.125 C 
ATOM      4  C   UNL     1      33.460 -15.016 -23.953  0.00  0.00    +0.160 C 
ATOM      5  C   UNL     1      34.080 -15.987 -20.226  0.00  0.00    +0.169 C 
ATOM      6  C   UNL     1      33.220 -13.786 -21.272  0.00  0.00    +0.034 C 
ATOM      7  C   UNL     1      32.956 -13.578 -23.771  0.00  0.00    +0.198 C 
ATOM      8  C   UNL     1      32.279 -13.402 -22.413  0.00  0.00    +0.049 C 
ENDROOT
BRANCH   2  10
ATOM      9  O   UNL     1      36.271 -17.056 -23.047  0.00  0.00    -0.356 OA
ATOM     10  C   UNL     1      34.858 -16.893 -23.018  0.00  0.00    +0.122 C 
ATOM     11  C   UNL     1      35.568 -17.635 -21.941  0.00  0.00    +0.144 C 
ATOM     12  C   UNL     1      34.121 -17.588 -24.083  0.00  0.00    +0.032 C 
BRANCH  11  13
ATOM     13  C   UNL     1      35.625 -19.115 -21.907  0.00  0.00    +0.057 C 
BRANCH  13  14
ATOM     14  C   UNL     1      34.507 -19.778 -21.138  0.00  0.00    -0.032 C 
ATOM     15  C   UNL     1      34.610 -20.694 -20.158  0.00  0.00    -0.048 C 
ATOM     16  C   UNL     1      33.451 -21.316 -19.432  0.00  0.00    +0.026 C 
ATOM     17  C   UNL     1      35.963 -21.167 -19.694  0.00  0.00    +0.026 C 
ENDBRANCH  13  14
ENDBRANCH  11  13
ENDBRANCH   2  10
BRANCH   4  18
ATOM     18  O   UNL     1      34.115 -15.075 -25.221  0.00  0.00    -0.350 OA
ATOM     19  C   UNL     1      33.187 -14.929 -26.281  0.00  0.00    +0.174 C 
ENDBRANCH   4  18
BRANCH   7  20
ATOM     20  O   UNL     1      34.058 -12.673 -23.870  0.00  0.00    -0.436 OA
BRANCH  20  23
ATOM     21  O   UNL     1      33.864 -11.326 -25.721  0.00  0.00    -0.226 OA
ATOM     22  N   UNL     1      33.489 -10.514 -23.580  0.00  0.00    -0.264 N 
ATOM     23  C   UNL     1      33.808 -11.485 -24.505  0.00  0.00    +0.402 C 
ATOM     24  H   UNL     1      33.477 -10.766 -22.628  0.00  0.00    +0.153 HD
BRANCH  22  25
ATOM     25  C   UNL     1      33.171  -9.148 -23.928  0.00  0.00    +0.151 C 
BRANCH  25  28
ATOM     26  O   UNL     1      31.067  -7.928 -23.910  0.00  0.00    -0.274 OA
ATOM     27  N   UNL     1      31.266  -9.787 -22.578  0.00  0.00    -0.327 N 
ATOM     28  C   UNL     1      31.732  -8.876 -23.501  0.00  0.00    +0.237 C 
ATOM     29  H   UNL     1      30.348  -9.709 -22.230  0.00  0.00    +0.145 HD
ATOM     30  H   UNL     1      31.850 -10.515 -22.265  0.00  0.00    +0.145 HD
ENDBRANCH  25  28
BRANCH  25  31
ATOM     31  C   UNL     1      34.160  -8.125 -23.332  0.00  0.00    +0.027 C 
ATOM     32  C   UNL     1      33.648  -7.469 -22.044  0.00  0.00    +0.002 C 
ATOM     33  C   UNL     1      34.518  -7.044 -24.358  0.00  0.00    +0.002 C 
ENDBRANCH  25  31
ENDBRANCH  22  25
ENDBRANCH  20  23
ENDBRANCH   7  20
TORSDOF 9
ENDMDL
MODEL 2
REMARK VINA RESULT:      -9.4      1.560      1.902
REMARK  Name = 6918653
REMARK  9 active torsions:
REMARK  status: ('A' for Active; 'I' for Inactive)
REMARK    1  A    between atoms: C_2  and  C_10
REMARK    2  A    between atoms: C_4  and  O_18
REMARK    3  A    between atoms: C_7  and  O_20
REMARK    4  A    between atoms: C_11  and  C_13
REMARK    5  A    between atoms: C_13  and  C_14
REMARK    6  A    between atoms: O_20  and  C_23
REMARK    7  A    between atoms: N_22  and  C_25
REMARK    8  A    between atoms: C_25  and  C_28
REMARK    9  A    between atoms: C_25  and  C_31
REMARK                            x       y       z     vdW  Elec       q    Type
REMARK                         _______ _______ _______ _____ _____    ______ ____
ROOT
ATOM      1  O   UNL     1      32.024 -15.285 -21.612  0.00  0.00    -0.353 OA
ATOM      2  C   UNL     1      33.901 -14.202 -22.852  0.00  0.00    +0.085 C 
ATOM      3  C   UNL     1      33.009 -14.238 -21.614  0.00  0.00    +0.125 C 
ATOM      4  C   UNL     1      33.191 -13.395 -23.971  0.00  0.00    +0.160 C 
ATOM      5  C   UNL     1      33.051 -15.375 -20.613  0.00  0.00    +0.169 C 
ATOM      6  C   UNL     1      32.481 -12.910 -21.139  0.00  0.00    +0.034 C 
ATOM      7  C   UNL     1      32.709 -12.021 -23.487  0.00  0.00    +0.198 C 
ATOM      8  C   UNL     1      31.790 -12.157 -22.275  0.00  0.00    +0.049 C 
ENDROOT
BRANCH   2  10
ATOM      9  O   UNL     1      35.731 -15.737 -23.424  0.00  0.00    -0.356 OA
ATOM     10  C   UNL     1      34.320 -15.565 -23.365  0.00  0.00    +0.122 C 
ATOM     11  C   UNL     1      35.013 -16.537 -22.477  0.00  0.00    +0.144 C 
ATOM     12  C   UNL     1      33.582 -15.996 -24.561  0.00  0.00    +0.032 C 
BRANCH  11  13
ATOM     13  C   UNL     1      35.051 -17.989 -22.772  0.00  0.00    +0.057 C 
BRANCH  13  14
ATOM     14  C   UNL     1      34.118 -18.832 -21.936  0.00  0.00    -0.032 C 
ATOM     15  C   UNL     1      34.444 -19.722 -20.980  0.00  0.00    -0.048 C 
ATOM     16  C   UNL     1      33.460 -20.532 -20.183  0.00  0.00    +0.026 C 
ATOM     17  C   UNL     1      35.886 -19.963 -20.621  0.00  0.00    +0.026 C 
ENDBRANCH  13  14
ENDBRANCH  11  13
ENDBRANCH   2  10
BRANCH   4  18
ATOM     18  O   UNL     1      34.074 -13.169 -25.070  0.00  0.00    -0.350 OA
ATOM     19  C   UNL     1      33.360 -12.756 -26.222  0.00  0.00    +0.174 C 
ENDBRANCH   4  18
BRANCH   7  20
ATOM     20  O   UNL     1      33.838 -11.219 -23.136  0.00  0.00    -0.436 OA
BRANCH  20  23
ATOM     21  O   UNL     1      34.345  -9.445 -24.505  0.00  0.00    -0.226 OA
ATOM     22  N   UNL     1      33.016  -9.187 -22.621  0.00  0.00    -0.264 N 
ATOM     23  C   UNL     1      33.785  -9.902 -23.514  0.00  0.00    +0.402 C 
ATOM     24  H   UNL     1      32.617  -9.670 -21.861  0.00  0.00    +0.153 HD
BRANCH  22  25
ATOM     25  C   UNL     1      32.763  -7.769 -22.737  0.00  0.00    +0.151 C 
BRANCH  25  28
ATOM     26  O   UNL     1      30.546  -8.252 -23.611  0.00  0.00    -0.274 OA
ATOM     27  N   UNL     1      31.781  -6.597 -24.614  0.00  0.00    -0.327 N 
ATOM     28  C   UNL     1      31.572  -7.579 -23.670  0.00  0.00    +0.237 C 
ATOM     29  H   UNL     1      31.078  -6.388 -25.271  0.00  0.00    +0.145 HD
ATOM     30  H   UNL     1      32.633  -6.104 -24.632  0.00  0.00    +0.145 HD
ENDBRANCH  25  28
BRANCH  25  31
ATOM     31  C   UNL     1      32.554  -7.077 -21.374  0.00  0.00    +0.027 C 
ATOM     32  C   UNL     1      32.213  -8.057 -20.246  0.00  0.00    +0.002 C 
ATOM     33  C   UNL     1      31.472  -5.996 -21.466  0.00  0.00    +0.002 C 
ENDBRANCH  25  31
ENDBRANCH  22  25
ENDBRANCH  20  23
ENDBRANCH   7  20
TORSDOF 9
ENDMDL
MODEL 3
REMARK VINA RESULT:      -9.0      1.774      3.447
REMARK  Name = 6918653
REMARK  9 active torsions:
REMARK  status: ('A' for Active; 'I' for Inactive)
REMARK    1  A    between atoms: C_2  and  C_10
REMARK    2  A    between atoms: C_4  and  O_18
REMARK    3  A    between atoms: C_7  and  O_20
REMARK    4  A    between atoms: C_11  and  C_13
REMARK    5  A    between atoms: C_13  and  C_14
REMARK    6  A    between atoms: O_20  and  C_23
REMARK    7  A    between atoms: N_22  and  C_25
REMARK    8  A    between atoms: C_25  and  C_28
REMARK    9  A    between atoms: C_25  and  C_31
REMARK                            x       y       z     vdW  Elec       q    Type
REMARK                         _______ _______ _______ _____ _____    ______ ____
ROOT
ATOM      1  O   UNL     1      35.954 -18.776 -24.002  0.00  0.00    -0.353 OA
ATOM      2  C   UNL     1      34.298 -17.739 -22.449  0.00  0.00    +0.085 C 
ATOM      3  C   UNL     1      34.674 -18.135 -23.874  0.00  0.00    +0.125 C 
ATOM      4  C   UNL     1      34.911 -16.351 -22.125  0.00  0.00    +0.160 C 
ATOM      5  C   UNL     1      34.805 -19.580 -24.309  0.00  0.00    +0.169 C 
ATOM      6  C   UNL     1      34.403 -17.107 -24.941  0.00  0.00    +0.034 C 
ATOM      7  C   UNL     1      34.578 -15.299 -23.192  0.00  0.00    +0.198 C 
ATOM      8  C   UNL     1      35.028 -15.761 -24.577  0.00  0.00    +0.049 C 
ENDROOT
BRANCH   2  10
ATOM      9  O   UNL     1      33.781 -18.802 -20.295  0.00  0.00    -0.356 OA
ATOM     10  C   UNL     1      34.688 -18.751 -21.390  0.00  0.00    +0.122 C 
ATOM     11  C   UNL     1      33.853 -19.957 -21.141  0.00  0.00    +0.144 C 
ATOM     12  C   UNL     1      36.112 -18.704 -21.029  0.00  0.00    +0.032 C 
BRANCH  11  13
ATOM     13  C   UNL     1      34.387 -21.161 -20.462  0.00  0.00    +0.057 C 
BRANCH  13  14
ATOM     14  C   UNL     1      33.441 -21.809 -19.479  0.00  0.00    -0.032 C 
ATOM     15  C   UNL     1      33.745 -22.395 -18.306  0.00  0.00    -0.048 C 
ATOM     16  C   UNL     1      32.749 -23.024 -17.372  0.00  0.00    +0.026 C 
ATOM     17  C   UNL     1      35.171 -22.446 -17.825  0.00  0.00    +0.026 C 
ENDBRANCH  13  14
ENDBRANCH  11  13
ENDBRANCH   2  10
BRANCH   4  18
ATOM     18  O   UNL     1      34.416 -15.857 -20.879  0.00  0.00    -0.350 OA
ATOM     19  C   UNL     1      34.860 -14.533 -20.643  0.00  0.00    +0.174 C 
ENDBRANCH   4  18
BRANCH   7  20
ATOM     20  O   UNL     1      33.168 -15.068 -23.207  0.00  0.00    -0.436 OA
BRANCH  20  23
ATOM     21  O   UNL     1      32.304 -13.849 -24.951  0.00  0.00    -0.226 OA
ATOM     22  N   UNL     1      32.912 -12.845 -22.950  0.00  0.00    -0.264 N 
ATOM     23  C   UNL     1      32.752 -13.910 -23.811  0.00  0.00    +0.402 C 
ATOM     24  H   UNL     1      33.284 -13.024 -22.056  0.00  0.00    +0.153 HD
BRANCH  22  25
ATOM     25  C   UNL     1      32.566 -11.483 -23.285  0.00  0.00    +0.151 C 
BRANCH  25  28
ATOM     26  O   UNL     1      32.176  -9.952 -21.437  0.00  0.00    -0.274 OA
ATOM     27  N   UNL     1      30.598 -11.559 -21.879  0.00  0.00    -0.327 N 
ATOM     28  C   UNL     1      31.782 -10.896 -22.118  0.00  0.00    +0.237 C 
ATOM     29  H   UNL     1      30.008 -11.266 -21.147  0.00  0.00    +0.145 HD
ATOM     30  H   UNL     1      30.340 -12.326 -22.441  0.00  0.00    +0.145 HD
ENDBRANCH  25  28
BRANCH  25  31
ATOM     31  C   UNL     1      33.791 -10.622 -23.660  0.00  0.00    +0.027 C 
ATOM     32  C   UNL     1      33.472  -9.125 -23.744  0.00  0.00    +0.002 C 
ATOM     33  C   UNL     1      34.413 -11.095 -24.978  0.00  0.00    +0.002 C 
ENDBRANCH  25  31
ENDBRANCH  22  25
ENDBRANCH  20  23
ENDBRANCH   7  20
TORSDOF 9
ENDMDL
MODEL 4
REMARK VINA RESULT:      -8.5      3.452      6.669
REMARK  Name = 6918653
REMARK  9 active torsions:
REMARK  status: ('A' for Active; 'I' for Inactive)
REMARK    1  A    between atoms: C_2  and  C_10
REMARK    2  A    between atoms: C_4  and  O_18
REMARK    3  A    between atoms: C_7  and  O_20
REMARK    4  A    between atoms: C_11  and  C_13
REMARK    5  A    between atoms: C_13  and  C_14
REMARK    6  A    between atoms: O_20  and  C_23
REMARK    7  A    between atoms: N_22  and  C_25
REMARK    8  A    between atoms: C_25  and  C_28
REMARK    9  A    between atoms: C_25  and  C_31
REMARK                            x       y       z     vdW  Elec       q    Type
REMARK                         _______ _______ _______ _____ _____    ______ ____
ROOT
ATOM      1  O   UNL     1      33.943 -22.593 -19.917  0.00  0.00    -0.353 OA
ATOM      2  C   UNL     1      35.114 -20.445 -19.419  0.00  0.00    +0.085 C 
ATOM      3  C   UNL     1      33.804 -21.226 -19.497  0.00  0.00    +0.125 C 
ATOM      4  C   UNL     1      35.452 -19.873 -20.821  0.00  0.00    +0.160 C 
ATOM      5  C   UNL     1      33.490 -22.383 -18.571  0.00  0.00    +0.169 C 
ATOM      6  C   UNL     1      32.644 -20.510 -20.137  0.00  0.00    +0.034 C 
ATOM      7  C   UNL     1      34.279 -19.098 -21.437  0.00  0.00    +0.198 C 
ATOM      8  C   UNL     1      33.027 -19.969 -21.514  0.00  0.00    +0.049 C 
ENDROOT
BRANCH   2  10
ATOM      9  O   UNL     1      37.146 -20.467 -18.039  0.00  0.00    -0.356 OA
ATOM     10  C   UNL     1      36.286 -21.235 -18.872  0.00  0.00    +0.122 C 
ATOM     11  C   UNL     1      36.402 -21.522 -17.417  0.00  0.00    +0.144 C 
ATOM     12  C   UNL     1      36.961 -22.063 -19.883  0.00  0.00    +0.032 C 
BRANCH  11  13
ATOM     13  C   UNL     1      37.248 -22.620 -16.893  0.00  0.00    +0.057 C 
BRANCH  13  14
ATOM     14  C   UNL     1      37.355 -22.678 -15.388  0.00  0.00    -0.032 C 
ATOM     15  C   UNL     1      36.689 -23.489 -14.545  0.00  0.00    -0.048 C 
ATOM     16  C   UNL     1      36.844 -23.494 -13.050  0.00  0.00    +0.026 C 
ATOM     17  C   UNL     1      35.708 -24.502 -15.074  0.00  0.00    +0.026 C 
ENDBRANCH  13  14
ENDBRANCH  11  13
ENDBRANCH   2  10
BRANCH   4  18
ATOM     18  O   UNL     1      36.558 -18.973 -20.747  0.00  0.00    -0.350 OA
ATOM     19  C   UNL     1      37.119 -18.747 -22.028  0.00  0.00    +0.174 C 
ENDBRANCH   4  18
BRANCH   7  20
ATOM     20  O   UNL     1      34.003 -17.943 -20.641  0.00  0.00    -0.436 OA
BRANCH  20  23
ATOM     21  O   UNL     1      35.136 -15.945 -20.588  0.00  0.00    -0.226 OA
ATOM     22  N   UNL     1      33.852 -16.568 -22.418  0.00  0.00    -0.264 N 
ATOM     23  C   UNL     1      34.400 -16.740 -21.164  0.00  0.00    +0.402 C 
ATOM     24  H   UNL     1      33.275 -17.282 -22.774  0.00  0.00    +0.153 HD
BRANCH  22  25
ATOM     25  C   UNL     1      34.077 -15.400 -23.238  0.00  0.00    +0.151 C 
BRANCH  25  28
ATOM     26  O   UNL     1      33.501 -15.481 -25.599  0.00  0.00    -0.274 OA
ATOM     27  N   UNL     1      35.236 -16.784 -24.851  0.00  0.00    -0.327 N 
ATOM     28  C   UNL     1      34.226 -15.862 -24.684  0.00  0.00    +0.237 C 
ATOM     29  H   UNL     1      35.423 -17.153 -25.744  0.00  0.00    +0.145 HD
ATOM     30  H   UNL     1      35.772 -17.074 -24.077  0.00  0.00    +0.145 HD
ENDBRANCH  25  28
BRANCH  25  31
ATOM     31  C   UNL     1      32.981 -14.326 -23.077  0.00  0.00    +0.027 C 
ATOM     32  C   UNL     1      33.468 -12.912 -23.414  0.00  0.00    +0.002 C 
ATOM     33  C   UNL     1      32.393 -14.349 -21.662  0.00  0.00    +0.002 C 
ENDBRANCH  25  31
ENDBRANCH  22  25
ENDBRANCH  20  23
ENDBRANCH   7  20
TORSDOF 9
ENDMDL
MODEL 5
REMARK VINA RESULT:      -8.2      2.518      9.209
REMARK  Name = 6918653
REMARK  9 active torsions:
REMARK  status: ('A' for Active; 'I' for Inactive)
REMARK    1  A    between atoms: C_2  and  C_10
REMARK    2  A    between atoms: C_4  and  O_18
REMARK    3  A    between atoms: C_7  and  O_20
REMARK    4  A    between atoms: C_11  and  C_13
REMARK    5  A    between atoms: C_13  and  C_14
REMARK    6  A    between atoms: O_20  and  C_23
REMARK    7  A    between atoms: N_22  and  C_25
REMARK    8  A    between atoms: C_25  and  C_28
REMARK    9  A    between atoms: C_25  and  C_31
REMARK                            x       y       z     vdW  Elec       q    Type
REMARK                         _______ _______ _______ _____ _____    ______ ____
ROOT
ATOM      1  O   UNL     1      33.108 -10.858 -25.804  0.00  0.00    -0.353 OA
ATOM      2  C   UNL     1      33.379 -10.983 -23.326  0.00  0.00    +0.085 C 
ATOM      3  C   UNL     1      33.801 -11.475 -24.707  0.00  0.00    +0.125 C 
ATOM      4  C   UNL     1      32.135 -11.782 -22.856  0.00  0.00    +0.160 C 
ATOM      5  C   UNL     1      34.514 -10.587 -25.706  0.00  0.00    +0.169 C 
ATOM      6  C   UNL     1      33.966 -12.965 -24.857  0.00  0.00    +0.034 C 
ATOM      7  C   UNL     1      32.339 -13.300 -22.961  0.00  0.00    +0.198 C 
ATOM      8  C   UNL     1      32.715 -13.705 -24.384  0.00  0.00    +0.049 C 
ENDROOT
BRANCH   2  10
ATOM      9  O   UNL     1      33.604  -8.897 -22.047  0.00  0.00    -0.356 OA
ATOM     10  C   UNL     1      33.115  -9.492 -23.243  0.00  0.00    +0.122 C 
ATOM     11  C   UNL     1      34.235  -8.514 -23.275  0.00  0.00    +0.144 C 
ATOM     12  C   UNL     1      31.745  -9.116 -23.621  0.00  0.00    +0.032 C 
BRANCH  11  13
ATOM     13  C   UNL     1      34.031  -7.091 -23.631  0.00  0.00    +0.057 C 
BRANCH  13  14
ATOM     14  C   UNL     1      34.748  -6.638 -24.881  0.00  0.00    -0.032 C 
ATOM     15  C   UNL     1      34.304  -5.787 -25.824  0.00  0.00    -0.048 C 
ATOM     16  C   UNL     1      35.073  -5.378 -27.049  0.00  0.00    +0.026 C 
ATOM     17  C   UNL     1      32.946  -5.148 -25.697  0.00  0.00    +0.026 C 
ENDBRANCH  13  14
ENDBRANCH  11  13
ENDBRANCH   2  10
BRANCH   4  18
ATOM     18  O   UNL     1      31.833 -11.491 -21.490  0.00  0.00    -0.350 OA
ATOM     19  C   UNL     1      30.434 -11.396 -21.286  0.00  0.00    +0.174 C 
ENDBRANCH   4  18
BRANCH   7  20
ATOM     20  O   UNL     1      33.376 -13.702 -22.064  0.00  0.00    -0.436 OA
BRANCH  20  23
ATOM     21  O   UNL     1      32.795 -15.794 -21.314  0.00  0.00    -0.226 OA
ATOM     22  N   UNL     1      34.722 -15.439 -22.556  0.00  0.00    -0.264 N 
ATOM     23  C   UNL     1      33.561 -15.052 -21.921  0.00  0.00    +0.402 C 
ATOM     24  H   UNL     1      35.254 -14.747 -23.011  0.00  0.00    +0.153 HD
BRANCH  22  25
ATOM     25  C   UNL     1      35.202 -16.801 -22.591  0.00  0.00    +0.151 C 
BRANCH  25  28
ATOM     26  O   UNL     1      35.615 -17.087 -20.212  0.00  0.00    -0.274 OA
ATOM     27  N   UNL     1      34.021 -18.402 -21.212  0.00  0.00    -0.327 N 
ATOM     28  C   UNL     1      34.981 -17.413 -21.213  0.00  0.00    +0.237 C 
ATOM     29  H   UNL     1      33.795 -18.868 -20.375  0.00  0.00    +0.145 HD
ATOM     30  H   UNL     1      33.560 -18.641 -22.048  0.00  0.00    +0.145 HD
ENDBRANCH  25  28
BRANCH  25  31
ATOM     31  C   UNL     1      34.558 -17.641 -23.714  0.00  0.00    +0.027 C 
ATOM     32  C   UNL     1      35.254 -18.989 -23.935  0.00  0.00    +0.002 C 
ATOM     33  C   UNL     1      34.515 -16.858 -25.031  0.00  0.00    +0.002 C 
ENDBRANCH  25  31
ENDBRANCH  22  25
ENDBRANCH  20  23
ENDBRANCH   7  20
TORSDOF 9
ENDMDL
MODEL 6
REMARK VINA RESULT:      -8.2      2.383      9.095
REMARK  Name = 6918653
REMARK  9 active torsions:
REMARK  status: ('A' for Active; 'I' for Inactive)
REMARK    1  A    between atoms: C_2  and  C_10
REMARK    2  A    between atoms: C_4  and  O_18
REMARK    3  A    between atoms: C_7  and  O_20
REMARK    4  A    between atoms: C_11  and  C_13
REMARK    5  A    between atoms: C_13  and  C_14
REMARK    6  A    between atoms: O_20  and  C_23
REMARK    7  A    between atoms: N_22  and  C_25
REMARK    8  A    between atoms: C_25  and  C_28
REMARK    9  A    between atoms: C_25  and  C_31
REMARK                            x       y       z     vdW  Elec       q    Type
REMARK                         _______ _______ _______ _____ _____    ______ ____
ROOT
ATOM      1  O   UNL     1      33.186 -11.443 -26.025  0.00  0.00    -0.353 OA
ATOM      2  C   UNL     1      33.728 -11.471 -23.589  0.00  0.00    +0.085 C 
ATOM      3  C   UNL     1      33.871 -12.123 -24.961  0.00  0.00    +0.125 C 
ATOM      4  C   UNL     1      32.416 -11.964 -22.923  0.00  0.00    +0.160 C 
ATOM      5  C   UNL     1      34.620 -11.464 -26.102  0.00  0.00    +0.169 C 
ATOM      6  C   UNL     1      33.715 -13.621 -25.002  0.00  0.00    +0.034 C 
ATOM      7  C   UNL     1      32.298 -13.495 -22.921  0.00  0.00    +0.198 C 
ATOM      8  C   UNL     1      32.410 -14.055 -24.338  0.00  0.00    +0.049 C 
ENDROOT
BRANCH   2  10
ATOM      9  O   UNL     1      32.556  -9.354 -24.014  0.00  0.00    -0.356 OA
ATOM     10  C   UNL     1      33.778  -9.956 -23.603  0.00  0.00    +0.122 C 
ATOM     11  C   UNL     1      32.961  -9.155 -22.653  0.00  0.00    +0.144 C 
ATOM     12  C   UNL     1      34.991  -9.415 -24.233  0.00  0.00    +0.032 C 
BRANCH  11  13
ATOM     13  C   UNL     1      33.284  -7.746 -22.327  0.00  0.00    +0.057 C 
BRANCH  13  14
ATOM     14  C   UNL     1      32.126  -6.936 -21.794  0.00  0.00    -0.032 C 
ATOM     15  C   UNL     1      31.450  -5.953 -22.418  0.00  0.00    -0.048 C 
ATOM     16  C   UNL     1      30.304  -5.184 -21.827  0.00  0.00    +0.026 C 
ATOM     17  C   UNL     1      31.811  -5.554 -23.825  0.00  0.00    +0.026 C 
ENDBRANCH  13  14
ENDBRANCH  11  13
ENDBRANCH   2  10
BRANCH   4  18
ATOM     18  O   UNL     1      32.347 -11.536 -21.562  0.00  0.00    -0.350 OA
ATOM     19  C   UNL     1      31.017 -11.586 -21.077  0.00  0.00    +0.174 C 
ENDBRANCH   4  18
BRANCH   7  20
ATOM     20  O   UNL     1      33.336 -14.050 -22.110  0.00  0.00    -0.436 OA
BRANCH  20  23
ATOM     21  O   UNL     1      32.495 -15.873 -20.996  0.00  0.00    -0.226 OA
ATOM     22  N   UNL     1      34.100 -16.096 -22.656  0.00  0.00    -0.264 N 
ATOM     23  C   UNL     1      33.241 -15.390 -21.841  0.00  0.00    +0.402 C 
ATOM     24  H   UNL     1      34.650 -15.592 -23.298  0.00  0.00    +0.153 HD
BRANCH  22  25
ATOM     25  C   UNL     1      34.239 -17.534 -22.621  0.00  0.00    +0.151 C 
BRANCH  25  28
ATOM     26  O   UNL     1      34.803 -19.165 -24.334  0.00  0.00    -0.274 OA
ATOM     27  N   UNL     1      35.223 -16.948 -24.753  0.00  0.00    -0.327 N 
ATOM     28  C   UNL     1      34.762 -17.990 -23.978  0.00  0.00    +0.237 C 
ATOM     29  H   UNL     1      35.586 -17.124 -25.651  0.00  0.00    +0.145 HD
ATOM     30  H   UNL     1      35.190 -16.026 -24.409  0.00  0.00    +0.145 HD
ENDBRANCH  25  28
BRANCH  25  31
ATOM     31  C   UNL     1      35.123 -18.029 -21.457  0.00  0.00    +0.027 C 
ATOM     32  C   UNL     1      36.575 -18.292 -21.871  0.00  0.00    +0.002 C 
ATOM     33  C   UNL     1      34.530 -19.288 -20.813  0.00  0.00    +0.002 C 
ENDBRANCH  25  31
ENDBRANCH  22  25
ENDBRANCH  20  23
ENDBRANCH   7  20
TORSDOF 9
ENDMDL
MODEL 7
REMARK VINA RESULT:      -8.0      3.692      9.282
REMARK  Name = 6918653
REMARK  9 active torsions:
REMARK  status: ('A' for Active; 'I' for Inactive)
REMARK    1  A    between atoms: C_2  and  C_10
REMARK    2  A    between atoms: C_4  and  O_18
REMARK    3  A    between atoms: C_7  and  O_20
REMARK    4  A    between atoms: C_11  and  C_13
REMARK    5  A    between atoms: C_13  and  C_14
REMARK    6  A    between atoms: O_20  and  C_23
REMARK    7  A    between atoms: N_22  and  C_25
REMARK    8  A    between atoms: C_25  and  C_28
REMARK    9  A    between atoms: C_25  and  C_31
REMARK                            x       y       z     vdW  Elec       q    Type
REMARK                         _______ _______ _______ _____ _____    ______ ____
ROOT
ATOM      1  O   UNL     1      35.353 -14.783 -21.868  0.00  0.00    -0.353 OA
ATOM      2  C   UNL     1      33.892 -16.375 -23.119  0.00  0.00    +0.085 C 
ATOM      3  C   UNL     1      34.310 -15.768 -21.782  0.00  0.00    +0.125 C 
ATOM      4  C   UNL     1      34.838 -17.556 -23.462  0.00  0.00    +0.160 C 
ATOM      5  C   UNL     1      34.067 -14.313 -21.438  0.00  0.00    +0.169 C 
ATOM      6  C   UNL     1      34.484 -16.735 -20.641  0.00  0.00    +0.034 C 
ATOM      7  C   UNL     1      34.961 -18.563 -22.310  0.00  0.00    +0.198 C 
ATOM      8  C   UNL     1      35.424 -17.875 -21.028  0.00  0.00    +0.049 C 
ENDROOT
BRANCH   2  10
ATOM      9  O   UNL     1      32.513 -14.996 -24.613  0.00  0.00    -0.356 OA
ATOM     10  C   UNL     1      33.836 -15.388 -24.268  0.00  0.00    +0.122 C 
ATOM     11  C   UNL     1      33.370 -13.992 -24.055  0.00  0.00    +0.144 C 
ATOM     12  C   UNL     1      34.701 -15.755 -25.399  0.00  0.00    +0.032 C 
BRANCH  11  13
ATOM     13  C   UNL     1      33.698 -12.897 -24.999  0.00  0.00    +0.057 C 
BRANCH  13  14
ATOM     14  C   UNL     1      33.841 -11.534 -24.366  0.00  0.00    -0.032 C 
ATOM     15  C   UNL     1      34.581 -10.496 -24.801  0.00  0.00    -0.048 C 
ATOM     16  C   UNL     1      34.679  -9.161 -24.119  0.00  0.00    +0.026 C 
ATOM     17  C   UNL     1      35.386 -10.611 -26.068  0.00  0.00    +0.026 C 
ENDBRANCH  13  14
ENDBRANCH  11  13
ENDBRANCH   2  10
BRANCH   4  18
ATOM     18  O   UNL     1      34.359 -18.274 -24.600  0.00  0.00    -0.350 OA
ATOM     19  C   UNL     1      34.939 -19.565 -24.670  0.00  0.00    +0.174 C 
ENDBRANCH   4  18
BRANCH   7  20
ATOM     20  O   UNL     1      33.693 -19.181 -22.083  0.00  0.00    -0.436 OA
BRANCH  20  23
ATOM     21  O   UNL     1      32.520 -19.629 -20.160  0.00  0.00    -0.226 OA
ATOM     22  N   UNL     1      34.622 -20.535 -20.543  0.00  0.00    -0.264 N 
ATOM     23  C   UNL     1      33.518 -19.771 -20.859  0.00  0.00    +0.402 C 
ATOM     24  H   UNL     1      35.363 -20.569 -21.190  0.00  0.00    +0.153 HD
BRANCH  22  25
ATOM     25  C   UNL     1      34.751 -21.288 -19.316  0.00  0.00    +0.151 C 
BRANCH  25  28
ATOM     26  O   UNL     1      34.031 -23.498 -20.032  0.00  0.00    -0.274 OA
ATOM     27  N   UNL     1      32.628 -22.269 -18.693  0.00  0.00    -0.327 N 
ATOM     28  C   UNL     1      33.799 -22.476 -19.391  0.00  0.00    +0.237 C 
ATOM     29  H   UNL     1      31.938 -22.971 -18.672  0.00  0.00    +0.145 HD
ATOM     30  H   UNL     1      32.482 -21.421 -18.216  0.00  0.00    +0.145 HD
ENDBRANCH  25  28
BRANCH  25  31
ATOM     31  C   UNL     1      36.203 -21.720 -19.021  0.00  0.00    +0.027 C 
ATOM     32  C   UNL     1      36.513 -21.809 -17.523  0.00  0.00    +0.002 C 
ATOM     33  C   UNL     1      37.205 -20.783 -19.704  0.00  0.00    +0.002 C 
ENDBRANCH  25  31
ENDBRANCH  22  25
ENDBRANCH  20  23
ENDBRANCH   7  20
TORSDOF 9
ENDMDL
MODEL 8
REMARK VINA RESULT:      -7.9      3.034     10.083
REMARK  Name = 6918653
REMARK  9 active torsions:
REMARK  status: ('A' for Active; 'I' for Inactive)
REMARK    1  A    between atoms: C_2  and  C_10
REMARK    2  A    between atoms: C_4  and  O_18
REMARK    3  A    between atoms: C_7  and  O_20
REMARK    4  A    between atoms: C_11  and  C_13
REMARK    5  A    between atoms: C_13  and  C_14
REMARK    6  A    between atoms: O_20  and  C_23
REMARK    7  A    between atoms: N_22  and  C_25
REMARK    8  A    between atoms: C_25  and  C_28
REMARK    9  A    between atoms: C_25  and  C_31
REMARK                            x       y       z     vdW  Elec       q    Type
REMARK                         _______ _______ _______ _____ _____    ______ ____
ROOT
ATOM      1  O   UNL     1      32.657  -5.857 -21.155  0.00  0.00    -0.353 OA
ATOM      2  C   UNL     1      32.025  -7.553 -22.873  0.00  0.00    +0.085 C 
ATOM      3  C   UNL     1      31.746  -6.906 -21.519  0.00  0.00    +0.125 C 
ATOM      4  C   UNL     1      33.085  -8.673 -22.697  0.00  0.00    +0.160 C 
ATOM      5  C   UNL     1      31.294  -5.467 -21.382  0.00  0.00    +0.169 C 
ATOM      6  C   UNL     1      31.426  -7.849 -20.389  0.00  0.00    +0.034 C 
ATOM      7  C   UNL     1      32.716  -9.658 -21.579  0.00  0.00    +0.198 C 
ATOM      8  C   UNL     1      32.499  -8.929 -20.255  0.00  0.00    +0.049 C 
ENDROOT
BRANCH   2  10
ATOM      9  O   UNL     1      31.639  -6.644 -25.122  0.00  0.00    -0.356 OA
ATOM     10  C   UNL     1      32.453  -6.584 -23.957  0.00  0.00    +0.122 C 
ATOM     11  C   UNL     1      31.584  -5.441 -24.347  0.00  0.00    +0.144 C 
ATOM     12  C   UNL     1      33.902  -6.576 -24.200  0.00  0.00    +0.032 C 
BRANCH  11  13
ATOM     13  C   UNL     1      32.114  -4.251 -25.054  0.00  0.00    +0.057 C 
BRANCH  13  14
ATOM     14  C   UNL     1      31.956  -4.281 -26.555  0.00  0.00    -0.032 C 
ATOM     15  C   UNL     1      32.924  -4.388 -27.485  0.00  0.00    -0.048 C 
ATOM     16  C   UNL     1      32.696  -4.411 -28.970  0.00  0.00    +0.026 C 
ATOM     17  C   UNL     1      34.367  -4.511 -27.073  0.00  0.00    +0.026 C 
ENDBRANCH  13  14
ENDBRANCH  11  13
ENDBRANCH   2  10
BRANCH   4  18
ATOM     18  O   UNL     1      33.223  -9.432 -23.899  0.00  0.00    -0.350 OA
ATOM     19  C   UNL     1      34.548  -9.911 -24.050  0.00  0.00    +0.174 C 
ENDBRANCH   4  18
BRANCH   7  20
ATOM     20  O   UNL     1      31.521 -10.356 -21.936  0.00  0.00    -0.436 OA
BRANCH  20  23
ATOM     21  O   UNL     1      30.819 -12.175 -20.722  0.00  0.00    -0.226 OA
ATOM     22  N   UNL     1      32.307 -12.392 -22.489  0.00  0.00    -0.264 N 
ATOM     23  C   UNL     1      31.487 -11.691 -21.630  0.00  0.00    +0.402 C 
ATOM     24  H   UNL     1      32.793 -11.888 -23.181  0.00  0.00    +0.153 HD
BRANCH  22  25
ATOM     25  C   UNL     1      32.491 -13.825 -22.431  0.00  0.00    +0.151 C 
BRANCH  25  28
ATOM     26  O   UNL     1      33.444 -15.365 -24.054  0.00  0.00    -0.274 OA
ATOM     27  N   UNL     1      34.194 -13.195 -24.032  0.00  0.00    -0.327 N 
ATOM     28  C   UNL     1      33.399 -14.229 -23.587  0.00  0.00    +0.237 C 
ATOM     29  H   UNL     1      34.822 -13.342 -24.777  0.00  0.00    +0.145 HD
ATOM     30  H   UNL     1      34.135 -12.310 -23.606  0.00  0.00    +0.145 HD
ENDBRANCH  25  28
BRANCH  25  31
ATOM     31  C   UNL     1      33.027 -14.311 -21.069  0.00  0.00    +0.027 C 
ATOM     32  C   UNL     1      34.545 -14.527 -21.059  0.00  0.00    +0.002 C 
ATOM     33  C   UNL     1      32.318 -15.596 -20.626  0.00  0.00    +0.002 C 
ENDBRANCH  25  31
ENDBRANCH  22  25
ENDBRANCH  20  23
ENDBRANCH   7  20
TORSDOF 9
ENDMDL
MODEL 9
REMARK VINA RESULT:      -7.9      2.964      8.936
REMARK  Name = 6918653
REMARK  9 active torsions:
REMARK  status: ('A' for Active; 'I' for Inactive)
REMARK    1  A    between atoms: C_2  and  C_10
REMARK    2  A    between atoms: C_4  and  O_18
REMARK    3  A    between atoms: C_7  and  O_20
REMARK    4  A    between atoms: C_11  and  C_13
REMARK    5  A    between atoms: C_13  and  C_14
REMARK    6  A    between atoms: O_20  and  C_23
REMARK    7  A    between atoms: N_22  and  C_25
REMARK    8  A    between atoms: C_25  and  C_28
REMARK    9  A    between atoms: C_25  and  C_31
REMARK                            x       y       z     vdW  Elec       q    Type
REMARK                         _______ _______ _______ _____ _____    ______ ____
ROOT
ATOM      1  O   UNL     1      33.387 -13.359 -21.318  0.00  0.00    -0.353 OA
ATOM      2  C   UNL     1      33.373 -14.906 -23.276  0.00  0.00    +0.085 C 
ATOM      3  C   UNL     1      32.997 -14.647 -21.820  0.00  0.00    +0.125 C 
ATOM      4  C   UNL     1      34.831 -15.435 -23.341  0.00  0.00    +0.160 C 
ATOM      5  C   UNL     1      31.976 -13.604 -21.416  0.00  0.00    +0.169 C 
ATOM      6  C   UNL     1      33.259 -15.776 -20.857  0.00  0.00    +0.034 C 
ATOM      7  C   UNL     1      35.067 -16.622 -22.397  0.00  0.00    +0.198 C 
ATOM      8  C   UNL     1      34.705 -16.258 -20.959  0.00  0.00    +0.049 C 
ENDROOT
BRANCH   2  10
ATOM      9  O   UNL     1      32.613 -12.587 -23.551  0.00  0.00    -0.356 OA
ATOM     10  C   UNL     1      33.201 -13.712 -24.193  0.00  0.00    +0.122 C 
ATOM     11  C   UNL     1      33.977 -12.462 -23.974  0.00  0.00    +0.144 C 
ATOM     12  C   UNL     1      32.636 -14.055 -25.506  0.00  0.00    +0.032 C 
BRANCH  11  13
ATOM     13  C   UNL     1      34.179 -11.459 -25.046  0.00  0.00    +0.057 C 
BRANCH  13  14
ATOM     14  C   UNL     1      34.787 -10.154 -24.591  0.00  0.00    -0.032 C 
ATOM     15  C   UNL     1      34.166  -9.119 -23.994  0.00  0.00    -0.048 C 
ATOM     16  C   UNL     1      34.835  -7.844 -23.565  0.00  0.00    +0.026 C 
ATOM     17  C   UNL     1      32.692  -9.184 -23.692  0.00  0.00    +0.026 C 
ENDBRANCH  13  14
ENDBRANCH  11  13
ENDBRANCH   2  10
BRANCH   4  18
ATOM     18  O   UNL     1      35.149 -15.878 -24.661  0.00  0.00    -0.350 OA
ATOM     19  C   UNL     1      34.165 -16.773 -25.151  0.00  0.00    +0.174 C 
ENDBRANCH   4  18
BRANCH   7  20
ATOM     20  O   UNL     1      34.270 -17.731 -22.819  0.00  0.00    -0.436 OA
BRANCH  20  23
ATOM     21  O   UNL     1      35.266 -19.715 -23.408  0.00  0.00    -0.226 OA
ATOM     22  N   UNL     1      34.664 -19.259 -21.214  0.00  0.00    -0.264 N 
ATOM     23  C   UNL     1      34.780 -18.975 -22.558  0.00  0.00    +0.402 C 
ATOM     24  H   UNL     1      34.254 -18.581 -20.630  0.00  0.00    +0.153 HD
BRANCH  22  25
ATOM     25  C   UNL     1      35.109 -20.496 -20.614  0.00  0.00    +0.151 C 
BRANCH  25  28
ATOM     26  O   UNL     1      36.798 -20.666 -18.873  0.00  0.00    -0.274 OA
ATOM     27  N   UNL     1      37.296 -19.470 -20.768  0.00  0.00    -0.327 N 
ATOM     28  C   UNL     1      36.474 -20.248 -19.982  0.00  0.00    +0.237 C 
ATOM     29  H   UNL     1      38.203 -19.245 -20.460  0.00  0.00    +0.145 HD
ATOM     30  H   UNL     1      36.977 -19.140 -21.639  0.00  0.00    +0.145 HD
ENDBRANCH  25  28
BRANCH  25  31
ATOM     31  C   UNL     1      34.096 -21.081 -19.608  0.00  0.00    +0.027 C 
ATOM     32  C   UNL     1      34.107 -22.613 -19.561  0.00  0.00    +0.002 C 
ATOM     33  C   UNL     1      32.677 -20.581 -19.902  0.00  0.00    +0.002 C 
ENDBRANCH  25  31
ENDBRANCH  22  25
ENDBRANCH  20  23
ENDBRANCH   7  20
TORSDOF 9
ENDMDL
