MODEL 1
REMARK VINA RESULT:     -11.9      0.000      0.000
REMARK  Name = 21302490
REMARK  5 active torsions:
REMARK  status: ('A' for Active; 'I' for Inactive)
REMARK    1  A    between atoms: N_2  and  C_19
REMARK    2  A    between atoms: C_19  and  C_20
REMARK    3  A    between atoms: C_20  and  C_21
REMARK    4  A    between atoms: C_21  and  C_23
REMARK    5  A    between atoms: C_23  and  C_25
REMARK                            x       y       z     vdW  Elec       q    Type
REMARK                         _______ _______ _______ _____ _____    ______ ____
ROOT
ATOM      1  N   UNL     1      33.664 -11.943 -24.144  0.00  0.00    -0.307 N 
ATOM      2  N   UNL     1      33.316 -15.302 -22.352  0.00  0.00    +0.387 N 
ATOM      3  N   UNL     1      34.236  -9.146 -23.972  0.00  0.00    -0.303 N 
ATOM      4  C   UNL     1      32.770 -13.105 -24.225  0.00  0.00    +0.073 C 
ATOM      5  C   UNL     1      32.077 -13.195 -22.826  0.00  0.00    +0.021 C 
ATOM      6  C   UNL     1      33.489 -14.388 -24.626  0.00  0.00    -0.003 C 
ATOM      7  C   UNL     1      32.857 -14.026 -21.794  0.00  0.00    -0.071 C 
ATOM      8  C   UNL     1      32.092 -11.745 -22.434  0.00  0.00    -0.008 C 
ATOM      9  C   UNL     1      33.038 -11.082 -23.221  0.00  0.00    +0.057 C 
ATOM     10  C   UNL     1      34.233 -15.057 -23.474  0.00  0.00    -0.076 C 
ATOM     11  C   UNL     1      34.256 -11.265 -25.280  0.00  0.00    +0.112 C 
ATOM     12  C   UNL     1      33.312  -9.720 -23.108  0.00  0.00    +0.061 C 
ATOM     13  C   UNL     1      35.062 -10.052 -24.785  0.00  0.00    +0.112 C 
ATOM     14  C   UNL     1      31.380 -11.066 -21.469  0.00  0.00    -0.003 C 
ATOM     15  C   UNL     1      32.577  -9.036 -22.130  0.00  0.00    +0.016 C 
ATOM     16  C   UNL     1      31.629  -9.700 -21.322  0.00  0.00    +0.001 C 
ATOM     17  C   UNL     1      34.657  -7.766 -23.816  0.00  0.00    +0.112 C 
ATOM     18  H   UNL     1      32.508 -15.823 -22.693  0.00  0.00    -0.080 HD
ENDROOT
BRANCH   2  19
ATOM     19  C   UNL     1      33.980 -16.098 -21.319  0.00  0.00    -0.077 C 
BRANCH  19  20
ATOM     20  C   UNL     1      35.246 -16.747 -21.883  0.00  0.00    -0.015 C 
BRANCH  20  21
ATOM     21  C   UNL     1      35.650 -18.004 -21.107  0.00  0.00    +0.067 C 
BRANCH  21  23
ATOM     22  O   UNL     1      34.571 -19.431 -22.727  0.00  0.00    -0.291 OA
ATOM     23  C   UNL     1      34.912 -19.256 -21.560  0.00  0.00    +0.173 C 
BRANCH  23  25
ATOM     24  F   UNL     1      33.794 -23.236 -17.753  0.00  0.00    -0.204 F 
ATOM     25  C   UNL     1      34.615 -20.313 -20.550  0.00  0.00    +0.035 C 
ATOM     26  C   UNL     1      35.659 -21.024 -19.958  0.00  0.00    +0.005 C 
ATOM     27  C   UNL     1      33.295 -20.589 -20.197  0.00  0.00    +0.005 C 
ATOM     28  C   UNL     1      35.382 -22.012 -19.013  0.00  0.00    +0.030 C 
ATOM     29  C   UNL     1      33.017 -21.577 -19.253  0.00  0.00    +0.030 C 
ATOM     30  C   UNL     1      34.061 -22.288 -18.661  0.00  0.00    +0.140 C 
ENDBRANCH  23  25
ENDBRANCH  21  23
ENDBRANCH  20  21
ENDBRANCH  19  20
ENDBRANCH   2  19
TORSDOF 5
ENDMDL
MODEL 2
REMARK VINA RESULT:     -11.4      1.259      1.761
REMARK  Name = 21302490
REMARK  5 active torsions:
REMARK  status: ('A' for Active; 'I' for Inactive)
REMARK    1  A    between atoms: N_2  and  C_19
REMARK    2  A    between atoms: C_19  and  C_20
REMARK    3  A    between atoms: C_20  and  C_21
REMARK    4  A    between atoms: C_21  and  C_23
REMARK    5  A    between atoms: C_23  and  C_25
REMARK                            x       y       z     vdW  Elec       q    Type
REMARK                         _______ _______ _______ _____ _____    ______ ____
ROOT
ATOM      1  N   UNL     1      32.837 -11.219 -22.993  0.00  0.00    -0.307 N 
ATOM      2  N   UNL     1      33.674 -14.813 -21.994  0.00  0.00    +0.387 N 
ATOM      3  N   UNL     1      32.864  -8.441 -22.316  0.00  0.00    -0.303 N 
ATOM      4  C   UNL     1      32.206 -12.538 -23.133  0.00  0.00    +0.073 C 
ATOM      5  C   UNL     1      31.959 -13.039 -21.672  0.00  0.00    +0.021 C 
ATOM      6  C   UNL     1      33.027 -13.511 -23.973  0.00  0.00    -0.003 C 
ATOM      7  C   UNL     1      33.143 -13.810 -21.066  0.00  0.00    -0.071 C 
ATOM      8  C   UNL     1      31.792 -11.721 -20.971  0.00  0.00    -0.008 C 
ATOM      9  C   UNL     1      32.332 -10.715 -21.778  0.00  0.00    +0.057 C 
ATOM     10  C   UNL     1      34.178 -14.157 -23.208  0.00  0.00    -0.076 C 
ATOM     11  C   UNL     1      32.945 -10.230 -24.046  0.00  0.00    +0.112 C 
ATOM     12  C   UNL     1      32.349  -9.369 -21.419  0.00  0.00    +0.061 C 
ATOM     13  C   UNL     1      33.597  -8.957 -23.483  0.00  0.00    +0.112 C 
ATOM     14  C   UNL     1      31.254 -11.419 -19.738  0.00  0.00    -0.003 C 
ATOM     15  C   UNL     1      31.792  -9.071 -20.169  0.00  0.00    +0.016 C 
ATOM     16  C   UNL     1      31.256 -10.080 -19.340  0.00  0.00    +0.001 C 
ATOM     17  C   UNL     1      33.029  -7.047 -21.946  0.00  0.00    +0.112 C 
ATOM     18  H   UNL     1      32.925 -15.456 -22.252  0.00  0.00    -0.080 HD
ENDROOT
BRANCH   2  19
ATOM     19  C   UNL     1      34.743 -15.581 -21.352  0.00  0.00    -0.077 C 
BRANCH  19  20
ATOM     20  C   UNL     1      34.314 -17.039 -21.175  0.00  0.00    -0.015 C 
BRANCH  20  21
ATOM     21  C   UNL     1      35.120 -17.994 -22.060  0.00  0.00    +0.067 C 
BRANCH  21  23
ATOM     22  O   UNL     1      37.172 -18.949 -21.223  0.00  0.00    -0.291 OA
ATOM     23  C   UNL     1      35.946 -18.998 -21.269  0.00  0.00    +0.173 C 
BRANCH  23  25
ATOM     24  F   UNL     1      33.264 -23.017 -18.397  0.00  0.00    -0.204 F 
ATOM     25  C   UNL     1      35.234 -20.064 -20.505  0.00  0.00    +0.035 C 
ATOM     26  C   UNL     1      33.845 -20.162 -20.576  0.00  0.00    +0.005 C 
ATOM     27  C   UNL     1      35.958 -20.964 -19.724  0.00  0.00    +0.005 C 
ATOM     28  C   UNL     1      33.179 -21.159 -19.863  0.00  0.00    +0.030 C 
ATOM     29  C   UNL     1      35.293 -21.961 -19.011  0.00  0.00    +0.030 C 
ATOM     30  C   UNL     1      33.903 -22.059 -19.081  0.00  0.00    +0.140 C 
ENDBRANCH  23  25
ENDBRANCH  21  23
ENDBRANCH  20  21
ENDBRANCH  19  20
ENDBRANCH   2  19
TORSDOF 5
ENDMDL
MODEL 3
REMARK VINA RESULT:     -10.9      5.036     10.700
REMARK  Name = 21302490
REMARK  5 active torsions:
REMARK  status: ('A' for Active; 'I' for Inactive)
REMARK    1  A    between atoms: N_2  and  C_19
REMARK    2  A    between atoms: C_19  and  C_20
REMARK    3  A    between atoms: C_20  and  C_21
REMARK    4  A    between atoms: C_21  and  C_23
REMARK    5  A    between atoms: C_23  and  C_25
REMARK                            x       y       z     vdW  Elec       q    Type
REMARK                         _______ _______ _______ _____ _____    ______ ____
ROOT
ATOM      1  N   UNL     1      33.480 -14.459 -22.350  0.00  0.00    -0.307 N 
ATOM      2  N   UNL     1      33.470 -11.394 -24.635  0.00  0.00    +0.387 N 
ATOM      3  N   UNL     1      34.784 -16.863 -21.518  0.00  0.00    -0.303 N 
ATOM      4  C   UNL     1      32.476 -13.692 -23.099  0.00  0.00    +0.073 C 
ATOM      5  C   UNL     1      32.895 -13.815 -24.601  0.00  0.00    +0.021 C 
ATOM      6  C   UNL     1      32.345 -12.249 -22.626  0.00  0.00    -0.003 C 
ATOM      7  C   UNL     1      33.883 -12.734 -25.066  0.00  0.00    -0.071 C 
ATOM      8  C   UNL     1      33.575 -15.154 -24.573  0.00  0.00    -0.008 C 
ATOM      9  C   UNL     1      33.900 -15.460 -23.248  0.00  0.00    +0.057 C 
ATOM     10  C   UNL     1      33.434 -11.328 -23.168  0.00  0.00    -0.076 C 
ATOM     11  C   UNL     1      33.333 -14.913 -20.982  0.00  0.00    +0.112 C 
ATOM     12  C   UNL     1      34.552 -16.631 -22.868  0.00  0.00    +0.061 C 
ATOM     13  C   UNL     1      34.563 -15.746 -20.587  0.00  0.00    +0.112 C 
ATOM     14  C   UNL     1      33.912 -16.015 -25.596  0.00  0.00    -0.003 C 
ATOM     15  C   UNL     1      34.882 -17.504 -23.913  0.00  0.00    +0.016 C 
ATOM     16  C   UNL     1      34.570 -17.199 -25.256  0.00  0.00    +0.001 C 
ATOM     17  C   UNL     1      35.572 -17.999 -21.074  0.00  0.00    +0.112 C 
ATOM     18  H   UNL     1      32.535 -11.203 -24.998  0.00  0.00    -0.080 HD
ENDROOT
BRANCH   2  19
ATOM     19  C   UNL     1      34.388 -10.385 -25.166  0.00  0.00    -0.077 C 
BRANCH  19  20
ATOM     20  C   UNL     1      34.943  -9.524 -24.029  0.00  0.00    -0.015 C 
BRANCH  20  21
ATOM     21  C   UNL     1      34.629  -8.037 -24.220  0.00  0.00    +0.067 C 
BRANCH  21  23
ATOM     22  O   UNL     1      33.363  -8.017 -22.165  0.00  0.00    -0.291 OA
ATOM     23  C   UNL     1      33.557  -7.520 -23.272  0.00  0.00    +0.173 C 
BRANCH  23  25
ATOM     24  F   UNL     1      30.445  -3.123 -24.876  0.00  0.00    -0.204 F 
ATOM     25  C   UNL     1      32.730  -6.354 -23.698  0.00  0.00    +0.035 C 
ATOM     26  C   UNL     1      31.851  -5.755 -22.796  0.00  0.00    +0.005 C 
ATOM     27  C   UNL     1      32.838  -5.861 -24.998  0.00  0.00    +0.005 C 
ATOM     28  C   UNL     1      31.079  -4.664 -23.193  0.00  0.00    +0.030 C 
ATOM     29  C   UNL     1      32.066  -4.770 -25.397  0.00  0.00    +0.030 C 
ATOM     30  C   UNL     1      31.187  -4.171 -24.494  0.00  0.00    +0.140 C 
ENDBRANCH  23  25
ENDBRANCH  21  23
ENDBRANCH  20  21
ENDBRANCH  19  20
ENDBRANCH   2  19
TORSDOF 5
ENDMDL
MODEL 4
REMARK VINA RESULT:     -10.6      3.120      5.823
REMARK  Name = 21302490
REMARK  5 active torsions:
REMARK  status: ('A' for Active; 'I' for Inactive)
REMARK    1  A    between atoms: N_2  and  C_19
REMARK    2  A    between atoms: C_19  and  C_20
REMARK    3  A    between atoms: C_20  and  C_21
REMARK    4  A    between atoms: C_21  and  C_23
REMARK    5  A    between atoms: C_23  and  C_25
REMARK                            x       y       z     vdW  Elec       q    Type
REMARK                         _______ _______ _______ _____ _____    ______ ____
ROOT
ATOM      1  N   UNL     1      32.069  -6.724 -22.459  0.00  0.00    -0.307 N 
ATOM      2  N   UNL     1      32.862 -10.463 -22.376  0.00  0.00    +0.387 N 
ATOM      3  N   UNL     1      31.302  -4.438 -23.995  0.00  0.00    -0.303 N 
ATOM      4  C   UNL     1      33.038  -7.593 -21.778  0.00  0.00    +0.073 C 
ATOM      5  C   UNL     1      33.877  -8.256 -22.919  0.00  0.00    +0.021 C 
ATOM      6  C   UNL     1      32.385  -8.604 -20.843  0.00  0.00    -0.003 C 
ATOM      7  C   UNL     1      33.275  -9.564 -23.458  0.00  0.00    -0.071 C 
ATOM      8  C   UNL     1      33.789  -7.181 -23.964  0.00  0.00    -0.008 C 
ATOM      9  C   UNL     1      32.718  -6.340 -23.649  0.00  0.00    +0.057 C 
ATOM     10  C   UNL     1      31.818  -9.824 -21.564  0.00  0.00    -0.076 C 
ATOM     11  C   UNL     1      31.312  -5.663 -21.827  0.00  0.00    +0.112 C 
ATOM     12  C   UNL     1      32.352  -5.241 -24.423  0.00  0.00    +0.061 C 
ATOM     13  C   UNL     1      30.470  -4.937 -22.889  0.00  0.00    +0.112 C 
ATOM     14  C   UNL     1      34.542  -6.966 -25.099  0.00  0.00    -0.003 C 
ATOM     15  C   UNL     1      33.128  -5.024 -25.569  0.00  0.00    +0.016 C 
ATOM     16  C   UNL     1      34.204  -5.875 -25.903  0.00  0.00    +0.001 C 
ATOM     17  C   UNL     1      30.792  -3.360 -24.823  0.00  0.00    +0.112 C 
ATOM     18  H   UNL     1      33.669 -10.660 -21.783  0.00  0.00    -0.080 HD
ENDROOT
BRANCH   2  19
ATOM     19  C   UNL     1      32.373 -11.728 -22.927  0.00  0.00    -0.077 C 
BRANCH  19  20
ATOM     20  C   UNL     1      33.429 -12.352 -23.842  0.00  0.00    -0.015 C 
BRANCH  20  21
ATOM     21  C   UNL     1      33.228 -13.859 -24.019  0.00  0.00    +0.067 C 
BRANCH  21  23
ATOM     22  O   UNL     1      34.697 -14.246 -22.144  0.00  0.00    -0.291 OA
ATOM     23  C   UNL     1      34.152 -14.698 -23.147  0.00  0.00    +0.173 C 
BRANCH  23  25
ATOM     24  F   UNL     1      35.012 -20.074 -24.543  0.00  0.00    -0.204 F 
ATOM     25  C   UNL     1      34.382 -16.125 -23.518  0.00  0.00    +0.035 C 
ATOM     26  C   UNL     1      34.657 -17.066 -22.527  0.00  0.00    +0.005 C 
ATOM     27  C   UNL     1      34.319 -16.517 -24.855  0.00  0.00    +0.005 C 
ATOM     28  C   UNL     1      34.870 -18.401 -22.873  0.00  0.00    +0.030 C 
ATOM     29  C   UNL     1      34.532 -17.851 -25.201  0.00  0.00    +0.030 C 
ATOM     30  C   UNL     1      34.807 -18.793 -24.210  0.00  0.00    +0.140 C 
ENDBRANCH  23  25
ENDBRANCH  21  23
ENDBRANCH  20  21
ENDBRANCH  19  20
ENDBRANCH   2  19
TORSDOF 5
ENDMDL
MODEL 5
REMARK VINA RESULT:     -10.4      2.866      5.524
REMARK  Name = 21302490
REMARK  5 active torsions:
REMARK  status: ('A' for Active; 'I' for Inactive)
REMARK    1  A    between atoms: N_2  and  C_19
REMARK    2  A    between atoms: C_19  and  C_20
REMARK    3  A    between atoms: C_20  and  C_21
REMARK    4  A    between atoms: C_21  and  C_23
REMARK    5  A    between atoms: C_23  and  C_25
REMARK                            x       y       z     vdW  Elec       q    Type
REMARK                         _______ _______ _______ _____ _____    ______ ____
ROOT
ATOM      1  N   UNL     1      32.055  -6.777 -22.432  0.00  0.00    -0.307 N 
ATOM      2  N   UNL     1      32.809 -10.525 -22.440  0.00  0.00    +0.387 N 
ATOM      3  N   UNL     1      31.302  -4.449 -23.912  0.00  0.00    -0.303 N 
ATOM      4  C   UNL     1      33.019  -7.671 -21.778  0.00  0.00    +0.073 C 
ATOM      5  C   UNL     1      33.844  -8.317 -22.939  0.00  0.00    +0.021 C 
ATOM      6  C   UNL     1      32.361  -8.697 -20.862  0.00  0.00    -0.003 C 
ATOM      7  C   UNL     1      33.225  -9.605 -23.503  0.00  0.00    -0.071 C 
ATOM      8  C   UNL     1      33.761  -7.218 -23.959  0.00  0.00    -0.008 C 
ATOM      9  C   UNL     1      32.701  -6.373 -23.618  0.00  0.00    +0.057 C 
ATOM     10  C   UNL     1      31.777  -9.894 -21.606  0.00  0.00    -0.076 C 
ATOM     11  C   UNL     1      31.313  -5.723 -21.772  0.00  0.00    +0.112 C 
ATOM     12  C   UNL     1      32.341  -5.253 -24.364  0.00  0.00    +0.061 C 
ATOM     13  C   UNL     1      30.472  -4.964 -22.812  0.00  0.00    +0.112 C 
ATOM     14  C   UNL     1      34.509  -6.984 -25.093  0.00  0.00    -0.003 C 
ATOM     15  C   UNL     1      33.113  -5.018 -25.510  0.00  0.00    +0.016 C 
ATOM     16  C   UNL     1      34.177  -5.872 -25.870  0.00  0.00    +0.001 C 
ATOM     17  C   UNL     1      30.799  -3.347 -24.712  0.00  0.00    +0.112 C 
ATOM     18  H   UNL     1      33.617 -10.743 -21.856  0.00  0.00    -0.080 HD
ENDROOT
BRANCH   2  19
ATOM     19  C   UNL     1      32.303 -11.772 -23.016  0.00  0.00    -0.077 C 
BRANCH  19  20
ATOM     20  C   UNL     1      33.424 -12.509 -23.750  0.00  0.00    -0.015 C 
BRANCH  20  21
ATOM     21  C   UNL     1      33.962 -13.697 -22.947  0.00  0.00    +0.067 C 
BRANCH  21  23
ATOM     22  O   UNL     1      33.424 -15.104 -24.833  0.00  0.00    -0.291 OA
ATOM     23  C   UNL     1      33.914 -15.013 -23.710  0.00  0.00    +0.173 C 
BRANCH  23  25
ATOM     24  F   UNL     1      36.138 -19.587 -21.320  0.00  0.00    -0.204 F 
ATOM     25  C   UNL     1      34.503 -16.228 -23.076  0.00  0.00    +0.035 C 
ATOM     26  C   UNL     1      34.936 -17.289 -23.870  0.00  0.00    +0.005 C 
ATOM     27  C   UNL     1      34.623 -16.301 -21.688  0.00  0.00    +0.005 C 
ATOM     28  C   UNL     1      35.488 -18.424 -23.277  0.00  0.00    +0.030 C 
ATOM     29  C   UNL     1      35.174 -17.436 -21.094  0.00  0.00    +0.030 C 
ATOM     30  C   UNL     1      35.608 -18.497 -21.889  0.00  0.00    +0.140 C 
ENDBRANCH  23  25
ENDBRANCH  21  23
ENDBRANCH  20  21
ENDBRANCH  19  20
ENDBRANCH   2  19
TORSDOF 5
ENDMDL
MODEL 6
REMARK VINA RESULT:     -10.4      4.676      9.740
REMARK  Name = 21302490
REMARK  5 active torsions:
REMARK  status: ('A' for Active; 'I' for Inactive)
REMARK    1  A    between atoms: N_2  and  C_19
REMARK    2  A    between atoms: C_19  and  C_20
REMARK    3  A    between atoms: C_20  and  C_21
REMARK    4  A    between atoms: C_21  and  C_23
REMARK    5  A    between atoms: C_23  and  C_25
REMARK                            x       y       z     vdW  Elec       q    Type
REMARK                         _______ _______ _______ _____ _____    ______ ____
ROOT
ATOM      1  N   UNL     1      34.178 -15.732 -23.950  0.00  0.00    -0.307 N 
ATOM      2  N   UNL     1      32.695 -13.120 -21.585  0.00  0.00    +0.387 N 
ATOM      3  N   UNL     1      34.449 -18.488 -24.661  0.00  0.00    -0.303 N 
ATOM      4  C   UNL     1      34.627 -14.478 -23.332  0.00  0.00    +0.073 C 
ATOM      5  C   UNL     1      34.580 -14.732 -21.790  0.00  0.00    +0.021 C 
ATOM      6  C   UNL     1      33.810 -13.267 -23.769  0.00  0.00    -0.003 C 
ATOM      7  C   UNL     1      33.222 -14.416 -21.145  0.00  0.00    -0.071 C 
ATOM      8  C   UNL     1      34.829 -16.213 -21.764  0.00  0.00    -0.008 C 
ATOM      9  C   UNL     1      34.565 -16.731 -23.035  0.00  0.00    +0.057 C 
ATOM     10  C   UNL     1      32.477 -13.134 -23.038  0.00  0.00    -0.076 C 
ATOM     11  C   UNL     1      34.371 -16.094 -25.339  0.00  0.00    +0.112 C 
ATOM     12  C   UNL     1      34.687 -18.082 -23.354  0.00  0.00    +0.061 C 
ATOM     13  C   UNL     1      33.832 -17.514 -25.575  0.00  0.00    +0.112 C 
ATOM     14  C   UNL     1      35.215 -17.043 -20.733  0.00  0.00    -0.003 C 
ATOM     15  C   UNL     1      35.090 -18.916 -22.302  0.00  0.00    +0.016 C 
ATOM     16  C   UNL     1      35.346 -18.405 -21.012  0.00  0.00    +0.001 C 
ATOM     17  C   UNL     1      34.434 -19.894 -25.022  0.00  0.00    +0.112 C 
ATOM     18  H   UNL     1      33.375 -12.393 -21.360  0.00  0.00    -0.080 HD
ENDROOT
BRANCH   2  19
ATOM     19  C   UNL     1      31.444 -12.817 -20.888  0.00  0.00    -0.077 C 
BRANCH  19  20
ATOM     20  C   UNL     1      31.555 -11.475 -20.161  0.00  0.00    -0.015 C 
BRANCH  20  21
ATOM     21  C   UNL     1      31.243 -10.289 -21.079  0.00  0.00    +0.067 C 
BRANCH  21  23
ATOM     22  O   UNL     1      32.478  -8.777 -19.660  0.00  0.00    -0.291 OA
ATOM     23  C   UNL     1      32.097  -9.063 -20.793  0.00  0.00    +0.173 C 
BRANCH  23  25
ATOM     24  F   UNL     1      33.621  -5.788 -25.098  0.00  0.00    -0.204 F 
ATOM     25  C   UNL     1      32.503  -8.193 -21.935  0.00  0.00    +0.035 C 
ATOM     26  C   UNL     1      33.576  -8.562 -22.745  0.00  0.00    +0.005 C 
ATOM     27  C   UNL     1      31.807  -7.013 -22.193  0.00  0.00    +0.005 C 
ATOM     28  C   UNL     1      33.954  -7.750 -23.814  0.00  0.00    +0.030 C 
ATOM     29  C   UNL     1      32.185  -6.200 -23.262  0.00  0.00    +0.030 C 
ATOM     30  C   UNL     1      33.258  -6.569 -24.072  0.00  0.00    +0.140 C 
ENDBRANCH  23  25
ENDBRANCH  21  23
ENDBRANCH  20  21
ENDBRANCH  19  20
ENDBRANCH   2  19
TORSDOF 5
ENDMDL
MODEL 7
REMARK VINA RESULT:     -10.2      5.330     11.189
REMARK  Name = 21302490
REMARK  5 active torsions:
REMARK  status: ('A' for Active; 'I' for Inactive)
REMARK    1  A    between atoms: N_2  and  C_19
REMARK    2  A    between atoms: C_19  and  C_20
REMARK    3  A    between atoms: C_20  and  C_21
REMARK    4  A    between atoms: C_21  and  C_23
REMARK    5  A    between atoms: C_23  and  C_25
REMARK                            x       y       z     vdW  Elec       q    Type
REMARK                         _______ _______ _______ _____ _____    ______ ____
ROOT
ATOM      1  N   UNL     1      33.440 -14.924 -22.091  0.00  0.00    -0.307 N 
ATOM      2  N   UNL     1      33.183 -11.637 -24.027  0.00  0.00    +0.387 N 
ATOM      3  N   UNL     1      34.937 -17.291 -21.514  0.00  0.00    -0.303 N 
ATOM      4  C   UNL     1      32.378 -14.164 -22.764  0.00  0.00    +0.073 C 
ATOM      5  C   UNL     1      32.809 -14.086 -24.265  0.00  0.00    +0.021 C 
ATOM      6  C   UNL     1      32.127 -12.798 -22.136  0.00  0.00    -0.003 C 
ATOM      7  C   UNL     1      33.705 -12.883 -24.597  0.00  0.00    -0.071 C 
ATOM      8  C   UNL     1      33.598 -15.360 -24.376  0.00  0.00    -0.008 C 
ATOM      9  C   UNL     1      33.944 -15.782 -23.089  0.00  0.00    +0.057 C 
ATOM     10  C   UNL     1      33.138 -11.736 -22.562  0.00  0.00    -0.076 C 
ATOM     11  C   UNL     1      33.328 -15.536 -20.784  0.00  0.00    +0.112 C 
ATOM     12  C   UNL     1      34.689 -16.931 -22.833  0.00  0.00    +0.061 C 
ATOM     13  C   UNL     1      34.621 -16.305 -20.468  0.00  0.00    +0.112 C 
ATOM     14  C   UNL     1      34.007 -16.072 -25.483  0.00  0.00    -0.003 C 
ATOM     15  C   UNL     1      35.093 -17.653 -23.964  0.00  0.00    +0.016 C 
ATOM     16  C   UNL     1      34.759 -17.228 -25.268  0.00  0.00    +0.001 C 
ATOM     17  C   UNL     1      35.815 -18.400 -21.188  0.00  0.00    +0.112 C 
ATOM     18  H   UNL     1      32.236 -11.484 -24.377  0.00  0.00    -0.080 HD
ENDROOT
BRANCH   2  19
ATOM     19  C   UNL     1      34.015 -10.504 -24.433  0.00  0.00    -0.077 C 
BRANCH  19  20
ATOM     20  C   UNL     1      33.743  -9.297 -23.533  0.00  0.00    -0.015 C 
BRANCH  20  21
ATOM     21  C   UNL     1      34.289  -7.995 -24.126  0.00  0.00    +0.067 C 
BRANCH  21  23
ATOM     22  O   UNL     1      33.060  -6.550 -22.633  0.00  0.00    -0.291 OA
ATOM     23  C   UNL     1      33.450  -6.774 -23.776  0.00  0.00    +0.173 C 
BRANCH  23  25
ATOM     24  F   UNL     1      32.176  -3.128 -27.858  0.00  0.00    -0.204 F 
ATOM     25  C   UNL     1      33.111  -5.807 -24.860  0.00  0.00    +0.035 C 
ATOM     26  C   UNL     1      32.007  -4.965 -24.723  0.00  0.00    +0.005 C 
ATOM     27  C   UNL     1      33.898  -5.743 -26.009  0.00  0.00    +0.005 C 
ATOM     28  C   UNL     1      31.691  -4.060 -25.736  0.00  0.00    +0.030 C 
ATOM     29  C   UNL     1      33.583  -4.839 -27.023  0.00  0.00    +0.030 C 
ATOM     30  C   UNL     1      32.479  -3.997 -26.886  0.00  0.00    +0.140 C 
ENDBRANCH  23  25
ENDBRANCH  21  23
ENDBRANCH  20  21
ENDBRANCH  19  20
ENDBRANCH   2  19
TORSDOF 5
ENDMDL
MODEL 8
REMARK VINA RESULT:     -10.2      4.135      9.234
REMARK  Name = 21302490
REMARK  5 active torsions:
REMARK  status: ('A' for Active; 'I' for Inactive)
REMARK    1  A    between atoms: N_2  and  C_19
REMARK    2  A    between atoms: C_19  and  C_20
REMARK    3  A    between atoms: C_20  and  C_21
REMARK    4  A    between atoms: C_21  and  C_23
REMARK    5  A    between atoms: C_23  and  C_25
REMARK                            x       y       z     vdW  Elec       q    Type
REMARK                         _______ _______ _______ _____ _____    ______ ____
ROOT
ATOM      1  N   UNL     1      33.658 -14.840 -22.326  0.00  0.00    -0.307 N 
ATOM      2  N   UNL     1      33.622 -11.789 -24.630  0.00  0.00    +0.387 N 
ATOM      3  N   UNL     1      34.966 -17.246 -21.503  0.00  0.00    -0.303 N 
ATOM      4  C   UNL     1      32.645 -14.073 -23.062  0.00  0.00    +0.073 C 
ATOM      5  C   UNL     1      33.036 -14.207 -24.571  0.00  0.00    +0.021 C 
ATOM      6  C   UNL     1      32.529 -12.627 -22.596  0.00  0.00    -0.003 C 
ATOM      7  C   UNL     1      34.021 -13.133 -25.059  0.00  0.00    -0.071 C 
ATOM      8  C   UNL     1      33.711 -15.549 -24.546  0.00  0.00    -0.008 C 
ATOM      9  C   UNL     1      34.058 -15.848 -23.225  0.00  0.00    +0.057 C 
ATOM     10  C   UNL     1      33.613 -11.714 -23.163  0.00  0.00    -0.076 C 
ATOM     11  C   UNL     1      33.533 -15.285 -20.953  0.00  0.00    +0.112 C 
ATOM     12  C   UNL     1      34.711 -17.021 -22.850  0.00  0.00    +0.061 C 
ATOM     13  C   UNL     1      34.766 -16.122 -20.575  0.00  0.00    +0.112 C 
ATOM     14  C   UNL     1      34.025 -16.417 -25.570  0.00  0.00    -0.003 C 
ATOM     15  C   UNL     1      35.018 -17.901 -23.896  0.00  0.00    +0.016 C 
ATOM     16  C   UNL     1      34.683 -17.602 -25.234  0.00  0.00    +0.001 C 
ATOM     17  C   UNL     1      35.756 -18.382 -21.066  0.00  0.00    +0.112 C 
ATOM     18  H   UNL     1      32.682 -11.596 -24.977  0.00  0.00    -0.080 HD
ENDROOT
BRANCH   2  19
ATOM     19  C   UNL     1      34.536 -10.788 -25.183  0.00  0.00    -0.077 C 
BRANCH  19  20
ATOM     20  C   UNL     1      34.750  -9.654 -24.178  0.00  0.00    -0.015 C 
BRANCH  20  21
ATOM     21  C   UNL     1      34.567  -8.272 -24.812  0.00  0.00    +0.067 C 
BRANCH  21  23
ATOM     22  O   UNL     1      33.353  -6.229 -24.397  0.00  0.00    -0.291 OA
ATOM     23  C   UNL     1      33.631  -7.366 -24.026  0.00  0.00    +0.173 C 
BRANCH  23  25
ATOM     24  F   UNL     1      31.303  -9.343 -19.309  0.00  0.00    -0.204 F 
ATOM     25  C   UNL     1      33.014  -7.892 -22.774  0.00  0.00    +0.035 C 
ATOM     26  C   UNL     1      33.461  -7.439 -21.533  0.00  0.00    +0.005 C 
ATOM     27  C   UNL     1      31.988  -8.835 -22.844  0.00  0.00    +0.005 C 
ATOM     28  C   UNL     1      32.883  -7.929 -20.362  0.00  0.00    +0.030 C 
ATOM     29  C   UNL     1      31.411  -9.326 -21.674  0.00  0.00    +0.030 C 
ATOM     30  C   UNL     1      31.858  -8.872 -20.433  0.00  0.00    +0.140 C 
ENDBRANCH  23  25
ENDBRANCH  21  23
ENDBRANCH  20  21
ENDBRANCH  19  20
ENDBRANCH   2  19
TORSDOF 5
ENDMDL
MODEL 9
REMARK VINA RESULT:     -10.1      4.782     10.008
REMARK  Name = 21302490
REMARK  5 active torsions:
REMARK  status: ('A' for Active; 'I' for Inactive)
REMARK    1  A    between atoms: N_2  and  C_19
REMARK    2  A    between atoms: C_19  and  C_20
REMARK    3  A    between atoms: C_20  and  C_21
REMARK    4  A    between atoms: C_21  and  C_23
REMARK    5  A    between atoms: C_23  and  C_25
REMARK                            x       y       z     vdW  Elec       q    Type
REMARK                         _______ _______ _______ _____ _____    ______ ____
ROOT
ATOM      1  N   UNL     1      34.125 -15.658 -24.005  0.00  0.00    -0.307 N 
ATOM      2  N   UNL     1      32.628 -12.976 -21.728  0.00  0.00    +0.387 N 
ATOM      3  N   UNL     1      34.406 -18.434 -24.628  0.00  0.00    -0.303 N 
ATOM      4  C   UNL     1      34.569 -14.383 -23.426  0.00  0.00    +0.073 C 
ATOM      5  C   UNL     1      34.518 -14.589 -21.876  0.00  0.00    +0.021 C 
ATOM      6  C   UNL     1      33.750 -13.189 -23.903  0.00  0.00    -0.003 C 
ATOM      7  C   UNL     1      33.157 -14.256 -21.246  0.00  0.00    -0.071 C 
ATOM      8  C   UNL     1      34.770 -16.068 -21.803  0.00  0.00    -0.008 C 
ATOM      9  C   UNL     1      34.511 -16.627 -23.058  0.00  0.00    +0.057 C 
ATOM     10  C   UNL     1      32.415 -13.037 -23.180  0.00  0.00    -0.076 C 
ATOM     11  C   UNL     1      34.323 -16.062 -25.382  0.00  0.00    +0.112 C 
ATOM     12  C   UNL     1      34.638 -17.987 -23.334  0.00  0.00    +0.061 C 
ATOM     13  C   UNL     1      33.789 -17.491 -25.574  0.00  0.00    +0.112 C 
ATOM     14  C   UNL     1      35.156 -16.864 -20.745  0.00  0.00    -0.003 C 
ATOM     15  C   UNL     1      35.040 -18.786 -22.255  0.00  0.00    +0.016 C 
ATOM     16  C   UNL     1      35.291 -18.234 -20.980  0.00  0.00    +0.001 C 
ATOM     17  C   UNL     1      34.395 -19.851 -24.945  0.00  0.00    +0.112 C 
ATOM     18  H   UNL     1      33.305 -12.241 -21.524  0.00  0.00    -0.080 HD
ENDROOT
BRANCH   2  19
ATOM     19  C   UNL     1      31.374 -12.655 -21.044  0.00  0.00    -0.077 C 
BRANCH  19  20
ATOM     20  C   UNL     1      30.801 -11.341 -21.580  0.00  0.00    -0.015 C 
BRANCH  20  21
ATOM     21  C   UNL     1      31.604 -10.123 -21.114  0.00  0.00    +0.067 C 
BRANCH  21  23
ATOM     22  O   UNL     1      33.096  -9.898 -22.997  0.00  0.00    -0.291 OA
ATOM     23  C   UNL     1      32.273  -9.369 -22.255  0.00  0.00    +0.173 C 
BRANCH  23  25
ATOM     24  F   UNL     1      30.855  -4.003 -23.133  0.00  0.00    -0.204 F 
ATOM     25  C   UNL     1      31.896  -7.945 -22.487  0.00  0.00    +0.035 C 
ATOM     26  C   UNL     1      31.955  -7.028 -21.438  0.00  0.00    +0.005 C 
ATOM     27  C   UNL     1      31.486  -7.530 -23.754  0.00  0.00    +0.005 C 
ATOM     28  C   UNL     1      31.603  -5.696 -21.656  0.00  0.00    +0.030 C 
ATOM     29  C   UNL     1      31.134  -6.199 -23.973  0.00  0.00    +0.030 C 
ATOM     30  C   UNL     1      31.193  -5.282 -22.924  0.00  0.00    +0.140 C 
ENDBRANCH  23  25
ENDBRANCH  21  23
ENDBRANCH  20  21
ENDBRANCH  19  20
ENDBRANCH   2  19
TORSDOF 5
ENDMDL
