MODEL 1
REMARK VINA RESULT:      -9.3      0.000      0.000
REMARK  Name = 2474
REMARK  5 active torsions:
REMARK  status: ('A' for Active; 'I' for Inactive)
REMARK    1  A    between atoms: N_2  and  C_5
REMARK    2  A    between atoms: C_3  and  C_14
REMARK    3  A    between atoms: N_13  and  C_20
REMARK    4  A    between atoms: C_20  and  C_21
REMARK    5  A    between atoms: C_21  and  C_22
REMARK                            x       y       z     vdW  Elec       q    Type
REMARK                         _______ _______ _______ _____ _____    ______ ____
ROOT
ATOM      1  O   UNL     1      31.944 -14.740 -22.236  0.00  0.00    -0.277 OA
ATOM      2  N   UNL     1      34.086 -14.833 -23.205  0.00  0.00    -0.286 N 
ATOM      3  C   UNL     1      32.848 -14.270 -22.918  0.00  0.00    +0.207 C 
ATOM      4  H   UNL     1      34.686 -14.298 -23.773  0.00  0.00    +0.155 HD
ENDROOT
BRANCH   2   5
ATOM      5  C   UNL     1      34.582 -16.086 -22.774  0.00  0.00    +0.042 C 
ATOM      6  C   UNL     1      34.821 -16.297 -21.425  0.00  0.00    -0.009 C 
ATOM      7  C   UNL     1      34.822 -17.082 -23.710  0.00  0.00    -0.009 C 
ATOM      8  C   UNL     1      35.312 -17.532 -21.001  0.00  0.00    -0.003 C 
ATOM      9  C   UNL     1      35.312 -18.317 -23.285  0.00  0.00    -0.003 C 
ATOM     10  C   UNL     1      34.569 -15.235 -20.404  0.00  0.00    +0.032 C 
ATOM     11  C   UNL     1      34.569 -16.871 -25.167  0.00  0.00    +0.032 C 
ATOM     12  C   UNL     1      35.557 -18.542 -21.931  0.00  0.00    -0.001 C 
ENDBRANCH   2   5
BRANCH   3  14
ATOM     13  N   UNL     1      32.686 -11.898 -22.507  0.00  0.00    +0.394 N 
ATOM     14  C   UNL     1      32.703 -12.925 -23.564  0.00  0.00    +0.021 C 
ATOM     15  C   UNL     1      33.895 -12.748 -24.516  0.00  0.00    -0.012 C 
ATOM     16  C   UNL     1      32.684 -10.543 -23.086  0.00  0.00    -0.077 C 
ATOM     17  C   UNL     1      33.936 -11.348 -25.112  0.00  0.00    -0.004 C 
ATOM     18  C   UNL     1      33.886 -10.309 -24.001  0.00  0.00    -0.023 C 
ATOM     19  H   UNL     1      33.532 -12.035 -21.955  0.00  0.00    -0.079 HD
BRANCH  13  20
ATOM     20  C   UNL     1      31.521 -12.039 -21.623  0.00  0.00    -0.077 C 
BRANCH  20  21
ATOM     21  C   UNL     1      31.944 -11.913 -20.161  0.00  0.00    -0.023 C 
BRANCH  21  22
ATOM     22  C   UNL     1      31.199 -10.773 -19.466  0.00  0.00    -0.002 C 
ATOM     23  C   UNL     1      31.944  -9.455 -19.603  0.00  0.00    -0.000 C 
ENDBRANCH  21  22
ENDBRANCH  20  21
ENDBRANCH  13  20
ENDBRANCH   3  14
TORSDOF 5
ENDMDL
MODEL 2
REMARK VINA RESULT:      -9.2      1.100      3.270
REMARK  Name = 2474
REMARK  5 active torsions:
REMARK  status: ('A' for Active; 'I' for Inactive)
REMARK    1  A    between atoms: N_2  and  C_5
REMARK    2  A    between atoms: C_3  and  C_14
REMARK    3  A    between atoms: N_13  and  C_20
REMARK    4  A    between atoms: C_20  and  C_21
REMARK    5  A    between atoms: C_21  and  C_22
REMARK                            x       y       z     vdW  Elec       q    Type
REMARK                         _______ _______ _______ _____ _____    ______ ____
ROOT
ATOM      1  O   UNL     1      31.967 -15.590 -21.601  0.00  0.00    -0.277 OA
ATOM      2  N   UNL     1      33.988 -15.111 -22.706  0.00  0.00    -0.286 N 
ATOM      3  C   UNL     1      32.847 -14.819 -21.969  0.00  0.00    +0.207 C 
ATOM      4  H   UNL     1      34.585 -14.353 -22.903  0.00  0.00    +0.155 HD
ENDROOT
BRANCH   2   5
ATOM      5  C   UNL     1      34.391 -16.373 -23.205  0.00  0.00    +0.042 C 
ATOM      6  C   UNL     1      34.941 -17.304 -22.338  0.00  0.00    -0.009 C 
ATOM      7  C   UNL     1      34.230 -16.654 -24.554  0.00  0.00    -0.009 C 
ATOM      8  C   UNL     1      35.340 -18.547 -22.831  0.00  0.00    -0.003 C 
ATOM      9  C   UNL     1      34.627 -17.897 -25.046  0.00  0.00    -0.003 C 
ATOM     10  C   UNL     1      35.123 -17.017 -20.883  0.00  0.00    +0.032 C 
ATOM     11  C   UNL     1      33.639 -15.662 -25.501  0.00  0.00    +0.032 C 
ATOM     12  C   UNL     1      35.182 -18.844 -24.185  0.00  0.00    -0.001 C 
ENDBRANCH   2   5
BRANCH   3  14
ATOM     13  N   UNL     1      32.021 -12.668 -22.684  0.00  0.00    +0.394 N 
ATOM     14  C   UNL     1      32.782 -13.360 -21.629  0.00  0.00    +0.021 C 
ATOM     15  C   UNL     1      32.101 -13.243 -20.259  0.00  0.00    -0.012 C 
ATOM     16  C   UNL     1      31.804 -11.252 -22.338  0.00  0.00    -0.077 C 
ATOM     17  C   UNL     1      31.839 -11.791 -19.882  0.00  0.00    -0.004 C 
ATOM     18  C   UNL     1      31.079 -11.093 -21.001  0.00  0.00    -0.023 C 
ATOM     19  H   UNL     1      31.123 -13.146 -22.755  0.00  0.00    -0.079 HD
BRANCH  13  20
ATOM     20  C   UNL     1      32.696 -12.740 -23.987  0.00  0.00    -0.077 C 
BRANCH  20  21
ATOM     21  C   UNL     1      33.786 -11.674 -24.080  0.00  0.00    -0.023 C 
BRANCH  21  22
ATOM     22  C   UNL     1      34.198 -11.431 -25.532  0.00  0.00    -0.002 C 
ATOM     23  C   UNL     1      35.311 -10.400 -25.630  0.00  0.00    -0.000 C 
ENDBRANCH  21  22
ENDBRANCH  20  21
ENDBRANCH  13  20
ENDBRANCH   3  14
TORSDOF 5
ENDMDL
MODEL 3
REMARK VINA RESULT:      -9.1      2.584      5.296
REMARK  Name = 2474
REMARK  5 active torsions:
REMARK  status: ('A' for Active; 'I' for Inactive)
REMARK    1  A    between atoms: N_2  and  C_5
REMARK    2  A    between atoms: C_3  and  C_14
REMARK    3  A    between atoms: N_13  and  C_20
REMARK    4  A    between atoms: C_20  and  C_21
REMARK    5  A    between atoms: C_21  and  C_22
REMARK                            x       y       z     vdW  Elec       q    Type
REMARK                         _______ _______ _______ _____ _____    ______ ____
ROOT
ATOM      1  O   UNL     1      35.049 -16.180 -19.911  0.00  0.00    -0.277 OA
ATOM      2  N   UNL     1      34.346 -17.623 -21.631  0.00  0.00    -0.286 N 
ATOM      3  C   UNL     1      34.624 -16.396 -21.041  0.00  0.00    +0.207 C 
ATOM      4  H   UNL     1      34.012 -17.595 -22.557  0.00  0.00    +0.155 HD
ENDROOT
BRANCH   2   5
ATOM      5  C   UNL     1      34.486 -18.908 -21.055  0.00  0.00    +0.042 C 
ATOM      6  C   UNL     1      33.364 -19.568 -20.581  0.00  0.00    -0.009 C 
ATOM      7  C   UNL     1      35.746 -19.483 -20.974  0.00  0.00    -0.009 C 
ATOM      8  C   UNL     1      33.503 -20.834 -20.012  0.00  0.00    -0.003 C 
ATOM      9  C   UNL     1      35.885 -20.750 -20.406  0.00  0.00    -0.003 C 
ATOM     10  C   UNL     1      32.000 -18.962 -20.659  0.00  0.00    +0.032 C 
ATOM     11  C   UNL     1      36.966 -18.786 -21.481  0.00  0.00    +0.032 C 
ATOM     12  C   UNL     1      34.764 -21.425 -19.925  0.00  0.00    -0.001 C 
ENDBRANCH   2   5
BRANCH   3  14
ATOM     13  N   UNL     1      34.053 -15.829 -23.316  0.00  0.00    +0.394 N 
ATOM     14  C   UNL     1      34.343 -15.266 -21.985  0.00  0.00    +0.021 C 
ATOM     15  C   UNL     1      33.147 -14.489 -21.418  0.00  0.00    -0.012 C 
ATOM     16  C   UNL     1      33.633 -14.775 -24.256  0.00  0.00    -0.077 C 
ATOM     17  C   UNL     1      32.672 -13.407 -22.379  0.00  0.00    -0.004 C 
ATOM     18  C   UNL     1      32.409 -14.011 -23.751  0.00  0.00    -0.023 C 
ATOM     19  H   UNL     1      33.294 -16.499 -23.188  0.00  0.00    -0.079 HD
BRANCH  13  20
ATOM     20  C   UNL     1      35.212 -16.534 -23.879  0.00  0.00    -0.077 C 
BRANCH  20  21
ATOM     21  C   UNL     1      34.860 -17.135 -25.238  0.00  0.00    -0.023 C 
BRANCH  21  22
ATOM     22  C   UNL     1      34.031 -18.410 -25.081  0.00  0.00    -0.002 C 
ATOM     23  C   UNL     1      34.884 -19.572 -24.598  0.00  0.00    -0.000 C 
ENDBRANCH  21  22
ENDBRANCH  20  21
ENDBRANCH  13  20
ENDBRANCH   3  14
TORSDOF 5
ENDMDL
MODEL 4
REMARK VINA RESULT:      -8.8      1.774      6.405
REMARK  Name = 2474
REMARK  5 active torsions:
REMARK  status: ('A' for Active; 'I' for Inactive)
REMARK    1  A    between atoms: N_2  and  C_5
REMARK    2  A    between atoms: C_3  and  C_14
REMARK    3  A    between atoms: N_13  and  C_20
REMARK    4  A    between atoms: C_20  and  C_21
REMARK    5  A    between atoms: C_21  and  C_22
REMARK                            x       y       z     vdW  Elec       q    Type
REMARK                         _______ _______ _______ _____ _____    ______ ____
ROOT
ATOM      1  O   UNL     1      35.217 -15.260 -21.130  0.00  0.00    -0.277 OA
ATOM      2  N   UNL     1      33.581 -14.832 -22.766  0.00  0.00    -0.286 N 
ATOM      3  C   UNL     1      34.644 -15.512 -22.185  0.00  0.00    +0.207 C 
ATOM      4  H   UNL     1      33.251 -15.190 -23.622  0.00  0.00    +0.155 HD
ENDROOT
BRANCH   2   5
ATOM      5  C   UNL     1      32.918 -13.684 -22.270  0.00  0.00    +0.042 C 
ATOM      6  C   UNL     1      32.292 -13.740 -21.035  0.00  0.00    -0.009 C 
ATOM      7  C   UNL     1      32.907 -12.523 -23.030  0.00  0.00    -0.009 C 
ATOM      8  C   UNL     1      31.638 -12.609 -20.547  0.00  0.00    -0.003 C 
ATOM      9  C   UNL     1      32.253 -11.392 -22.541  0.00  0.00    -0.003 C 
ATOM     10  C   UNL     1      32.294 -14.983 -20.205  0.00  0.00    +0.032 C 
ATOM     11  C   UNL     1      33.577 -12.446 -24.362  0.00  0.00    +0.032 C 
ATOM     12  C   UNL     1      31.619 -11.435 -21.300  0.00  0.00    -0.001 C 
ENDBRANCH   2   5
BRANCH   3  14
ATOM     13  N   UNL     1      34.381 -17.887 -22.520  0.00  0.00    +0.394 N 
ATOM     14  C   UNL     1      35.062 -16.681 -23.025  0.00  0.00    +0.021 C 
ATOM     15  C   UNL     1      34.667 -16.363 -24.474  0.00  0.00    -0.012 C 
ATOM     16  C   UNL     1      34.644 -19.047 -23.391  0.00  0.00    -0.077 C 
ATOM     17  C   UNL     1      34.903 -17.552 -25.396  0.00  0.00    -0.004 C 
ATOM     18  C   UNL     1      34.215 -18.788 -24.835  0.00  0.00    -0.023 C 
ATOM     19  H   UNL     1      33.383 -17.677 -22.519  0.00  0.00    -0.079 HD
BRANCH  13  20
ATOM     20  C   UNL     1      34.794 -18.218 -21.150  0.00  0.00    -0.077 C 
BRANCH  20  21
ATOM     21  C   UNL     1      35.337 -19.644 -21.089  0.00  0.00    -0.023 C 
BRANCH  21  22
ATOM     22  C   UNL     1      34.533 -20.501 -20.111  0.00  0.00    -0.002 C 
ATOM     23  C   UNL     1      33.037 -20.317 -20.309  0.00  0.00    -0.000 C 
ENDBRANCH  21  22
ENDBRANCH  20  21
ENDBRANCH  13  20
ENDBRANCH   3  14
TORSDOF 5
ENDMDL
MODEL 5
REMARK VINA RESULT:      -8.8      7.588     11.256
REMARK  Name = 2474
REMARK  5 active torsions:
REMARK  status: ('A' for Active; 'I' for Inactive)
REMARK    1  A    between atoms: N_2  and  C_5
REMARK    2  A    between atoms: C_3  and  C_14
REMARK    3  A    between atoms: N_13  and  C_20
REMARK    4  A    between atoms: C_20  and  C_21
REMARK    5  A    between atoms: C_21  and  C_22
REMARK                            x       y       z     vdW  Elec       q    Type
REMARK                         _______ _______ _______ _____ _____    ______ ____
ROOT
ATOM      1  O   UNL     1      33.838 -24.074 -19.091  0.00  0.00    -0.277 OA
ATOM      2  N   UNL     1      34.008 -21.911 -18.180  0.00  0.00    -0.286 N 
ATOM      3  C   UNL     1      33.615 -23.244 -18.216  0.00  0.00    +0.207 C 
ATOM      4  H   UNL     1      33.735 -21.398 -17.386  0.00  0.00    +0.155 HD
ENDROOT
BRANCH   2   5
ATOM      5  C   UNL     1      34.755 -21.207 -19.154  0.00  0.00    +0.042 C 
ATOM      6  C   UNL     1      34.092 -20.548 -20.177  0.00  0.00    -0.009 C 
ATOM      7  C   UNL     1      36.140 -21.191 -19.069  0.00  0.00    -0.009 C 
ATOM      8  C   UNL     1      34.828 -19.855 -21.138  0.00  0.00    -0.003 C 
ATOM      9  C   UNL     1      36.876 -20.497 -20.029  0.00  0.00    -0.003 C 
ATOM     10  C   UNL     1      32.601 -20.556 -20.284  0.00  0.00    +0.032 C 
ATOM     11  C   UNL     1      36.871 -21.895 -17.974  0.00  0.00    +0.032 C 
ATOM     12  C   UNL     1      36.221 -19.829 -21.064  0.00  0.00    -0.001 C 
ENDBRANCH   2   5
BRANCH   3  14
ATOM     13  N   UNL     1      33.657 -23.306 -15.805  0.00  0.00    +0.394 N 
ATOM     14  C   UNL     1      32.835 -23.610 -16.989  0.00  0.00    +0.021 C 
ATOM     15  C   UNL     1      31.538 -22.789 -17.014  0.00  0.00    -0.012 C 
ATOM     16  C   UNL     1      32.893 -23.516 -14.562  0.00  0.00    -0.077 C 
ATOM     17  C   UNL     1      30.737 -22.965 -15.732  0.00  0.00    -0.004 C 
ATOM     18  C   UNL     1      31.618 -22.674 -14.525  0.00  0.00    -0.023 C 
ATOM     19  H   UNL     1      33.926 -22.325 -15.882  0.00  0.00    -0.079 HD
BRANCH  13  20
ATOM     20  C   UNL     1      34.876 -24.124 -15.757  0.00  0.00    -0.077 C 
BRANCH  20  21
ATOM     21  C   UNL     1      35.900 -23.498 -14.811  0.00  0.00    -0.023 C 
BRANCH  21  22
ATOM     22  C   UNL     1      37.219 -24.271 -14.834  0.00  0.00    -0.002 C 
ATOM     23  C   UNL     1      36.986 -25.765 -14.994  0.00  0.00    -0.000 C 
ENDBRANCH  21  22
ENDBRANCH  20  21
ENDBRANCH  13  20
ENDBRANCH   3  14
TORSDOF 5
ENDMDL
MODEL 6
REMARK VINA RESULT:      -8.8      1.760      6.540
REMARK  Name = 2474
REMARK  5 active torsions:
REMARK  status: ('A' for Active; 'I' for Inactive)
REMARK    1  A    between atoms: N_2  and  C_5
REMARK    2  A    between atoms: C_3  and  C_14
REMARK    3  A    between atoms: N_13  and  C_20
REMARK    4  A    between atoms: C_20  and  C_21
REMARK    5  A    between atoms: C_21  and  C_22
REMARK                            x       y       z     vdW  Elec       q    Type
REMARK                         _______ _______ _______ _____ _____    ______ ____
ROOT
ATOM      1  O   UNL     1      35.382 -15.136 -21.302  0.00  0.00    -0.277 OA
ATOM      2  N   UNL     1      33.580 -14.848 -22.786  0.00  0.00    -0.286 N 
ATOM      3  C   UNL     1      34.720 -15.461 -22.281  0.00  0.00    +0.207 C 
ATOM      4  H   UNL     1      33.182 -15.261 -23.587  0.00  0.00    +0.155 HD
ENDROOT
BRANCH   2   5
ATOM      5  C   UNL     1      32.926 -13.699 -22.283  0.00  0.00    +0.042 C 
ATOM      6  C   UNL     1      32.885 -12.546 -23.052  0.00  0.00    -0.009 C 
ATOM      7  C   UNL     1      32.336 -13.746 -21.028  0.00  0.00    -0.009 C 
ATOM      8  C   UNL     1      32.241 -11.413 -22.555  0.00  0.00    -0.003 C 
ATOM      9  C   UNL     1      31.691 -12.613 -20.532  0.00  0.00    -0.003 C 
ATOM     10  C   UNL     1      33.515 -12.479 -24.406  0.00  0.00    +0.032 C 
ATOM     11  C   UNL     1      32.370 -14.979 -20.187  0.00  0.00    +0.032 C 
ATOM     12  C   UNL     1      31.644 -11.446 -21.295  0.00  0.00    -0.001 C 
ENDBRANCH   2   5
BRANCH   3  14
ATOM     13  N   UNL     1      34.376 -17.831 -22.578  0.00  0.00    +0.394 N 
ATOM     14  C   UNL     1      35.098 -16.658 -23.101  0.00  0.00    +0.021 C 
ATOM     15  C   UNL     1      34.717 -16.350 -24.556  0.00  0.00    -0.012 C 
ATOM     16  C   UNL     1      34.600 -19.014 -23.429  0.00  0.00    -0.077 C 
ATOM     17  C   UNL     1      34.913 -17.562 -25.457  0.00  0.00    -0.004 C 
ATOM     18  C   UNL     1      34.181 -18.764 -24.878  0.00  0.00    -0.023 C 
ATOM     19  H   UNL     1      33.386 -17.587 -22.582  0.00  0.00    -0.079 HD
BRANCH  13  20
ATOM     20  C   UNL     1      34.775 -18.154 -21.202  0.00  0.00    -0.077 C 
BRANCH  20  21
ATOM     21  C   UNL     1      35.309 -19.583 -21.124  0.00  0.00    -0.023 C 
BRANCH  21  22
ATOM     22  C   UNL     1      34.469 -20.436 -20.174  0.00  0.00    -0.002 C 
ATOM     23  C   UNL     1      32.983 -20.173 -20.355  0.00  0.00    -0.000 C 
ENDBRANCH  21  22
ENDBRANCH  20  21
ENDBRANCH  13  20
ENDBRANCH   3  14
TORSDOF 5
ENDMDL
MODEL 7
REMARK VINA RESULT:      -8.8      2.923      5.254
REMARK  Name = 2474
REMARK  5 active torsions:
REMARK  status: ('A' for Active; 'I' for Inactive)
REMARK    1  A    between atoms: N_2  and  C_5
REMARK    2  A    between atoms: C_3  and  C_14
REMARK    3  A    between atoms: N_13  and  C_20
REMARK    4  A    between atoms: C_20  and  C_21
REMARK    5  A    between atoms: C_21  and  C_22
REMARK                            x       y       z     vdW  Elec       q    Type
REMARK                         _______ _______ _______ _____ _____    ______ ____
ROOT
ATOM      1  O   UNL     1      35.183 -17.326 -20.527  0.00  0.00    -0.277 OA
ATOM      2  N   UNL     1      34.704 -19.441 -21.439  0.00  0.00    -0.286 N 
ATOM      3  C   UNL     1      34.778 -18.054 -21.427  0.00  0.00    +0.207 C 
ATOM      4  H   UNL     1      34.350 -19.851 -22.262  0.00  0.00    +0.155 HD
ENDROOT
BRANCH   2   5
ATOM      5  C   UNL     1      35.076 -20.333 -20.405  0.00  0.00    +0.042 C 
ATOM      6  C   UNL     1      36.415 -20.468 -20.072  0.00  0.00    -0.009 C 
ATOM      7  C   UNL     1      34.095 -21.057 -19.744  0.00  0.00    -0.009 C 
ATOM      8  C   UNL     1      36.782 -21.347 -19.054  0.00  0.00    -0.003 C 
ATOM      9  C   UNL     1      34.463 -21.936 -18.725  0.00  0.00    -0.003 C 
ATOM     10  C   UNL     1      37.485 -19.695 -20.774  0.00  0.00    +0.032 C 
ATOM     11  C   UNL     1      32.648 -20.923 -20.090  0.00  0.00    +0.032 C 
ATOM     12  C   UNL     1      35.806 -22.081 -18.380  0.00  0.00    -0.001 C 
ENDBRANCH   2   5
BRANCH   3  14
ATOM     13  N   UNL     1      34.991 -16.203 -22.961  0.00  0.00    +0.394 N 
ATOM     14  C   UNL     1      34.286 -17.475 -22.719  0.00  0.00    +0.021 C 
ATOM     15  C   UNL     1      34.572 -18.508 -23.818  0.00  0.00    -0.012 C 
ATOM     16  C   UNL     1      34.650 -15.653 -24.285  0.00  0.00    -0.077 C 
ATOM     17  C   UNL     1      34.254 -17.960 -25.202  0.00  0.00    -0.004 C 
ATOM     18  C   UNL     1      34.971 -16.634 -25.413  0.00  0.00    -0.023 C 
ATOM     19  H   UNL     1      35.988 -16.413 -22.922  0.00  0.00    -0.079 HD
BRANCH  13  20
ATOM     20  C   UNL     1      34.681 -15.199 -21.935  0.00  0.00    -0.077 C 
BRANCH  20  21
ATOM     21  C   UNL     1      33.674 -14.183 -22.473  0.00  0.00    -0.023 C 
BRANCH  21  22
ATOM     22  C   UNL     1      32.440 -14.100 -21.574  0.00  0.00    -0.002 C 
ATOM     23  C   UNL     1      32.603 -14.948 -20.323  0.00  0.00    -0.000 C 
ENDBRANCH  21  22
ENDBRANCH  20  21
ENDBRANCH  13  20
ENDBRANCH   3  14
TORSDOF 5
ENDMDL
MODEL 8
REMARK VINA RESULT:      -8.8      2.303      3.659
REMARK  Name = 2474
REMARK  5 active torsions:
REMARK  status: ('A' for Active; 'I' for Inactive)
REMARK    1  A    between atoms: N_2  and  C_5
REMARK    2  A    between atoms: C_3  and  C_14
REMARK    3  A    between atoms: N_13  and  C_20
REMARK    4  A    between atoms: C_20  and  C_21
REMARK    5  A    between atoms: C_21  and  C_22
REMARK                            x       y       z     vdW  Elec       q    Type
REMARK                         _______ _______ _______ _____ _____    ______ ____
ROOT
ATOM      1  O   UNL     1      34.954 -16.421 -20.409  0.00  0.00    -0.277 OA
ATOM      2  N   UNL     1      34.301 -18.268 -21.712  0.00  0.00    -0.286 N 
ATOM      3  C   UNL     1      34.406 -16.921 -21.385  0.00  0.00    +0.207 C 
ATOM      4  H   UNL     1      33.823 -18.477 -22.547  0.00  0.00    +0.155 HD
ENDROOT
BRANCH   2   5
ATOM      5  C   UNL     1      34.803 -19.372 -20.984  0.00  0.00    +0.042 C 
ATOM      6  C   UNL     1      33.918 -20.212 -20.324  0.00  0.00    -0.009 C 
ATOM      7  C   UNL     1      36.171 -19.595 -20.941  0.00  0.00    -0.009 C 
ATOM      8  C   UNL     1      34.412 -21.300 -19.605  0.00  0.00    -0.003 C 
ATOM      9  C   UNL     1      36.665 -20.684 -20.223  0.00  0.00    -0.003 C 
ATOM     10  C   UNL     1      32.441 -19.985 -20.359  0.00  0.00    +0.032 C 
ATOM     11  C   UNL     1      37.138 -18.701 -21.646  0.00  0.00    +0.032 C 
ATOM     12  C   UNL     1      35.786 -21.536 -19.555  0.00  0.00    -0.001 C 
ENDBRANCH   2   5
BRANCH   3  14
ATOM     13  N   UNL     1      33.868 -14.652 -22.005  0.00  0.00    +0.394 N 
ATOM     14  C   UNL     1      33.742 -16.061 -22.418  0.00  0.00    +0.021 C 
ATOM     15  C   UNL     1      34.445 -16.333 -23.755  0.00  0.00    -0.012 C 
ATOM     16  C   UNL     1      33.355 -13.747 -23.048  0.00  0.00    -0.077 C 
ATOM     17  C   UNL     1      33.954 -15.395 -24.849  0.00  0.00    -0.004 C 
ATOM     18  C   UNL     1      34.068 -13.950 -24.385  0.00  0.00    -0.023 C 
ATOM     19  H   UNL     1      34.863 -14.481 -21.860  0.00  0.00    -0.079 HD
BRANCH  13  20
ATOM     20  C   UNL     1      33.157 -14.381 -20.749  0.00  0.00    -0.077 C 
BRANCH  20  21
ATOM     21  C   UNL     1      32.004 -13.409 -20.990  0.00  0.00    -0.023 C 
BRANCH  21  22
ATOM     22  C   UNL     1      32.006 -12.281 -19.958  0.00  0.00    -0.002 C 
ATOM     23  C   UNL     1      31.086 -11.145 -20.373  0.00  0.00    -0.000 C 
ENDBRANCH  21  22
ENDBRANCH  20  21
ENDBRANCH  13  20
ENDBRANCH   3  14
TORSDOF 5
ENDMDL
MODEL 9
REMARK VINA RESULT:      -8.8      2.920      5.243
REMARK  Name = 2474
REMARK  5 active torsions:
REMARK  status: ('A' for Active; 'I' for Inactive)
REMARK    1  A    between atoms: N_2  and  C_5
REMARK    2  A    between atoms: C_3  and  C_14
REMARK    3  A    between atoms: N_13  and  C_20
REMARK    4  A    between atoms: C_20  and  C_21
REMARK    5  A    between atoms: C_21  and  C_22
REMARK                            x       y       z     vdW  Elec       q    Type
REMARK                         _______ _______ _______ _____ _____    ______ ____
ROOT
ATOM      1  O   UNL     1      35.101 -17.332 -20.506  0.00  0.00    -0.277 OA
ATOM      2  N   UNL     1      34.713 -19.452 -21.449  0.00  0.00    -0.286 N 
ATOM      3  C   UNL     1      34.743 -18.063 -21.423  0.00  0.00    +0.207 C 
ATOM      4  H   UNL     1      34.395 -19.865 -22.284  0.00  0.00    +0.155 HD
ENDROOT
BRANCH   2   5
ATOM      5  C   UNL     1      35.087 -20.341 -20.413  0.00  0.00    +0.042 C 
ATOM      6  C   UNL     1      34.109 -21.071 -19.756  0.00  0.00    -0.009 C 
ATOM      7  C   UNL     1      36.426 -20.465 -20.073  0.00  0.00    -0.009 C 
ATOM      8  C   UNL     1      34.477 -21.946 -18.734  0.00  0.00    -0.003 C 
ATOM      9  C   UNL     1      36.794 -21.341 -19.052  0.00  0.00    -0.003 C 
ATOM     10  C   UNL     1      32.662 -20.949 -20.110  0.00  0.00    +0.032 C 
ATOM     11  C   UNL     1      37.492 -19.686 -20.771  0.00  0.00    +0.032 C 
ATOM     12  C   UNL     1      35.820 -22.081 -18.382  0.00  0.00    -0.001 C 
ENDBRANCH   2   5
BRANCH   3  14
ATOM     13  N   UNL     1      34.981 -16.222 -22.965  0.00  0.00    +0.394 N 
ATOM     14  C   UNL     1      34.266 -17.488 -22.723  0.00  0.00    +0.021 C 
ATOM     15  C   UNL     1      34.557 -18.529 -23.813  0.00  0.00    -0.012 C 
ATOM     16  C   UNL     1      34.656 -15.677 -24.295  0.00  0.00    -0.077 C 
ATOM     17  C   UNL     1      34.256 -17.986 -25.204  0.00  0.00    -0.004 C 
ATOM     18  C   UNL     1      34.982 -16.665 -25.415  0.00  0.00    -0.023 C 
ATOM     19  H   UNL     1      35.976 -16.437 -22.915  0.00  0.00    -0.079 HD
BRANCH  13  20
ATOM     20  C   UNL     1      34.667 -15.211 -21.947  0.00  0.00    -0.077 C 
BRANCH  20  21
ATOM     21  C   UNL     1      33.669 -14.194 -22.499  0.00  0.00    -0.023 C 
BRANCH  21  22
ATOM     22  C   UNL     1      32.452 -14.061 -21.584  0.00  0.00    -0.002 C 
ATOM     23  C   UNL     1      32.601 -14.909 -20.331  0.00  0.00    -0.000 C 
ENDBRANCH  21  22
ENDBRANCH  20  21
ENDBRANCH  13  20
ENDBRANCH   3  14
TORSDOF 5
ENDMDL
