MODEL 1
REMARK VINA RESULT:      -7.5      0.000      0.000
REMARK  Name = 54676715
REMARK  10 active torsions:
REMARK  status: ('A' for Active; 'I' for Inactive)
REMARK    1  A    between atoms: C_1  and  C_5
REMARK    2  A    between atoms: C_1  and  C_12
REMARK    3  A    between atoms: C_6  and  O_10
REMARK    4  A    between atoms: C_12  and  C_13
REMARK    5  A    between atoms: C_13  and  C_14
REMARK    6  A    between atoms: C_14  and  C_15
REMARK    7  A    between atoms: C_15  and  C_16
REMARK    8  A    between atoms: C_16  and  C_17
REMARK    9  A    between atoms: C_17  and  C_18
REMARK   10  A    between atoms: C_18  and  C_19
REMARK                            x       y       z     vdW  Elec       q    Type
REMARK                         _______ _______ _______ _____ _____    ______ ____
ROOT
ATOM      1  C   UNL     1      35.118 -19.164 -21.650  0.00  0.00    +0.034 C 
ENDROOT
BRANCH   1   5
ATOM      2  O   UNL     1      36.884 -20.966 -20.025  0.00  0.00    -0.270 OA
ATOM      3  O   UNL     1      32.657 -22.223 -18.746  0.00  0.00    -0.266 OA
ATOM      4  N   UNL     1      34.933 -21.875 -19.130  0.00  0.00    -0.246 N 
ATOM      5  C   UNL     1      34.704 -20.210 -20.670  0.00  0.00    +0.070 C 
ATOM      6  C   UNL     1      33.479 -20.589 -20.286  0.00  0.00    +0.188 C 
ATOM      7  C   UNL     1      35.672 -21.041 -19.924  0.00  0.00    +0.251 C 
ATOM      8  C   UNL     1      33.592 -21.666 -19.289  0.00  0.00    +0.285 C 
ATOM      9  H   UNL     1      35.320 -22.544 -18.520  0.00  0.00    +0.158 HD
BRANCH   6  10
ATOM     10  O   UNL     1      32.289 -20.090 -20.716  0.00  0.00    -0.502 OA
ATOM     11  H   UNL     1      31.705 -20.630 -21.212  0.00  0.00    +0.292 HD
ENDBRANCH   6  10
ENDBRANCH   1   5
BRANCH   1  12
ATOM     12  C   UNL     1      35.324 -17.785 -21.019  0.00  0.00    +0.005 C 
BRANCH  12  13
ATOM     13  C   UNL     1      34.110 -16.863 -21.185  0.00  0.00    +0.000 C 
BRANCH  13  14
ATOM     14  C   UNL     1      34.435 -15.435 -20.739  0.00  0.00    +0.000 C 
BRANCH  14  15
ATOM     15  C   UNL     1      34.155 -14.429 -21.857  0.00  0.00    +0.000 C 
BRANCH  15  16
ATOM     16  C   UNL     1      34.586 -14.919 -23.242  0.00  0.00    +0.000 C 
BRANCH  16  17
ATOM     17  C   UNL     1      33.477 -15.007 -24.295  0.00  0.00    +0.000 C 
BRANCH  17  18
ATOM     18  C   UNL     1      33.795 -15.976 -25.436  0.00  0.00    +0.000 C 
BRANCH  18  19
ATOM     19  C   UNL     1      34.849 -17.000 -25.013  0.00  0.00    +0.000 C 
ATOM     20  C   UNL     1      34.305 -18.419 -25.076  0.00  0.00    +0.000 C 
ENDBRANCH  18  19
ENDBRANCH  17  18
ENDBRANCH  16  17
ENDBRANCH  15  16
ENDBRANCH  14  15
ENDBRANCH  13  14
ENDBRANCH  12  13
ENDBRANCH   1  12
TORSDOF 10
ENDMDL
MODEL 2
REMARK VINA RESULT:      -7.5      0.844      2.633
REMARK  Name = 54676715
REMARK  10 active torsions:
REMARK  status: ('A' for Active; 'I' for Inactive)
REMARK    1  A    between atoms: C_1  and  C_5
REMARK    2  A    between atoms: C_1  and  C_12
REMARK    3  A    between atoms: C_6  and  O_10
REMARK    4  A    between atoms: C_12  and  C_13
REMARK    5  A    between atoms: C_13  and  C_14
REMARK    6  A    between atoms: C_14  and  C_15
REMARK    7  A    between atoms: C_15  and  C_16
REMARK    8  A    between atoms: C_16  and  C_17
REMARK    9  A    between atoms: C_17  and  C_18
REMARK   10  A    between atoms: C_18  and  C_19
REMARK                            x       y       z     vdW  Elec       q    Type
REMARK                         _______ _______ _______ _____ _____    ______ ____
ROOT
ATOM      1  C   UNL     1      35.136 -19.240 -21.220  0.00  0.00    +0.034 C 
ENDROOT
BRANCH   1   5
ATOM      2  O   UNL     1      36.863 -21.366 -19.994  0.00  0.00    -0.270 OA
ATOM      3  O   UNL     1      32.651 -22.485 -18.548  0.00  0.00    -0.266 OA
ATOM      4  N   UNL     1      34.915 -22.250 -19.068  0.00  0.00    -0.246 N 
ATOM      5  C   UNL     1      34.710 -20.378 -20.354  0.00  0.00    +0.070 C 
ATOM      6  C   UNL     1      33.490 -20.719 -19.924  0.00  0.00    +0.188 C 
ATOM      7  C   UNL     1      35.659 -21.369 -19.805  0.00  0.00    +0.251 C 
ATOM      8  C   UNL     1      33.587 -21.926 -19.089  0.00  0.00    +0.285 C 
ATOM      9  H   UNL     1      35.289 -23.021 -18.584  0.00  0.00    +0.158 HD
BRANCH   6  10
ATOM     10  O   UNL     1      32.316 -20.083 -20.186  0.00  0.00    -0.502 OA
ATOM     11  H   UNL     1      32.319 -19.245 -20.605  0.00  0.00    +0.292 HD
ENDBRANCH   6  10
ENDBRANCH   1   5
BRANCH   1  12
ATOM     12  C   UNL     1      34.536 -19.286 -22.627  0.00  0.00    +0.005 C 
BRANCH  12  13
ATOM     13  C   UNL     1      35.351 -18.489 -23.652  0.00  0.00    +0.000 C 
BRANCH  13  14
ATOM     14  C   UNL     1      34.559 -18.276 -24.944  0.00  0.00    +0.000 C 
BRANCH  14  15
ATOM     15  C   UNL     1      34.224 -16.797 -25.152  0.00  0.00    +0.000 C 
BRANCH  15  16
ATOM     16  C   UNL     1      34.879 -15.873 -24.122  0.00  0.00    +0.000 C 
BRANCH  16  17
ATOM     17  C   UNL     1      33.924 -14.980 -23.323  0.00  0.00    +0.000 C 
BRANCH  17  18
ATOM     18  C   UNL     1      34.438 -14.639 -21.922  0.00  0.00    +0.000 C 
BRANCH  18  19
ATOM     19  C   UNL     1      34.026 -15.707 -20.908  0.00  0.00    +0.000 C 
ATOM     20  C   UNL     1      32.514 -15.785 -20.764  0.00  0.00    +0.000 C 
ENDBRANCH  18  19
ENDBRANCH  17  18
ENDBRANCH  16  17
ENDBRANCH  15  16
ENDBRANCH  14  15
ENDBRANCH  13  14
ENDBRANCH  12  13
ENDBRANCH   1  12
TORSDOF 10
ENDMDL
MODEL 3
REMARK VINA RESULT:      -7.5      0.983      3.119
REMARK  Name = 54676715
REMARK  10 active torsions:
REMARK  status: ('A' for Active; 'I' for Inactive)
REMARK    1  A    between atoms: C_1  and  C_5
REMARK    2  A    between atoms: C_1  and  C_12
REMARK    3  A    between atoms: C_6  and  O_10
REMARK    4  A    between atoms: C_12  and  C_13
REMARK    5  A    between atoms: C_13  and  C_14
REMARK    6  A    between atoms: C_14  and  C_15
REMARK    7  A    between atoms: C_15  and  C_16
REMARK    8  A    between atoms: C_16  and  C_17
REMARK    9  A    between atoms: C_17  and  C_18
REMARK   10  A    between atoms: C_18  and  C_19
REMARK                            x       y       z     vdW  Elec       q    Type
REMARK                         _______ _______ _______ _____ _____    ______ ____
ROOT
ATOM      1  C   UNL     1      35.092 -19.334 -21.197  0.00  0.00    +0.034 C 
ENDROOT
BRANCH   1   5
ATOM      2  O   UNL     1      32.229 -20.048 -20.650  0.00  0.00    -0.270 OA
ATOM      3  O   UNL     1      34.562 -23.160 -18.208  0.00  0.00    -0.266 OA
ATOM      4  N   UNL     1      33.038 -21.768 -19.301  0.00  0.00    -0.246 N 
ATOM      5  C   UNL     1      34.572 -20.436 -20.335  0.00  0.00    +0.070 C 
ATOM      6  C   UNL     1      35.236 -21.350 -19.618  0.00  0.00    +0.188 C 
ATOM      7  C   UNL     1      33.130 -20.693 -20.142  0.00  0.00    +0.251 C 
ATOM      8  C   UNL     1      34.272 -22.228 -18.936  0.00  0.00    +0.285 C 
ATOM      9  H   UNL     1      32.189 -22.162 -18.997  0.00  0.00    +0.158 HD
BRANCH   6  10
ATOM     10  O   UNL     1      36.584 -21.489 -19.504  0.00  0.00    -0.502 OA
ATOM     11  H   UNL     1      36.959 -22.337 -19.366  0.00  0.00    +0.292 HD
ENDBRANCH   6  10
ENDBRANCH   1   5
BRANCH   1  12
ATOM     12  C   UNL     1      34.519 -19.346 -22.616  0.00  0.00    +0.005 C 
BRANCH  12  13
ATOM     13  C   UNL     1      35.371 -18.555 -23.613  0.00  0.00    +0.000 C 
BRANCH  13  14
ATOM     14  C   UNL     1      34.545 -18.121 -24.826  0.00  0.00    +0.000 C 
BRANCH  14  15
ATOM     15  C   UNL     1      34.886 -16.690 -25.246  0.00  0.00    +0.000 C 
BRANCH  15  16
ATOM     16  C   UNL     1      33.656 -15.795 -25.423  0.00  0.00    +0.000 C 
BRANCH  16  17
ATOM     17  C   UNL     1      33.416 -14.761 -24.319  0.00  0.00    +0.000 C 
BRANCH  17  18
ATOM     18  C   UNL     1      34.379 -14.897 -23.137  0.00  0.00    +0.000 C 
BRANCH  18  19
ATOM     19  C   UNL     1      33.651 -15.385 -21.884  0.00  0.00    +0.000 C 
ATOM     20  C   UNL     1      34.628 -15.744 -20.776  0.00  0.00    +0.000 C 
ENDBRANCH  18  19
ENDBRANCH  17  18
ENDBRANCH  16  17
ENDBRANCH  15  16
ENDBRANCH  14  15
ENDBRANCH  13  14
ENDBRANCH  12  13
ENDBRANCH   1  12
TORSDOF 10
ENDMDL
MODEL 4
REMARK VINA RESULT:      -7.3      6.161      8.473
REMARK  Name = 54676715
REMARK  10 active torsions:
REMARK  status: ('A' for Active; 'I' for Inactive)
REMARK    1  A    between atoms: C_1  and  C_5
REMARK    2  A    between atoms: C_1  and  C_12
REMARK    3  A    between atoms: C_6  and  O_10
REMARK    4  A    between atoms: C_12  and  C_13
REMARK    5  A    between atoms: C_13  and  C_14
REMARK    6  A    between atoms: C_14  and  C_15
REMARK    7  A    between atoms: C_15  and  C_16
REMARK    8  A    between atoms: C_16  and  C_17
REMARK    9  A    between atoms: C_17  and  C_18
REMARK   10  A    between atoms: C_18  and  C_19
REMARK                            x       y       z     vdW  Elec       q    Type
REMARK                         _______ _______ _______ _____ _____    ______ ____
ROOT
ATOM      1  C   UNL     1      35.923 -23.209 -14.221  0.00  0.00    +0.034 C 
ENDROOT
BRANCH   1   5
ATOM      2  O   UNL     1      37.974 -22.236 -12.259  0.00  0.00    -0.270 OA
ATOM      3  O   UNL     1      35.281 -24.932  -9.697  0.00  0.00    -0.266 OA
ATOM      4  N   UNL     1      36.863 -23.503 -10.648  0.00  0.00    -0.246 N 
ATOM      5  C   UNL     1      36.026 -23.535 -12.768  0.00  0.00    +0.070 C 
ATOM      6  C   UNL     1      35.253 -24.318 -12.007  0.00  0.00    +0.188 C 
ATOM      7  C   UNL     1      37.088 -22.991 -11.896  0.00  0.00    +0.251 C 
ATOM      8  C   UNL     1      35.766 -24.318 -10.628  0.00  0.00    +0.285 C 
ATOM      9  H   UNL     1      37.421 -23.308  -9.861  0.00  0.00    +0.158 HD
BRANCH   6  10
ATOM     10  O   UNL     1      34.154 -25.020 -12.396  0.00  0.00    -0.502 OA
ATOM     11  H   UNL     1      33.339 -24.902 -11.950  0.00  0.00    +0.292 HD
ENDBRANCH   6  10
ENDBRANCH   1   5
BRANCH   1  12
ATOM     12  C   UNL     1      36.891 -24.008 -15.096  0.00  0.00    +0.005 C 
BRANCH  12  13
ATOM     13  C   UNL     1      37.806 -23.118 -15.944  0.00  0.00    +0.000 C 
BRANCH  13  14
ATOM     14  C   UNL     1      37.288 -21.678 -15.992  0.00  0.00    +0.000 C 
BRANCH  14  15
ATOM     15  C   UNL     1      37.144 -21.189 -17.435  0.00  0.00    +0.000 C 
BRANCH  15  16
ATOM     16  C   UNL     1      36.048 -21.915 -18.219  0.00  0.00    +0.000 C 
BRANCH  16  17
ATOM     17  C   UNL     1      36.072 -21.721 -19.739  0.00  0.00    +0.000 C 
BRANCH  17  18
ATOM     18  C   UNL     1      35.144 -20.606 -20.226  0.00  0.00    +0.000 C 
BRANCH  18  19
ATOM     19  C   UNL     1      33.682 -20.928 -19.913  0.00  0.00    +0.000 C 
ATOM     20  C   UNL     1      32.741 -19.917 -20.549  0.00  0.00    +0.000 C 
ENDBRANCH  18  19
ENDBRANCH  17  18
ENDBRANCH  16  17
ENDBRANCH  15  16
ENDBRANCH  14  15
ENDBRANCH  13  14
ENDBRANCH  12  13
ENDBRANCH   1  12
TORSDOF 10
ENDMDL
MODEL 5
REMARK VINA RESULT:      -7.2      3.592      7.675
REMARK  Name = 54676715
REMARK  10 active torsions:
REMARK  status: ('A' for Active; 'I' for Inactive)
REMARK    1  A    between atoms: C_1  and  C_5
REMARK    2  A    between atoms: C_1  and  C_12
REMARK    3  A    between atoms: C_6  and  O_10
REMARK    4  A    between atoms: C_12  and  C_13
REMARK    5  A    between atoms: C_13  and  C_14
REMARK    6  A    between atoms: C_14  and  C_15
REMARK    7  A    between atoms: C_15  and  C_16
REMARK    8  A    between atoms: C_16  and  C_17
REMARK    9  A    between atoms: C_17  and  C_18
REMARK   10  A    between atoms: C_18  and  C_19
REMARK                            x       y       z     vdW  Elec       q    Type
REMARK                         _______ _______ _______ _____ _____    ______ ____
ROOT
ATOM      1  C   UNL     1      34.831 -18.994 -21.400  0.00  0.00    +0.034 C 
ENDROOT
BRANCH   1   5
ATOM      2  O   UNL     1      34.902 -15.999 -21.227  0.00  0.00    -0.270 OA
ATOM      3  O   UNL     1      34.868 -16.780 -25.752  0.00  0.00    -0.266 OA
ATOM      4  N   UNL     1      34.894 -15.982 -23.558  0.00  0.00    -0.246 N 
ATOM      5  C   UNL     1      34.849 -18.013 -22.524  0.00  0.00    +0.070 C 
ATOM      6  C   UNL     1      34.839 -18.222 -23.846  0.00  0.00    +0.188 C 
ATOM      7  C   UNL     1      34.885 -16.551 -22.314  0.00  0.00    +0.251 C 
ATOM      8  C   UNL     1      34.868 -16.928 -24.544  0.00  0.00    +0.285 C 
ATOM      9  H   UNL     1      34.916 -15.012 -23.723  0.00  0.00    +0.158 HD
BRANCH   6  10
ATOM     10  O   UNL     1      34.809 -19.420 -24.491  0.00  0.00    -0.502 OA
ATOM     11  H   UNL     1      34.079 -19.996 -24.378  0.00  0.00    +0.292 HD
ENDBRANCH   6  10
ENDBRANCH   1   5
BRANCH   1  12
ATOM     12  C   UNL     1      33.453 -19.612 -21.151  0.00  0.00    +0.005 C 
BRANCH  12  13
ATOM     13  C   UNL     1      33.452 -20.632 -20.008  0.00  0.00    +0.000 C 
BRANCH  13  14
ATOM     14  C   UNL     1      34.854 -21.197 -19.768  0.00  0.00    +0.000 C 
BRANCH  14  15
ATOM     15  C   UNL     1      34.866 -22.168 -18.586  0.00  0.00    +0.000 C 
BRANCH  15  16
ATOM     16  C   UNL     1      33.548 -22.928 -18.406  0.00  0.00    +0.000 C 
BRANCH  16  17
ATOM     17  C   UNL     1      33.140 -23.226 -16.960  0.00  0.00    +0.000 C 
BRANCH  17  18
ATOM     18  C   UNL     1      31.649 -23.010 -16.690  0.00  0.00    +0.000 C 
BRANCH  18  19
ATOM     19  C   UNL     1      31.227 -23.657 -15.371  0.00  0.00    +0.000 C 
ATOM     20  C   UNL     1      31.717 -22.857 -14.175  0.00  0.00    +0.000 C 
ENDBRANCH  18  19
ENDBRANCH  17  18
ENDBRANCH  16  17
ENDBRANCH  15  16
ENDBRANCH  14  15
ENDBRANCH  13  14
ENDBRANCH  12  13
ENDBRANCH   1  12
TORSDOF 10
ENDMDL
MODEL 6
REMARK VINA RESULT:      -7.2      4.209      7.150
REMARK  Name = 54676715
REMARK  10 active torsions:
REMARK  status: ('A' for Active; 'I' for Inactive)
REMARK    1  A    between atoms: C_1  and  C_5
REMARK    2  A    between atoms: C_1  and  C_12
REMARK    3  A    between atoms: C_6  and  O_10
REMARK    4  A    between atoms: C_12  and  C_13
REMARK    5  A    between atoms: C_13  and  C_14
REMARK    6  A    between atoms: C_14  and  C_15
REMARK    7  A    between atoms: C_15  and  C_16
REMARK    8  A    between atoms: C_16  and  C_17
REMARK    9  A    between atoms: C_17  and  C_18
REMARK   10  A    between atoms: C_18  and  C_19
REMARK                            x       y       z     vdW  Elec       q    Type
REMARK                         _______ _______ _______ _____ _____    ______ ____
ROOT
ATOM      1  C   UNL     1      34.446 -15.095 -23.534  0.00  0.00    +0.034 C 
ENDROOT
BRANCH   1   5
ATOM      2  O   UNL     1      32.217 -15.264 -21.533  0.00  0.00    -0.270 OA
ATOM      3  O   UNL     1      32.152 -10.848 -22.792  0.00  0.00    -0.266 OA
ATOM      4  N   UNL     1      31.867 -12.990 -21.905  0.00  0.00    -0.246 N 
ATOM      5  C   UNL     1      33.545 -13.998 -23.074  0.00  0.00    +0.070 C 
ATOM      6  C   UNL     1      33.511 -12.709 -23.429  0.00  0.00    +0.188 C 
ATOM      7  C   UNL     1      32.475 -14.204 -22.075  0.00  0.00    +0.251 C 
ATOM      8  C   UNL     1      32.437 -12.027 -22.691  0.00  0.00    +0.285 C 
ATOM      9  H   UNL     1      31.113 -12.829 -21.293  0.00  0.00    +0.158 HD
BRANCH   6  10
ATOM     10  O   UNL     1      34.320 -12.079 -24.324  0.00  0.00    -0.502 OA
ATOM     11  H   UNL     1      34.020 -11.920 -25.197  0.00  0.00    +0.292 HD
ENDBRANCH   6  10
ENDBRANCH   1   5
BRANCH   1  12
ATOM     12  C   UNL     1      33.896 -15.877 -24.729  0.00  0.00    +0.005 C 
BRANCH  12  13
ATOM     13  C   UNL     1      34.779 -17.064 -25.127  0.00  0.00    +0.000 C 
BRANCH  13  14
ATOM     14  C   UNL     1      34.579 -18.247 -24.176  0.00  0.00    +0.000 C 
BRANCH  14  15
ATOM     15  C   UNL     1      35.794 -18.439 -23.267  0.00  0.00    +0.000 C 
BRANCH  15  16
ATOM     16  C   UNL     1      35.547 -18.009 -21.818  0.00  0.00    +0.000 C 
BRANCH  16  17
ATOM     17  C   UNL     1      34.276 -18.559 -21.165  0.00  0.00    +0.000 C 
BRANCH  17  18
ATOM     18  C   UNL     1      34.329 -20.067 -20.902  0.00  0.00    +0.000 C 
BRANCH  18  19
ATOM     19  C   UNL     1      33.119 -20.529 -20.090  0.00  0.00    +0.000 C 
ATOM     20  C   UNL     1      33.446 -21.755 -19.251  0.00  0.00    +0.000 C 
ENDBRANCH  18  19
ENDBRANCH  17  18
ENDBRANCH  16  17
ENDBRANCH  15  16
ENDBRANCH  14  15
ENDBRANCH  13  14
ENDBRANCH  12  13
ENDBRANCH   1  12
TORSDOF 10
ENDMDL
MODEL 7
REMARK VINA RESULT:      -7.2      5.746      8.440
REMARK  Name = 54676715
REMARK  10 active torsions:
REMARK  status: ('A' for Active; 'I' for Inactive)
REMARK    1  A    between atoms: C_1  and  C_5
REMARK    2  A    between atoms: C_1  and  C_12
REMARK    3  A    between atoms: C_6  and  O_10
REMARK    4  A    between atoms: C_12  and  C_13
REMARK    5  A    between atoms: C_13  and  C_14
REMARK    6  A    between atoms: C_14  and  C_15
REMARK    7  A    between atoms: C_15  and  C_16
REMARK    8  A    between atoms: C_16  and  C_17
REMARK    9  A    between atoms: C_17  and  C_18
REMARK   10  A    between atoms: C_18  and  C_19
REMARK                            x       y       z     vdW  Elec       q    Type
REMARK                         _______ _______ _______ _____ _____    ______ ____
ROOT
ATOM      1  C   UNL     1      36.089 -24.187 -13.793  0.00  0.00    +0.034 C 
ENDROOT
BRANCH   1   5
ATOM      2  O   UNL     1      37.255 -26.325 -12.040  0.00  0.00    -0.270 OA
ATOM      3  O   UNL     1      40.672 -25.399 -14.966  0.00  0.00    -0.266 OA
ATOM      4  N   UNL     1      39.199 -26.145 -13.315  0.00  0.00    -0.246 N 
ATOM      5  C   UNL     1      37.452 -24.789 -13.869  0.00  0.00    +0.070 C 
ATOM      6  C   UNL     1      38.459 -24.532 -14.712  0.00  0.00    +0.188 C 
ATOM      7  C   UNL     1      37.917 -25.844 -12.944  0.00  0.00    +0.251 C 
ATOM      8  C   UNL     1      39.605 -25.393 -14.381  0.00  0.00    +0.285 C 
ATOM      9  H   UNL     1      39.760 -26.820 -12.869  0.00  0.00    +0.158 HD
BRANCH   6  10
ATOM     10  O   UNL     1      38.470 -23.630 -15.731  0.00  0.00    -0.502 OA
ATOM     11  H   UNL     1      38.569 -23.922 -16.616  0.00  0.00    +0.292 HD
ENDBRANCH   6  10
ENDBRANCH   1   5
BRANCH   1  12
ATOM     12  C   UNL     1      35.145 -24.674 -14.895  0.00  0.00    +0.005 C 
BRANCH  12  13
ATOM     13  C   UNL     1      34.188 -23.583 -15.389  0.00  0.00    +0.000 C 
BRANCH  13  14
ATOM     14  C   UNL     1      34.560 -23.119 -16.800  0.00  0.00    +0.000 C 
BRANCH  14  15
ATOM     15  C   UNL     1      33.319 -22.994 -17.686  0.00  0.00    +0.000 C 
BRANCH  15  16
ATOM     16  C   UNL     1      33.548 -22.148 -18.942  0.00  0.00    +0.000 C 
BRANCH  16  17
ATOM     17  C   UNL     1      35.006 -21.808 -19.262  0.00  0.00    +0.000 C 
BRANCH  17  18
ATOM     18  C   UNL     1      35.158 -20.666 -20.271  0.00  0.00    +0.000 C 
BRANCH  18  19
ATOM     19  C   UNL     1      33.806 -20.031 -20.594  0.00  0.00    +0.000 C 
ATOM     20  C   UNL     1      33.971 -18.718 -21.343  0.00  0.00    +0.000 C 
ENDBRANCH  18  19
ENDBRANCH  17  18
ENDBRANCH  16  17
ENDBRANCH  15  16
ENDBRANCH  14  15
ENDBRANCH  13  14
ENDBRANCH  12  13
ENDBRANCH   1  12
TORSDOF 10
ENDMDL
MODEL 8
REMARK VINA RESULT:      -7.1      3.464      7.562
REMARK  Name = 54676715
REMARK  10 active torsions:
REMARK  status: ('A' for Active; 'I' for Inactive)
REMARK    1  A    between atoms: C_1  and  C_5
REMARK    2  A    between atoms: C_1  and  C_12
REMARK    3  A    between atoms: C_6  and  O_10
REMARK    4  A    between atoms: C_12  and  C_13
REMARK    5  A    between atoms: C_13  and  C_14
REMARK    6  A    between atoms: C_14  and  C_15
REMARK    7  A    between atoms: C_15  and  C_16
REMARK    8  A    between atoms: C_16  and  C_17
REMARK    9  A    between atoms: C_17  and  C_18
REMARK   10  A    between atoms: C_18  and  C_19
REMARK                            x       y       z     vdW  Elec       q    Type
REMARK                         _______ _______ _______ _____ _____    ______ ____
ROOT
ATOM      1  C   UNL     1      34.922 -19.565 -21.081  0.00  0.00    +0.034 C 
ENDROOT
BRANCH   1   5
ATOM      2  O   UNL     1      35.004 -19.615 -24.080  0.00  0.00    -0.270 OA
ATOM      3  O   UNL     1      35.136 -15.128 -23.109  0.00  0.00    -0.266 OA
ATOM      4  N   UNL     1      35.086 -17.286 -23.999  0.00  0.00    -0.246 N 
ATOM      5  C   UNL     1      34.991 -18.403 -22.013  0.00  0.00    +0.070 C 
ATOM      6  C   UNL     1      35.030 -17.092 -21.749  0.00  0.00    +0.188 C 
ATOM      7  C   UNL     1      35.026 -18.552 -23.483  0.00  0.00    +0.251 C 
ATOM      8  C   UNL     1      35.092 -16.341 -23.012  0.00  0.00    +0.285 C 
ATOM      9  H   UNL     1      35.120 -17.082 -24.961  0.00  0.00    +0.158 HD
BRANCH   6  10
ATOM     10  O   UNL     1      35.016 -16.497 -20.525  0.00  0.00    -0.502 OA
ATOM     11  H   UNL     1      34.852 -15.577 -20.452  0.00  0.00    +0.292 HD
ENDBRANCH   6  10
ENDBRANCH   1   5
BRANCH   1  12
ATOM     12  C   UNL     1      33.498 -19.907 -20.635  0.00  0.00    +0.005 C 
BRANCH  12  13
ATOM     13  C   UNL     1      33.424 -21.186 -19.795  0.00  0.00    +0.000 C 
BRANCH  13  14
ATOM     14  C   UNL     1      34.822 -21.730 -19.490  0.00  0.00    +0.000 C 
BRANCH  14  15
ATOM     15  C   UNL     1      34.852 -22.459 -18.145  0.00  0.00    +0.000 C 
BRANCH  15  16
ATOM     16  C   UNL     1      33.465 -22.871 -17.643  0.00  0.00    +0.000 C 
BRANCH  16  17
ATOM     17  C   UNL     1      33.403 -23.396 -16.206  0.00  0.00    +0.000 C 
BRANCH  17  18
ATOM     18  C   UNL     1      31.978 -23.502 -15.657  0.00  0.00    +0.000 C 
BRANCH  18  19
ATOM     19  C   UNL     1      30.972 -22.838 -16.597  0.00  0.00    +0.000 C 
ATOM     20  C   UNL     1      29.569 -22.850 -16.012  0.00  0.00    +0.000 C 
ENDBRANCH  18  19
ENDBRANCH  17  18
ENDBRANCH  16  17
ENDBRANCH  15  16
ENDBRANCH  14  15
ENDBRANCH  13  14
ENDBRANCH  12  13
ENDBRANCH   1  12
TORSDOF 10
ENDMDL
MODEL 9
REMARK VINA RESULT:      -7.1      3.247      6.410
REMARK  Name = 54676715
REMARK  10 active torsions:
REMARK  status: ('A' for Active; 'I' for Inactive)
REMARK    1  A    between atoms: C_1  and  C_5
REMARK    2  A    between atoms: C_1  and  C_12
REMARK    3  A    between atoms: C_6  and  O_10
REMARK    4  A    between atoms: C_12  and  C_13
REMARK    5  A    between atoms: C_13  and  C_14
REMARK    6  A    between atoms: C_14  and  C_15
REMARK    7  A    between atoms: C_15  and  C_16
REMARK    8  A    between atoms: C_16  and  C_17
REMARK    9  A    between atoms: C_17  and  C_18
REMARK   10  A    between atoms: C_18  and  C_19
REMARK                            x       y       z     vdW  Elec       q    Type
REMARK                         _______ _______ _______ _____ _____    ______ ____
ROOT
ATOM      1  C   UNL     1      35.280 -16.468 -23.347  0.00  0.00    +0.034 C 
ENDROOT
BRANCH   1   5
ATOM      2  O   UNL     1      35.087 -16.368 -20.354  0.00  0.00    -0.270 OA
ATOM      3  O   UNL     1      31.981 -13.265 -21.701  0.00  0.00    -0.266 OA
ATOM      4  N   UNL     1      33.443 -14.739 -20.632  0.00  0.00    -0.246 N 
ATOM      5  C   UNL     1      34.384 -15.612 -22.516  0.00  0.00    +0.070 C 
ATOM      6  C   UNL     1      33.475 -14.705 -22.890  0.00  0.00    +0.188 C 
ATOM      7  C   UNL     1      34.379 -15.650 -21.038  0.00  0.00    +0.251 C 
ATOM      8  C   UNL     1      32.847 -14.121 -21.695  0.00  0.00    +0.285 C 
ATOM      9  H   UNL     1      33.225 -14.553 -19.690  0.00  0.00    +0.158 HD
BRANCH   6  10
ATOM     10  O   UNL     1      33.147 -14.342 -24.160  0.00  0.00    -0.502 OA
ATOM     11  H   UNL     1      32.991 -14.998 -24.810  0.00  0.00    +0.292 HD
ENDBRANCH   6  10
ENDBRANCH   1   5
BRANCH   1  12
ATOM     12  C   UNL     1      34.525 -17.376 -24.321  0.00  0.00    +0.005 C 
BRANCH  12  13
ATOM     13  C   UNL     1      34.877 -18.858 -24.154  0.00  0.00    +0.000 C 
BRANCH  13  14
ATOM     14  C   UNL     1      35.186 -19.193 -22.693  0.00  0.00    +0.000 C 
BRANCH  14  15
ATOM     15  C   UNL     1      33.905 -19.484 -21.909  0.00  0.00    +0.000 C 
BRANCH  15  16
ATOM     16  C   UNL     1      34.153 -19.820 -20.436  0.00  0.00    +0.000 C 
BRANCH  16  17
ATOM     17  C   UNL     1      33.442 -21.069 -19.905  0.00  0.00    +0.000 C 
BRANCH  17  18
ATOM     18  C   UNL     1      34.371 -22.029 -19.158  0.00  0.00    +0.000 C 
BRANCH  18  19
ATOM     19  C   UNL     1      35.839 -21.658 -19.376  0.00  0.00    +0.000 C 
ATOM     20  C   UNL     1      36.615 -21.664 -18.068  0.00  0.00    +0.000 C 
ENDBRANCH  18  19
ENDBRANCH  17  18
ENDBRANCH  16  17
ENDBRANCH  15  16
ENDBRANCH  14  15
ENDBRANCH  13  14
ENDBRANCH  12  13
ENDBRANCH   1  12
TORSDOF 10
ENDMDL
