MODEL 1
REMARK VINA RESULT:      -8.4      0.000      0.000
REMARK  Name = 5287902
REMARK  7 active torsions:
REMARK  status: ('A' for Active; 'I' for Inactive)
REMARK    1  A    between atoms: CA_1  and  C_4
REMARK    2  A    between atoms: CA_1  and  N_15
REMARK    3  A    between atoms: CA_1  and  C_25
REMARK    4  A    between atoms: CA_7  and  C_11
REMARK    5  A    between atoms: C_11  and  O_12
REMARK    6  A    between atoms: C_16  and  C_18
REMARK    7  A    between atoms: C_18  and  C_20
REMARK                            x       y       z     vdW  Elec       q    Type
REMARK                         _______ _______ _______ _____ _____    ______ ____
ROOT
ATOM      1  CA  UNL     1      34.525 -23.784 -14.286  0.00  0.00    +0.165 C 
ENDROOT
BRANCH   1   4
ATOM      2  S   UNL     1      36.839 -23.055 -15.546  0.00  0.00    -0.115 S 
ATOM      3  N   UNL     1      34.336 -22.886 -16.539  0.00  0.00    -0.320 N 
ATOM      4  C   UNL     1      35.060 -22.769 -15.288  0.00  0.00    +0.144 C 
ATOM      5  C   UNL     1      37.086 -21.891 -16.917  0.00  0.00    +0.083 C 
ATOM      6  C   UNL     1      36.032 -21.972 -18.006  0.00  0.00    -0.014 C 
ATOM      7  CA  UNL     1      34.792 -22.458 -17.768  0.00  0.00    +0.115 C 
ATOM      8  C   UNL     1      36.526 -21.432 -19.326  0.00  0.00    +0.029 C 
ATOM      9  H   UNL     1      33.446 -23.307 -16.508  0.00  0.00    +0.148 HD
BRANCH   7  11
ATOM     10  OXT UNL     1      33.012 -21.718 -19.159  0.00  0.00    -0.244 OA
ATOM     11  C   UNL     1      33.808 -22.582 -18.858  0.00  0.00    +0.351 C 
BRANCH  11  12
ATOM     12  O   UNL     1      33.945 -23.787 -19.444  0.00  0.00    -0.476 OA
ATOM     13  H   UNL     1      34.800 -24.120 -19.639  0.00  0.00    +0.295 HD
ENDBRANCH  11  12
ENDBRANCH   7  11
ENDBRANCH   1   4
BRANCH   1  15
ATOM     14  O   UNL     1      32.308 -25.613 -14.160  0.00  0.00    -0.275 OA
ATOM     15  N   UNL     1      33.178 -23.475 -13.903  0.00  0.00    -0.297 N 
ATOM     16  C   UNL     1      32.165 -24.427 -13.871  0.00  0.00    +0.228 C 
ATOM     17  H   UNL     1      32.960 -22.548 -13.651  0.00  0.00    +0.150 HD
BRANCH  16  18
ATOM     18  C   UNL     1      30.830 -23.869 -13.418  0.00  0.00    +0.118 C 
BRANCH  18  20
ATOM     19  S   UNL     1      28.992 -24.873 -15.214  0.00  0.00    -0.090 S 
ATOM     20  C   UNL     1      29.969 -23.613 -14.623  0.00  0.00    +0.016 C 
ATOM     21  C   UNL     1      29.859 -22.458 -15.340  0.00  0.00    +0.003 C 
ATOM     22  C   UNL     1      28.939 -22.604 -16.417  0.00  0.00    +0.007 C 
ATOM     23  C   UNL     1      28.395 -23.869 -16.465  0.00  0.00    +0.035 C 
ENDBRANCH  18  20
ENDBRANCH  16  18
ENDBRANCH   1  15
BRANCH   1  25
ATOM     24  O   UNL     1      34.877 -23.792 -11.897  0.00  0.00    -0.286 OA
ATOM     25  C   UNL     1      35.357 -23.816 -13.027  0.00  0.00    +0.229 C 
ENDBRANCH   1  25
TORSDOF 7
ENDMDL
MODEL 2
REMARK VINA RESULT:      -8.1      3.074      6.281
REMARK  Name = 5287902
REMARK  7 active torsions:
REMARK  status: ('A' for Active; 'I' for Inactive)
REMARK    1  A    between atoms: CA_1  and  C_4
REMARK    2  A    between atoms: CA_1  and  N_15
REMARK    3  A    between atoms: CA_1  and  C_25
REMARK    4  A    between atoms: CA_7  and  C_11
REMARK    5  A    between atoms: C_11  and  O_12
REMARK    6  A    between atoms: C_16  and  C_18
REMARK    7  A    between atoms: C_18  and  C_20
REMARK                            x       y       z     vdW  Elec       q    Type
REMARK                         _______ _______ _______ _____ _____    ______ ____
ROOT
ATOM      1  CA  UNL     1      33.971 -23.337 -16.745  0.00  0.00    +0.165 C 
ENDROOT
BRANCH   1   4
ATOM      2  S   UNL     1      33.602 -24.286 -14.209  0.00  0.00    -0.115 S 
ATOM      3  N   UNL     1      35.951 -24.020 -15.509  0.00  0.00    -0.320 N 
ATOM      4  C   UNL     1      34.656 -23.381 -15.385  0.00  0.00    +0.144 C 
ATOM      5  C   UNL     1      34.776 -24.363 -12.826  0.00  0.00    +0.083 C 
ATOM      6  C   UNL     1      36.182 -24.777 -13.220  0.00  0.00    -0.014 C 
ATOM      7  CA  UNL     1      36.653 -24.607 -14.476  0.00  0.00    +0.115 C 
ATOM      8  C   UNL     1      36.959 -25.350 -12.060  0.00  0.00    +0.029 C 
ATOM      9  H   UNL     1      36.363 -24.038 -16.403  0.00  0.00    +0.148 HD
BRANCH   7  11
ATOM     10  OXT UNL     1      39.018 -24.442 -14.651  0.00  0.00    -0.244 OA
ATOM     11  C   UNL     1      38.001 -25.074 -14.847  0.00  0.00    +0.351 C 
BRANCH  11  12
ATOM     12  O   UNL     1      37.908 -26.288 -15.422  0.00  0.00    -0.476 OA
ATOM     13  H   UNL     1      37.113 -26.546 -15.846  0.00  0.00    +0.295 HD
ENDBRANCH  11  12
ENDBRANCH   7  11
ENDBRANCH   1   4
BRANCH   1  15
ATOM     14  O   UNL     1      34.134 -23.666 -19.599  0.00  0.00    -0.275 OA
ATOM     15  N   UNL     1      34.697 -22.509 -17.665  0.00  0.00    -0.297 N 
ATOM     16  C   UNL     1      34.720 -22.744 -19.036  0.00  0.00    +0.228 C 
ATOM     17  H   UNL     1      35.202 -21.741 -17.311  0.00  0.00    +0.150 HD
BRANCH  16  18
ATOM     18  C   UNL     1      35.540 -21.728 -19.805  0.00  0.00    +0.118 C 
BRANCH  18  20
ATOM     19  S   UNL     1      35.316 -19.314 -21.122  0.00  0.00    -0.090 S 
ATOM     20  C   UNL     1      34.634 -20.634 -20.295  0.00  0.00    +0.016 C 
ATOM     21  C   UNL     1      33.279 -20.551 -20.162  0.00  0.00    +0.003 C 
ATOM     22  C   UNL     1      32.773 -19.361 -20.760  0.00  0.00    +0.007 C 
ATOM     23  C   UNL     1      33.774 -18.596 -21.318  0.00  0.00    +0.035 C 
ENDBRANCH  18  20
ENDBRANCH  16  18
ENDBRANCH   1  15
BRANCH   1  25
ATOM     24  O   UNL     1      31.768 -22.798 -17.576  0.00  0.00    -0.286 OA
ATOM     25  C   UNL     1      32.572 -22.782 -16.647  0.00  0.00    +0.229 C 
ENDBRANCH   1  25
TORSDOF 7
ENDMDL
MODEL 3
REMARK VINA RESULT:      -8.1     10.811     13.691
REMARK  Name = 5287902
REMARK  7 active torsions:
REMARK  status: ('A' for Active; 'I' for Inactive)
REMARK    1  A    between atoms: CA_1  and  C_4
REMARK    2  A    between atoms: CA_1  and  N_15
REMARK    3  A    between atoms: CA_1  and  C_25
REMARK    4  A    between atoms: CA_7  and  C_11
REMARK    5  A    between atoms: C_11  and  O_12
REMARK    6  A    between atoms: C_16  and  C_18
REMARK    7  A    between atoms: C_18  and  C_20
REMARK                            x       y       z     vdW  Elec       q    Type
REMARK                         _______ _______ _______ _____ _____    ______ ____
ROOT
ATOM      1  CA  UNL     1      33.354 -13.373 -23.438  0.00  0.00    +0.165 C 
ENDROOT
BRANCH   1   4
ATOM      2  S   UNL     1      33.826 -15.065 -21.344  0.00  0.00    -0.115 S 
ATOM      3  N   UNL     1      34.235 -15.579 -23.961  0.00  0.00    -0.320 N 
ATOM      4  C   UNL     1      34.296 -14.490 -23.006  0.00  0.00    +0.144 C 
ATOM      5  C   UNL     1      34.939 -16.496 -21.247  0.00  0.00    +0.083 C 
ATOM      6  C   UNL     1      34.950 -17.366 -22.491  0.00  0.00    -0.014 C 
ATOM      7  CA  UNL     1      34.597 -16.886 -23.705  0.00  0.00    +0.115 C 
ATOM      8  C   UNL     1      35.419 -18.772 -22.204  0.00  0.00    +0.029 C 
ATOM      9  H   UNL     1      33.908 -15.369 -24.865  0.00  0.00    +0.148 HD
BRANCH   7  11
ATOM     10  OXT UNL     1      34.199 -18.926 -24.856  0.00  0.00    -0.244 OA
ATOM     11  C   UNL     1      34.559 -17.768 -24.884  0.00  0.00    +0.351 C 
BRANCH  11  12
ATOM     12  O   UNL     1      34.979 -17.085 -25.965  0.00  0.00    -0.476 OA
ATOM     13  H   UNL     1      35.640 -17.449 -26.522  0.00  0.00    +0.295 HD
ENDBRANCH  11  12
ENDBRANCH   7  11
ENDBRANCH   1   4
BRANCH   1  15
ATOM     14  O   UNL     1      33.619 -11.750 -25.799  0.00  0.00    -0.275 OA
ATOM     15  N   UNL     1      34.050 -12.122 -23.547  0.00  0.00    -0.297 N 
ATOM     16  C   UNL     1      34.126 -11.403 -24.735  0.00  0.00    +0.228 C 
ATOM     17  H   UNL     1      34.491 -11.757 -22.747  0.00  0.00    +0.150 HD
BRANCH  16  18
ATOM     18  C   UNL     1      34.898 -10.105 -24.601  0.00  0.00    +0.118 C 
BRANCH  18  20
ATOM     19  S   UNL     1      34.706  -7.590 -23.481  0.00  0.00    -0.090 S 
ATOM     20  C   UNL     1      34.020  -9.076 -23.945  0.00  0.00    +0.016 C 
ATOM     21  C   UNL     1      32.690  -9.174 -23.660  0.00  0.00    +0.003 C 
ATOM     22  C   UNL     1      32.207  -7.988 -23.035  0.00  0.00    +0.007 C 
ATOM     23  C   UNL     1      33.199  -7.046 -22.877  0.00  0.00    +0.035 C 
ENDBRANCH  18  20
ENDBRANCH  16  18
ENDBRANCH   1  15
BRANCH   1  25
ATOM     24  O   UNL     1      31.877 -12.080 -22.032  0.00  0.00    -0.286 OA
ATOM     25  C   UNL     1      32.229 -13.179 -22.452  0.00  0.00    +0.229 C 
ENDBRANCH   1  25
TORSDOF 7
ENDMDL
MODEL 4
REMARK VINA RESULT:      -8.0      2.078      4.738
REMARK  Name = 5287902
REMARK  7 active torsions:
REMARK  status: ('A' for Active; 'I' for Inactive)
REMARK    1  A    between atoms: CA_1  and  C_4
REMARK    2  A    between atoms: CA_1  and  N_15
REMARK    3  A    between atoms: CA_1  and  C_25
REMARK    4  A    between atoms: CA_7  and  C_11
REMARK    5  A    between atoms: C_11  and  O_12
REMARK    6  A    between atoms: C_16  and  C_18
REMARK    7  A    between atoms: C_18  and  C_20
REMARK                            x       y       z     vdW  Elec       q    Type
REMARK                         _______ _______ _______ _____ _____    ______ ____
ROOT
ATOM      1  CA  UNL     1      33.687 -23.422 -15.085  0.00  0.00    +0.165 C 
ENDROOT
BRANCH   1   4
ATOM      2  S   UNL     1      36.298 -24.080 -15.551  0.00  0.00    -0.115 S 
ATOM      3  N   UNL     1      35.037 -24.066 -13.167  0.00  0.00    -0.320 N 
ATOM      4  C   UNL     1      34.789 -24.339 -14.568  0.00  0.00    +0.144 C 
ATOM      5  C   UNL     1      37.426 -25.096 -14.555  0.00  0.00    +0.083 C 
ATOM      6  C   UNL     1      37.320 -24.866 -13.059  0.00  0.00    -0.014 C 
ATOM      7  CA  UNL     1      36.198 -24.372 -12.487  0.00  0.00    +0.115 C 
ATOM      8  C   UNL     1      38.573 -25.276 -12.324  0.00  0.00    +0.029 C 
ATOM      9  H   UNL     1      34.318 -23.624 -12.658  0.00  0.00    +0.148 HD
BRANCH   7  11
ATOM     10  OXT UNL     1      36.772 -23.223 -10.488  0.00  0.00    -0.244 OA
ATOM     11  C   UNL     1      36.144 -24.102 -11.040  0.00  0.00    +0.351 C 
BRANCH  11  12
ATOM     12  O   UNL     1      35.301 -24.974 -10.456  0.00  0.00    -0.476 OA
ATOM     13  H   UNL     1      35.337 -25.112  -9.529  0.00  0.00    +0.295 HD
ENDBRANCH  11  12
ENDBRANCH   7  11
ENDBRANCH   1   4
BRANCH   1  15
ATOM     14  O   UNL     1      31.913 -23.203 -12.830  0.00  0.00    -0.275 OA
ATOM     15  N   UNL     1      32.396 -24.033 -14.945  0.00  0.00    -0.297 N 
ATOM     16  C   UNL     1      31.603 -23.872 -13.814  0.00  0.00    +0.228 C 
ATOM     17  H   UNL     1      32.056 -24.590 -15.682  0.00  0.00    +0.150 HD
BRANCH  16  18
ATOM     18  C   UNL     1      30.276 -24.597 -13.904  0.00  0.00    +0.118 C 
BRANCH  18  20
ATOM     19  S   UNL     1      29.218 -22.358 -15.121  0.00  0.00    -0.090 S 
ATOM     20  C   UNL     1      29.485 -24.037 -15.052  0.00  0.00    +0.016 C 
ATOM     21  C   UNL     1      28.928 -24.720 -16.093  0.00  0.00    +0.003 C 
ATOM     22  C   UNL     1      28.253 -23.839 -16.987  0.00  0.00    +0.007 C 
ATOM     23  C   UNL     1      28.333 -22.526 -16.577  0.00  0.00    +0.035 C 
ENDBRANCH  18  20
ENDBRANCH  16  18
ENDBRANCH   1  15
BRANCH   1  25
ATOM     24  O   UNL     1      32.956 -23.073 -17.360  0.00  0.00    -0.286 OA
ATOM     25  C   UNL     1      33.875 -23.093 -16.545  0.00  0.00    +0.229 C 
ENDBRANCH   1  25
TORSDOF 7
ENDMDL
MODEL 5
REMARK VINA RESULT:      -7.9      2.732      5.869
REMARK  Name = 5287902
REMARK  7 active torsions:
REMARK  status: ('A' for Active; 'I' for Inactive)
REMARK    1  A    between atoms: CA_1  and  C_4
REMARK    2  A    between atoms: CA_1  and  N_15
REMARK    3  A    between atoms: CA_1  and  C_25
REMARK    4  A    between atoms: CA_7  and  C_11
REMARK    5  A    between atoms: C_11  and  O_12
REMARK    6  A    between atoms: C_16  and  C_18
REMARK    7  A    between atoms: C_18  and  C_20
REMARK                            x       y       z     vdW  Elec       q    Type
REMARK                         _______ _______ _______ _____ _____    ______ ____
ROOT
ATOM      1  CA  UNL     1      35.644 -22.830 -15.995  0.00  0.00    +0.165 C 
ENDROOT
BRANCH   1   4
ATOM      2  S   UNL     1      34.414 -23.837 -13.772  0.00  0.00    -0.115 S 
ATOM      3  N   UNL     1      33.248 -23.228 -16.128  0.00  0.00    -0.320 N 
ATOM      4  C   UNL     1      34.492 -23.740 -15.588  0.00  0.00    +0.144 C 
ATOM      5  C   UNL     1      32.853 -24.755 -13.635  0.00  0.00    +0.083 C 
ATOM      6  C   UNL     1      31.738 -24.229 -14.521  0.00  0.00    -0.014 C 
ATOM      7  CA  UNL     1      31.989 -23.519 -15.644  0.00  0.00    +0.115 C 
ATOM      8  C   UNL     1      30.370 -24.619 -14.015  0.00  0.00    +0.029 C 
ATOM      9  H   UNL     1      33.307 -22.624 -16.903  0.00  0.00    +0.148 HD
BRANCH   7  11
ATOM     10  OXT UNL     1      29.711 -23.117 -16.190  0.00  0.00    -0.244 OA
ATOM     11  C   UNL     1      30.886 -22.969 -16.452  0.00  0.00    +0.351 C 
BRANCH  11  12
ATOM     12  O   UNL     1      31.397 -22.294 -17.499  0.00  0.00    -0.476 OA
ATOM     13  H   UNL     1      31.455 -21.358 -17.471  0.00  0.00    +0.295 HD
ENDBRANCH  11  12
ENDBRANCH   7  11
ENDBRANCH   1   4
BRANCH   1  15
ATOM     14  O   UNL     1      37.005 -20.749 -17.443  0.00  0.00    -0.275 OA
ATOM     15  N   UNL     1      35.701 -22.671 -17.420  0.00  0.00    -0.297 N 
ATOM     16  C   UNL     1      36.386 -21.630 -18.037  0.00  0.00    +0.228 C 
ATOM     17  H   UNL     1      35.235 -23.328 -17.986  0.00  0.00    +0.150 HD
BRANCH  16  18
ATOM     18  C   UNL     1      36.319 -21.681 -19.550  0.00  0.00    +0.118 C 
BRANCH  18  20
ATOM     19  S   UNL     1      35.379 -19.536 -21.011  0.00  0.00    -0.090 S 
ATOM     20  C   UNL     1      35.127 -20.894 -20.017  0.00  0.00    +0.016 C 
ATOM     21  C   UNL     1      33.812 -21.129 -19.741  0.00  0.00    +0.003 C 
ATOM     22  C   UNL     1      32.972 -20.162 -20.366  0.00  0.00    +0.007 C 
ATOM     23  C   UNL     1      33.695 -19.237 -21.087  0.00  0.00    +0.035 C 
ENDBRANCH  18  20
ENDBRANCH  16  18
ENDBRANCH   1  15
BRANCH   1  25
ATOM     24  O   UNL     1      37.723 -22.800 -14.767  0.00  0.00    -0.286 OA
ATOM     25  C   UNL     1      36.975 -23.382 -15.549  0.00  0.00    +0.229 C 
ENDBRANCH   1  25
TORSDOF 7
ENDMDL
MODEL 6
REMARK VINA RESULT:      -7.8     10.768     13.366
REMARK  Name = 5287902
REMARK  7 active torsions:
REMARK  status: ('A' for Active; 'I' for Inactive)
REMARK    1  A    between atoms: CA_1  and  C_4
REMARK    2  A    between atoms: CA_1  and  N_15
REMARK    3  A    between atoms: CA_1  and  C_25
REMARK    4  A    between atoms: CA_7  and  C_11
REMARK    5  A    between atoms: C_11  and  O_12
REMARK    6  A    between atoms: C_16  and  C_18
REMARK    7  A    between atoms: C_18  and  C_20
REMARK                            x       y       z     vdW  Elec       q    Type
REMARK                         _______ _______ _______ _____ _____    ______ ____
ROOT
ATOM      1  CA  UNL     1      33.680 -13.446 -24.016  0.00  0.00    +0.165 C 
ENDROOT
BRANCH   1   4
ATOM      2  S   UNL     1      33.645 -14.664 -21.570  0.00  0.00    -0.115 S 
ATOM      3  N   UNL     1      34.493 -15.735 -23.897  0.00  0.00    -0.320 N 
ATOM      4  C   UNL     1      34.449 -14.469 -23.191  0.00  0.00    +0.144 C 
ATOM      5  C   UNL     1      34.625 -16.070 -20.969  0.00  0.00    +0.083 C 
ATOM      6  C   UNL     1      34.806 -17.185 -21.982  0.00  0.00    -0.014 C 
ATOM      7  CA  UNL     1      34.715 -16.966 -23.314  0.00  0.00    +0.115 C 
ATOM      8  C   UNL     1      35.120 -18.510 -21.329  0.00  0.00    +0.029 C 
ATOM      9  H   UNL     1      34.352 -15.714 -24.871  0.00  0.00    +0.148 HD
BRANCH   7  11
ATOM     10  OXT UNL     1      35.062 -19.227 -23.957  0.00  0.00    -0.244 OA
ATOM     11  C   UNL     1      34.835 -18.078 -24.272  0.00  0.00    +0.351 C 
BRANCH  11  12
ATOM     12  O   UNL     1      34.654 -17.610 -25.522  0.00  0.00    -0.476 OA
ATOM     13  H   UNL     1      34.789 -16.701 -25.706  0.00  0.00    +0.295 HD
ENDBRANCH  11  12
ENDBRANCH   7  11
ENDBRANCH   1   4
BRANCH   1  15
ATOM     14  O   UNL     1      33.591 -10.586 -23.710  0.00  0.00    -0.275 OA
ATOM     15  N   UNL     1      32.770 -12.698 -23.197  0.00  0.00    -0.297 N 
ATOM     16  C   UNL     1      32.800 -11.310 -23.109  0.00  0.00    +0.228 C 
ATOM     17  H   UNL     1      32.094 -13.188 -22.675  0.00  0.00    +0.150 HD
BRANCH  16  18
ATOM     18  C   UNL     1      31.731 -10.744 -22.195  0.00  0.00    +0.118 C 
BRANCH  18  20
ATOM     19  S   UNL     1      32.444  -8.327 -21.073  0.00  0.00    -0.090 S 
ATOM     20  C   UNL     1      31.727  -9.246 -22.311  0.00  0.00    +0.016 C 
ATOM     21  C   UNL     1      31.205  -8.488 -23.318  0.00  0.00    +0.003 C 
ATOM     22  C   UNL     1      31.396  -7.098 -23.071  0.00  0.00    +0.007 C 
ATOM     23  C   UNL     1      32.057  -6.870 -21.884  0.00  0.00    +0.035 C 
ENDBRANCH  18  20
ENDBRANCH  16  18
ENDBRANCH   1  15
BRANCH   1  25
ATOM     24  O   UNL     1      33.334 -14.419 -26.199  0.00  0.00    -0.286 OA
ATOM     25  C   UNL     1      32.870 -14.104 -25.106  0.00  0.00    +0.229 C 
ENDBRANCH   1  25
TORSDOF 7
ENDMDL
MODEL 7
REMARK VINA RESULT:      -7.8     11.198     13.853
REMARK  Name = 5287902
REMARK  7 active torsions:
REMARK  status: ('A' for Active; 'I' for Inactive)
REMARK    1  A    between atoms: CA_1  and  C_4
REMARK    2  A    between atoms: CA_1  and  N_15
REMARK    3  A    between atoms: CA_1  and  C_25
REMARK    4  A    between atoms: CA_7  and  C_11
REMARK    5  A    between atoms: C_11  and  O_12
REMARK    6  A    between atoms: C_16  and  C_18
REMARK    7  A    between atoms: C_18  and  C_20
REMARK                            x       y       z     vdW  Elec       q    Type
REMARK                         _______ _______ _______ _____ _____    ______ ____
ROOT
ATOM      1  CA  UNL     1      33.342 -12.817 -23.734  0.00  0.00    +0.165 C 
ENDROOT
BRANCH   1   4
ATOM      2  S   UNL     1      34.695 -10.856 -25.073  0.00  0.00    -0.115 S 
ATOM      3  N   UNL     1      32.788 -10.510 -23.196  0.00  0.00    -0.320 N 
ATOM      4  C   UNL     1      33.876 -11.403 -23.543  0.00  0.00    +0.144 C 
ATOM      5  C   UNL     1      34.980  -9.125 -24.603  0.00  0.00    +0.083 C 
ATOM      6  C   UNL     1      33.780  -8.442 -23.974  0.00  0.00    -0.014 C 
ATOM      7  CA  UNL     1      32.799  -9.140 -23.358  0.00  0.00    +0.115 C 
ATOM      8  C   UNL     1      33.844  -6.938 -24.097  0.00  0.00    +0.029 C 
ATOM      9  H   UNL     1      31.976 -10.915 -22.815  0.00  0.00    +0.148 HD
BRANCH   7  11
ATOM     10  OXT UNL     1      30.683  -8.064 -23.480  0.00  0.00    -0.244 OA
ATOM     11  C   UNL     1      31.615  -8.455 -22.810  0.00  0.00    +0.351 C 
BRANCH  11  12
ATOM     12  O   UNL     1      31.745  -8.344 -21.474  0.00  0.00    -0.476 OA
ATOM     13  H   UNL     1      31.655  -9.102 -20.930  0.00  0.00    +0.295 HD
ENDBRANCH  11  12
ENDBRANCH   7  11
ENDBRANCH   1   4
BRANCH   1  15
ATOM     14  O   UNL     1      32.292 -14.854 -21.995  0.00  0.00    -0.275 OA
ATOM     15  N   UNL     1      34.098 -13.766 -22.968  0.00  0.00    -0.297 N 
ATOM     16  C   UNL     1      33.504 -14.720 -22.149  0.00  0.00    +0.228 C 
ATOM     17  H   UNL     1      35.081 -13.741 -23.024  0.00  0.00    +0.150 HD
BRANCH  16  18
ATOM     18  C   UNL     1      34.505 -15.621 -21.454  0.00  0.00    +0.118 C 
BRANCH  18  20
ATOM     19  S   UNL     1      34.464 -18.380 -21.430  0.00  0.00    -0.090 S 
ATOM     20  C   UNL     1      34.648 -16.895 -22.239  0.00  0.00    +0.016 C 
ATOM     21  C   UNL     1      34.916 -17.029 -23.569  0.00  0.00    +0.003 C 
ATOM     22  C   UNL     1      34.976 -18.402 -23.948  0.00  0.00    +0.007 C 
ATOM     23  C   UNL     1      34.748 -19.243 -22.881  0.00  0.00    +0.035 C 
ENDBRANCH  18  20
ENDBRANCH  16  18
ENDBRANCH   1  15
BRANCH   1  25
ATOM     24  O   UNL     1      32.719 -14.147 -25.651  0.00  0.00    -0.286 OA
ATOM     25  C   UNL     1      33.409 -13.247 -25.179  0.00  0.00    +0.229 C 
ENDBRANCH   1  25
TORSDOF 7
ENDMDL
MODEL 8
REMARK VINA RESULT:      -7.7      7.880     10.371
REMARK  Name = 5287902
REMARK  7 active torsions:
REMARK  status: ('A' for Active; 'I' for Inactive)
REMARK    1  A    between atoms: CA_1  and  C_4
REMARK    2  A    between atoms: CA_1  and  N_15
REMARK    3  A    between atoms: CA_1  and  C_25
REMARK    4  A    between atoms: CA_7  and  C_11
REMARK    5  A    between atoms: C_11  and  O_12
REMARK    6  A    between atoms: C_16  and  C_18
REMARK    7  A    between atoms: C_18  and  C_20
REMARK                            x       y       z     vdW  Elec       q    Type
REMARK                         _______ _______ _______ _____ _____    ______ ____
ROOT
ATOM      1  CA  UNL     1      33.477 -15.435 -21.391  0.00  0.00    +0.165 C 
ENDROOT
BRANCH   1   4
ATOM      2  S   UNL     1      34.001 -13.041 -22.600  0.00  0.00    -0.115 S 
ATOM      3  N   UNL     1      33.207 -15.320 -23.806  0.00  0.00    -0.320 N 
ATOM      4  C   UNL     1      33.031 -14.581 -22.572  0.00  0.00    +0.144 C 
ATOM      5  C   UNL     1      33.417 -12.404 -24.197  0.00  0.00    +0.083 C 
ATOM      6  C   UNL     1      33.397 -13.433 -25.313  0.00  0.00    -0.014 C 
ATOM      7  CA  UNL     1      33.318 -14.760 -25.062  0.00  0.00    +0.115 C 
ATOM      8  C   UNL     1      33.446 -12.798 -26.682  0.00  0.00    +0.029 C 
ATOM      9  H   UNL     1      33.251 -16.301 -23.743  0.00  0.00    +0.148 HD
BRANCH   7  11
ATOM     10  OXT UNL     1      32.475 -15.892 -26.975  0.00  0.00    -0.244 OA
ATOM     11  C   UNL     1      33.362 -15.740 -26.162  0.00  0.00    +0.351 C 
BRANCH  11  12
ATOM     12  O   UNL     1      34.526 -16.415 -26.108  0.00  0.00    -0.476 OA
ATOM     13  H   UNL     1      34.537 -17.342 -26.253  0.00  0.00    +0.295 HD
ENDBRANCH  11  12
ENDBRANCH   7  11
ENDBRANCH   1   4
BRANCH   1  15
ATOM     14  O   UNL     1      35.549 -17.049 -20.218  0.00  0.00    -0.275 OA
ATOM     15  N   UNL     1      33.901 -16.736 -21.824  0.00  0.00    -0.297 N 
ATOM     16  C   UNL     1      34.916 -17.447 -21.194  0.00  0.00    +0.228 C 
ATOM     17  H   UNL     1      33.453 -17.144 -22.600  0.00  0.00    +0.150 HD
BRANCH  16  18
ATOM     18  C   UNL     1      35.175 -18.804 -21.818  0.00  0.00    +0.118 C 
BRANCH  18  20
ATOM     19  S   UNL     1      35.838 -20.884 -20.131  0.00  0.00    -0.090 S 
ATOM     20  C   UNL     1      34.693 -19.876 -20.882  0.00  0.00    +0.016 C 
ATOM     21  C   UNL     1      33.405 -20.165 -20.538  0.00  0.00    +0.003 C 
ATOM     22  C   UNL     1      33.348 -21.255 -19.622  0.00  0.00    +0.007 C 
ATOM     23  C   UNL     1      34.600 -21.740 -19.316  0.00  0.00    +0.035 C 
ENDBRANCH  18  20
ENDBRANCH  16  18
ENDBRANCH   1  15
BRANCH   1  25
ATOM     24  O   UNL     1      31.471 -16.467 -20.528  0.00  0.00    -0.286 OA
ATOM     25  C   UNL     1      32.362 -15.632 -20.394  0.00  0.00    +0.229 C 
ENDBRANCH   1  25
TORSDOF 7
ENDMDL
MODEL 9
REMARK VINA RESULT:      -7.7      2.759      5.433
REMARK  Name = 5287902
REMARK  7 active torsions:
REMARK  status: ('A' for Active; 'I' for Inactive)
REMARK    1  A    between atoms: CA_1  and  C_4
REMARK    2  A    between atoms: CA_1  and  N_15
REMARK    3  A    between atoms: CA_1  and  C_25
REMARK    4  A    between atoms: CA_7  and  C_11
REMARK    5  A    between atoms: C_11  and  O_12
REMARK    6  A    between atoms: C_16  and  C_18
REMARK    7  A    between atoms: C_18  and  C_20
REMARK                            x       y       z     vdW  Elec       q    Type
REMARK                         _______ _______ _______ _____ _____    ______ ____
ROOT
ATOM      1  CA  UNL     1      34.534 -23.788 -13.881  0.00  0.00    +0.165 C 
ENDROOT
BRANCH   1   4
ATOM      2  S   UNL     1      36.761 -23.027 -15.270  0.00  0.00    -0.115 S 
ATOM      3  N   UNL     1      34.217 -23.030 -16.170  0.00  0.00    -0.320 N 
ATOM      4  C   UNL     1      34.981 -22.808 -14.958  0.00  0.00    +0.144 C 
ATOM      5  C   UNL     1      36.901 -21.933 -16.712  0.00  0.00    +0.083 C 
ATOM      6  C   UNL     1      35.812 -22.124 -17.752  0.00  0.00    -0.014 C 
ATOM      7  CA  UNL     1      34.607 -22.651 -17.439  0.00  0.00    +0.115 C 
ATOM      8  C   UNL     1      36.230 -21.638 -19.119  0.00  0.00    +0.029 C 
ATOM      9  H   UNL     1      33.351 -23.488 -16.081  0.00  0.00    +0.148 HD
BRANCH   7  11
ATOM     10  OXT UNL     1      32.680 -22.119 -18.724  0.00  0.00    -0.244 OA
ATOM     11  C   UNL     1      33.590 -22.882 -18.480  0.00  0.00    +0.351 C 
BRANCH  11  12
ATOM     12  O   UNL     1      33.841 -24.054 -19.094  0.00  0.00    -0.476 OA
ATOM     13  H   UNL     1      34.413 -24.081 -19.836  0.00  0.00    +0.295 HD
ENDBRANCH  11  12
ENDBRANCH   7  11
ENDBRANCH   1   4
BRANCH   1  15
ATOM     14  O   UNL     1      35.818 -24.489 -11.403  0.00  0.00    -0.275 OA
ATOM     15  N   UNL     1      35.510 -24.821 -13.681  0.00  0.00    -0.297 N 
ATOM     16  C   UNL     1      36.081 -25.091 -12.442  0.00  0.00    +0.228 C 
ATOM     17  H   UNL     1      35.788 -25.363 -14.455  0.00  0.00    +0.150 HD
BRANCH  16  18
ATOM     18  C   UNL     1      37.072 -26.237 -12.475  0.00  0.00    +0.118 C 
BRANCH  18  20
ATOM     19  S   UNL     1      38.390 -26.520 -14.883  0.00  0.00    -0.090 S 
ATOM     20  C   UNL     1      38.247 -25.847 -13.327  0.00  0.00    +0.016 C 
ATOM     21  C   UNL     1      39.259 -24.989 -13.011  0.00  0.00    +0.003 C 
ATOM     22  C   UNL     1      40.193 -24.874 -14.081  0.00  0.00    +0.007 C 
ATOM     23  C   UNL     1      39.841 -25.655 -15.160  0.00  0.00    +0.035 C 
ENDBRANCH  18  20
ENDBRANCH  16  18
ENDBRANCH   1  15
BRANCH   1  25
ATOM     24  O   UNL     1      32.365 -24.747 -13.424  0.00  0.00    -0.286 OA
ATOM     25  C   UNL     1      33.233 -24.461 -14.244  0.00  0.00    +0.229 C 
ENDBRANCH   1  25
TORSDOF 7
ENDMDL
