MODEL 1
REMARK VINA RESULT:      -9.2      0.000      0.000
REMARK  Name = 5172
REMARK  4 active torsions:
REMARK  status: ('A' for Active; 'I' for Inactive)
REMARK    1  A    between atoms: N_1  and  C_22
REMARK    2  A    between atoms: C_3  and  C_9
REMARK    3  A    between atoms: C_5  and  C_16
REMARK    4  A    between atoms: C_22  and  C_23
REMARK                            x       y       z     vdW  Elec       q    Type
REMARK                         _______ _______ _______ _____ _____    ______ ____
ROOT
ATOM      1  N   UNL     1      34.620 -17.142 -24.537  0.00  0.00    -0.243 NA
ATOM      2  N   UNL     1      34.726 -19.352 -24.343  0.00  0.00    -0.255 NA
ATOM      3  C   UNL     1      34.421 -17.411 -23.213  0.00  0.00    +0.153 C 
ATOM      4  C   UNL     1      34.798 -18.338 -25.176  0.00  0.00    +0.201 C 
ATOM      5  C   UNL     1      34.490 -18.779 -23.120  0.00  0.00    +0.077 C 
ENDROOT
BRANCH   3   9
ATOM      6  N   UNL     1      33.212 -15.522 -22.516  0.00  0.00    -0.340 NA
ATOM      7  N   UNL     1      33.650 -14.417 -20.420  0.00  0.00    -0.170 NA
ATOM      8  N   UNL     1      31.975 -13.637 -21.865  0.00  0.00    -0.293 N 
ATOM      9  C   UNL     1      34.194 -16.393 -22.213  0.00  0.00    +0.143 C 
ATOM     10  C   UNL     1      34.939 -16.347 -21.056  0.00  0.00    +0.052 C 
ATOM     11  C   UNL     1      34.619 -15.325 -20.186  0.00  0.00    +0.114 C 
ATOM     12  C   UNL     1      32.996 -14.572 -21.586  0.00  0.00    +0.141 C 
ATOM     13  H   UNL     1      31.463 -13.702 -22.705  0.00  0.00    +0.155 HD
ATOM     14  H   UNL     1      31.773 -12.921 -21.221  0.00  0.00    +0.155 HD
ENDBRANCH   3   9
BRANCH   5  16
ATOM     15  F   UNL     1      33.911 -21.737 -18.442  0.00  0.00    -0.204 F 
ATOM     16  C   UNL     1      34.341 -19.542 -21.913  0.00  0.00    +0.015 C 
ATOM     17  C   UNL     1      33.073 -19.749 -21.371  0.00  0.00    +0.004 C 
ATOM     18  C   UNL     1      35.464 -20.077 -21.283  0.00  0.00    +0.004 C 
ATOM     19  C   UNL     1      32.928 -20.491 -20.199  0.00  0.00    +0.030 C 
ATOM     20  C   UNL     1      35.319 -20.819 -20.111  0.00  0.00    +0.030 C 
ATOM     21  C   UNL     1      34.051 -21.025 -19.569  0.00  0.00    +0.140 C 
ENDBRANCH   5  16
BRANCH   1  22
ATOM     22  C   UNL     1      34.643 -15.845 -25.173  0.00  0.00    +0.075 C 
BRANCH  22  23
ATOM     23  C   UNL     1      33.353 -15.531 -25.859  0.00  0.00    +0.016 C 
ATOM     24  C   UNL     1      32.671 -14.234 -25.560  0.00  0.00    +0.001 C 
ATOM     25  C   UNL     1      33.328 -14.449 -26.892  0.00  0.00    +0.001 C 
ENDBRANCH  22  23
ENDBRANCH   1  22
TORSDOF 4
ENDMDL
MODEL 2
REMARK VINA RESULT:      -9.1      7.588     10.552
REMARK  Name = 5172
REMARK  4 active torsions:
REMARK  status: ('A' for Active; 'I' for Inactive)
REMARK    1  A    between atoms: N_1  and  C_22
REMARK    2  A    between atoms: C_3  and  C_9
REMARK    3  A    between atoms: C_5  and  C_16
REMARK    4  A    between atoms: C_22  and  C_23
REMARK                            x       y       z     vdW  Elec       q    Type
REMARK                         _______ _______ _______ _____ _____    ______ ____
ROOT
ATOM      1  N   UNL     1      32.846 -23.497 -14.688  0.00  0.00    -0.243 NA
ATOM      2  N   UNL     1      33.760 -24.681 -13.047  0.00  0.00    -0.255 NA
ATOM      3  C   UNL     1      34.166 -23.632 -15.014  0.00  0.00    +0.153 C 
ATOM      4  C   UNL     1      32.650 -24.142 -13.498  0.00  0.00    +0.201 C 
ATOM      5  C   UNL     1      34.706 -24.365 -13.986  0.00  0.00    +0.077 C 
ENDROOT
BRANCH   3   9
ATOM      6  N   UNL     1      33.999 -23.204 -17.318  0.00  0.00    -0.340 NA
ATOM      7  N   UNL     1      35.740 -22.080 -18.546  0.00  0.00    -0.170 NA
ATOM      8  N   UNL     1      33.783 -22.800 -19.619  0.00  0.00    -0.293 N 
ATOM      9  C   UNL     1      34.757 -23.079 -16.211  0.00  0.00    +0.143 C 
ATOM     10  C   UNL     1      35.996 -22.479 -16.186  0.00  0.00    +0.052 C 
ATOM     11  C   UNL     1      36.443 -21.992 -17.397  0.00  0.00    +0.114 C 
ATOM     12  C   UNL     1      34.545 -22.689 -18.435  0.00  0.00    +0.141 C 
ATOM     13  H   UNL     1      32.899 -23.236 -19.597  0.00  0.00    +0.155 HD
ATOM     14  H   UNL     1      34.132 -22.441 -20.466  0.00  0.00    +0.155 HD
ENDBRANCH   3   9
BRANCH   5  16
ATOM     15  F   UNL     1      40.034 -25.918 -13.574  0.00  0.00    -0.204 F 
ATOM     16  C   UNL     1      36.081 -24.765 -13.880  0.00  0.00    +0.015 C 
ATOM     17  C   UNL     1      36.923 -24.131 -12.968  0.00  0.00    +0.004 C 
ATOM     18  C   UNL     1      36.573 -25.789 -14.689  0.00  0.00    +0.004 C 
ATOM     19  C   UNL     1      38.258 -24.521 -12.864  0.00  0.00    +0.030 C 
ATOM     20  C   UNL     1      37.908 -26.179 -14.585  0.00  0.00    +0.030 C 
ATOM     21  C   UNL     1      38.751 -25.545 -13.673  0.00  0.00    +0.140 C 
ENDBRANCH   5  16
BRANCH   1  22
ATOM     22  C   UNL     1      31.825 -22.806 -15.441  0.00  0.00    +0.075 C 
BRANCH  22  23
ATOM     23  C   UNL     1      30.449 -23.145 -14.967  0.00  0.00    +0.016 C 
ATOM     24  C   UNL     1      29.276 -22.724 -15.794  0.00  0.00    +0.001 C 
ATOM     25  C   UNL     1      29.660 -24.172 -15.715  0.00  0.00    +0.001 C 
ENDBRANCH  22  23
ENDBRANCH   1  22
TORSDOF 4
ENDMDL
MODEL 3
REMARK VINA RESULT:      -9.0      7.692     10.987
REMARK  Name = 5172
REMARK  4 active torsions:
REMARK  status: ('A' for Active; 'I' for Inactive)
REMARK    1  A    between atoms: N_1  and  C_22
REMARK    2  A    between atoms: C_3  and  C_9
REMARK    3  A    between atoms: C_5  and  C_16
REMARK    4  A    between atoms: C_22  and  C_23
REMARK                            x       y       z     vdW  Elec       q    Type
REMARK                         _______ _______ _______ _____ _____    ______ ____
ROOT
ATOM      1  N   UNL     1      35.685 -23.898 -13.921  0.00  0.00    -0.243 NA
ATOM      2  N   UNL     1      33.945 -24.384 -12.629  0.00  0.00    -0.255 NA
ATOM      3  C   UNL     1      34.577 -23.703 -14.696  0.00  0.00    +0.153 C 
ATOM      4  C   UNL     1      35.256 -24.308 -12.689  0.00  0.00    +0.201 C 
ATOM      5  C   UNL     1      33.519 -24.010 -13.877  0.00  0.00    +0.077 C 
ENDROOT
BRANCH   3   9
ATOM      6  N   UNL     1      35.683 -22.483 -16.371  0.00  0.00    -0.340 NA
ATOM      7  N   UNL     1      34.861 -22.367 -18.633  0.00  0.00    -0.170 NA
ATOM      8  N   UNL     1      36.825 -21.248 -18.007  0.00  0.00    -0.293 N 
ATOM      9  C   UNL     1      34.629 -23.267 -16.073  0.00  0.00    +0.143 C 
ATOM     10  C   UNL     1      33.663 -23.642 -16.979  0.00  0.00    +0.052 C 
ATOM     11  C   UNL     1      33.832 -23.157 -18.260  0.00  0.00    +0.114 C 
ATOM     12  C   UNL     1      35.736 -22.074 -17.653  0.00  0.00    +0.141 C 
ATOM     13  H   UNL     1      37.497 -21.001 -17.331  0.00  0.00    +0.155 HD
ATOM     14  H   UNL     1      36.914 -20.920 -18.931  0.00  0.00    +0.155 HD
ENDBRANCH   3   9
BRANCH   5  16
ATOM     15  F   UNL     1      28.147 -23.799 -15.316  0.00  0.00    -0.204 F 
ATOM     16  C   UNL     1      32.133 -23.956 -14.248  0.00  0.00    +0.015 C 
ATOM     17  C   UNL     1      31.514 -22.723 -14.453  0.00  0.00    +0.004 C 
ATOM     18  C   UNL     1      31.407 -25.136 -14.405  0.00  0.00    +0.004 C 
ATOM     19  C   UNL     1      30.168 -22.670 -14.814  0.00  0.00    +0.030 C 
ATOM     20  C   UNL     1      30.060 -25.083 -14.766  0.00  0.00    +0.030 C 
ATOM     21  C   UNL     1      29.441 -23.850 -14.970  0.00  0.00    +0.140 C 
ENDBRANCH   5  16
BRANCH   1  22
ATOM     22  C   UNL     1      37.066 -23.715 -14.305  0.00  0.00    +0.075 C 
BRANCH  22  23
ATOM     23  C   UNL     1      37.782 -25.015 -14.468  0.00  0.00    +0.016 C 
ATOM     24  C   UNL     1      39.249 -25.001 -14.762  0.00  0.00    +0.001 C 
ATOM     25  C   UNL     1      38.755 -25.441 -13.415  0.00  0.00    +0.001 C 
ENDBRANCH  22  23
ENDBRANCH   1  22
TORSDOF 4
ENDMDL
MODEL 4
REMARK VINA RESULT:      -9.0      6.436      9.374
REMARK  Name = 5172
REMARK  4 active torsions:
REMARK  status: ('A' for Active; 'I' for Inactive)
REMARK    1  A    between atoms: N_1  and  C_22
REMARK    2  A    between atoms: C_3  and  C_9
REMARK    3  A    between atoms: C_5  and  C_16
REMARK    4  A    between atoms: C_22  and  C_23
REMARK                            x       y       z     vdW  Elec       q    Type
REMARK                         _______ _______ _______ _____ _____    ______ ____
ROOT
ATOM      1  N   UNL     1      34.293 -22.514 -18.241  0.00  0.00    -0.243 NA
ATOM      2  N   UNL     1      32.094 -22.466 -17.943  0.00  0.00    -0.255 NA
ATOM      3  C   UNL     1      34.073 -23.030 -16.995  0.00  0.00    +0.153 C 
ATOM      4  C   UNL     1      33.076 -22.189 -18.771  0.00  0.00    +0.201 C 
ATOM      5  C   UNL     1      32.710 -22.988 -16.837  0.00  0.00    +0.077 C 
ENDROOT
BRANCH   3   9
ATOM      6  N   UNL     1      35.168 -24.824 -15.947  0.00  0.00    -0.340 NA
ATOM      7  N   UNL     1      37.063 -24.502 -14.494  0.00  0.00    -0.170 NA
ATOM      8  N   UNL     1      36.226 -26.651 -14.923  0.00  0.00    -0.293 N 
ATOM      9  C   UNL     1      35.127 -23.489 -16.119  0.00  0.00    +0.143 C 
ATOM     10  C   UNL     1      36.001 -22.605 -15.527  0.00  0.00    +0.052 C 
ATOM     11  C   UNL     1      36.960 -23.175 -14.715  0.00  0.00    +0.114 C 
ATOM     12  C   UNL     1      36.148 -25.257 -15.132  0.00  0.00    +0.141 C 
ATOM     13  H   UNL     1      35.582 -27.252 -15.365  0.00  0.00    +0.155 HD
ATOM     14  H   UNL     1      36.923 -27.024 -14.337  0.00  0.00    +0.155 HD
ENDBRANCH   3   9
BRANCH   5  16
ATOM     15  F   UNL     1      29.925 -24.695 -12.330  0.00  0.00    -0.204 F 
ATOM     16  C   UNL     1      31.992 -23.429 -15.674  0.00  0.00    +0.015 C 
ATOM     17  C   UNL     1      32.291 -22.890 -14.424  0.00  0.00    +0.004 C 
ATOM     18  C   UNL     1      30.994 -24.396 -15.796  0.00  0.00    +0.004 C 
ATOM     19  C   UNL     1      31.593 -23.317 -13.294  0.00  0.00    +0.030 C 
ATOM     20  C   UNL     1      30.296 -24.823 -14.666  0.00  0.00    +0.030 C 
ATOM     21  C   UNL     1      30.595 -24.284 -13.416  0.00  0.00    +0.140 C 
ENDBRANCH   5  16
BRANCH   1  22
ATOM     22  C   UNL     1      35.566 -22.333 -18.900  0.00  0.00    +0.075 C 
BRANCH  22  23
ATOM     23  C   UNL     1      35.820 -20.904 -19.252  0.00  0.00    +0.016 C 
ATOM     24  C   UNL     1      36.935 -20.578 -20.194  0.00  0.00    +0.001 C 
ATOM     25  C   UNL     1      35.509 -20.434 -20.637  0.00  0.00    +0.001 C 
ENDBRANCH  22  23
ENDBRANCH   1  22
TORSDOF 4
ENDMDL
MODEL 5
REMARK VINA RESULT:      -9.0      6.170      9.697
REMARK  Name = 5172
REMARK  4 active torsions:
REMARK  status: ('A' for Active; 'I' for Inactive)
REMARK    1  A    between atoms: N_1  and  C_22
REMARK    2  A    between atoms: C_3  and  C_9
REMARK    3  A    between atoms: C_5  and  C_16
REMARK    4  A    between atoms: C_22  and  C_23
REMARK                            x       y       z     vdW  Elec       q    Type
REMARK                         _______ _______ _______ _____ _____    ______ ____
ROOT
ATOM      1  N   UNL     1      32.195 -12.055 -22.031  0.00  0.00    -0.243 NA
ATOM      2  N   UNL     1      31.021 -10.426 -21.083  0.00  0.00    -0.255 NA
ATOM      3  C   UNL     1      32.485 -10.924 -22.739  0.00  0.00    +0.153 C 
ATOM      4  C   UNL     1      31.311 -11.708 -21.047  0.00  0.00    +0.201 C 
ATOM      5  C   UNL     1      31.748  -9.935 -22.135  0.00  0.00    +0.077 C 
ENDROOT
BRANCH   3   9
ATOM      6  N   UNL     1      33.112 -11.793 -24.829  0.00  0.00    -0.340 NA
ATOM      7  N   UNL     1      35.006 -10.950 -26.057  0.00  0.00    -0.170 NA
ATOM      8  N   UNL     1      33.696 -12.697 -26.914  0.00  0.00    -0.293 N 
ATOM      9  C   UNL     1      33.389 -10.892 -23.866  0.00  0.00    +0.143 C 
ATOM     10  C   UNL     1      34.436 -10.000 -23.920  0.00  0.00    +0.052 C 
ATOM     11  C   UNL     1      35.221 -10.075 -25.052  0.00  0.00    +0.114 C 
ATOM     12  C   UNL     1      33.950 -11.767 -25.882  0.00  0.00    +0.141 C 
ATOM     13  H   UNL     1      32.937 -13.320 -26.840  0.00  0.00    +0.155 HD
ATOM     14  H   UNL     1      34.277 -12.723 -27.708  0.00  0.00    +0.155 HD
ENDBRANCH   3   9
BRANCH   5  16
ATOM     15  F   UNL     1      31.645  -4.585 -23.664  0.00  0.00    -0.204 F 
ATOM     16  C   UNL     1      31.722  -8.555 -22.530  0.00  0.00    +0.015 C 
ATOM     17  C   UNL     1      32.320  -7.588 -21.723  0.00  0.00    +0.004 C 
ATOM     18  C   UNL     1      31.098  -8.182 -23.720  0.00  0.00    +0.004 C 
ATOM     19  C   UNL     1      32.294  -6.247 -22.106  0.00  0.00    +0.030 C 
ATOM     20  C   UNL     1      31.072  -6.841 -24.103  0.00  0.00    +0.030 C 
ATOM     21  C   UNL     1      31.670  -5.874 -23.297  0.00  0.00    +0.140 C 
ENDBRANCH   5  16
BRANCH   1  22
ATOM     22  C   UNL     1      32.712 -13.385 -22.257  0.00  0.00    +0.075 C 
BRANCH  22  23
ATOM     23  C   UNL     1      32.928 -14.130 -20.981  0.00  0.00    +0.016 C 
ATOM     24  C   UNL     1      32.542 -15.574 -20.912  0.00  0.00    +0.001 C 
ATOM     25  C   UNL     1      33.990 -15.181 -20.928  0.00  0.00    +0.001 C 
ENDBRANCH  22  23
ENDBRANCH   1  22
TORSDOF 4
ENDMDL
MODEL 6
REMARK VINA RESULT:      -8.8      8.040     11.237
REMARK  Name = 5172
REMARK  4 active torsions:
REMARK  status: ('A' for Active; 'I' for Inactive)
REMARK    1  A    between atoms: N_1  and  C_22
REMARK    2  A    between atoms: C_3  and  C_9
REMARK    3  A    between atoms: C_5  and  C_16
REMARK    4  A    between atoms: C_22  and  C_23
REMARK                            x       y       z     vdW  Elec       q    Type
REMARK                         _______ _______ _______ _____ _____    ______ ____
ROOT
ATOM      1  N   UNL     1      36.159 -24.025 -13.393  0.00  0.00    -0.243 NA
ATOM      2  N   UNL     1      34.329 -24.563 -12.257  0.00  0.00    -0.255 NA
ATOM      3  C   UNL     1      35.111 -23.759 -14.227  0.00  0.00    +0.153 C 
ATOM      4  C   UNL     1      35.641 -24.506 -12.223  0.00  0.00    +0.201 C 
ATOM      5  C   UNL     1      33.995 -24.100 -13.503  0.00  0.00    +0.077 C 
ENDROOT
BRANCH   3   9
ATOM      6  N   UNL     1      34.268 -23.566 -16.411  0.00  0.00    -0.340 NA
ATOM      7  N   UNL     1      35.410 -22.315 -18.123  0.00  0.00    -0.170 NA
ATOM      8  N   UNL     1      33.383 -23.405 -18.578  0.00  0.00    -0.293 N 
ATOM      9  C   UNL     1      35.262 -23.235 -15.564  0.00  0.00    +0.143 C 
ATOM     10  C   UNL     1      36.346 -22.460 -15.911  0.00  0.00    +0.052 C 
ATOM     11  C   UNL     1      36.368 -22.023 -17.219  0.00  0.00    +0.114 C 
ATOM     12  C   UNL     1      34.404 -23.079 -17.658  0.00  0.00    +0.141 C 
ATOM     13  H   UNL     1      32.622 -23.961 -18.293  0.00  0.00    +0.155 HD
ATOM     14  H   UNL     1      33.431 -23.075 -19.504  0.00  0.00    +0.155 HD
ENDBRANCH   3   9
BRANCH   5  16
ATOM     15  F   UNL     1      28.738 -23.698 -15.285  0.00  0.00    -0.204 F 
ATOM     16  C   UNL     1      32.638 -23.997 -13.963  0.00  0.00    +0.015 C 
ATOM     17  C   UNL     1      32.097 -22.747 -14.260  0.00  0.00    +0.004 C 
ATOM     18  C   UNL     1      31.863 -25.146 -14.112  0.00  0.00    +0.004 C 
ATOM     19  C   UNL     1      30.779 -22.646 -14.707  0.00  0.00    +0.030 C 
ATOM     20  C   UNL     1      30.545 -25.045 -14.559  0.00  0.00    +0.030 C 
ATOM     21  C   UNL     1      30.004 -23.795 -14.857  0.00  0.00    +0.140 C 
ENDBRANCH   5  16
BRANCH   1  22
ATOM     22  C   UNL     1      37.566 -23.842 -13.670  0.00  0.00    +0.075 C 
BRANCH  22  23
ATOM     23  C   UNL     1      38.350 -25.095 -13.456  0.00  0.00    +0.016 C 
ATOM     24  C   UNL     1      38.305 -26.163 -14.502  0.00  0.00    +0.001 C 
ATOM     25  C   UNL     1      39.551 -25.350 -14.310  0.00  0.00    +0.001 C 
ENDBRANCH  22  23
ENDBRANCH   1  22
TORSDOF 4
ENDMDL
MODEL 7
REMARK VINA RESULT:      -8.8      4.532      7.492
REMARK  Name = 5172
REMARK  4 active torsions:
REMARK  status: ('A' for Active; 'I' for Inactive)
REMARK    1  A    between atoms: N_1  and  C_22
REMARK    2  A    between atoms: C_3  and  C_9
REMARK    3  A    between atoms: C_5  and  C_16
REMARK    4  A    between atoms: C_22  and  C_23
REMARK                            x       y       z     vdW  Elec       q    Type
REMARK                         _______ _______ _______ _____ _____    ______ ____
ROOT
ATOM      1  N   UNL     1      33.385 -14.155 -25.446  0.00  0.00    -0.243 NA
ATOM      2  N   UNL     1      33.769 -12.221 -26.467  0.00  0.00    -0.255 NA
ATOM      3  C   UNL     1      33.392 -13.207 -24.462  0.00  0.00    +0.153 C 
ATOM      4  C   UNL     1      33.616 -13.516 -26.632  0.00  0.00    +0.201 C 
ATOM      5  C   UNL     1      33.632 -12.025 -25.117  0.00  0.00    +0.077 C 
ENDROOT
BRANCH   3   9
ATOM      6  N   UNL     1      34.111 -14.310 -22.517  0.00  0.00    -0.340 NA
ATOM      7  N   UNL     1      32.918 -14.145 -20.430  0.00  0.00    -0.170 NA
ATOM      8  N   UNL     1      34.871 -15.433 -20.602  0.00  0.00    -0.293 N 
ATOM      9  C   UNL     1      33.182 -13.502 -23.063  0.00  0.00    +0.143 C 
ATOM     10  C   UNL     1      32.109 -12.980 -22.375  0.00  0.00    +0.052 C 
ATOM     11  C   UNL     1      32.027 -13.340 -21.045  0.00  0.00    +0.114 C 
ATOM     12  C   UNL     1      33.920 -14.587 -21.213  0.00  0.00    +0.141 C 
ATOM     13  H   UNL     1      35.625 -15.787 -21.127  0.00  0.00    +0.155 HD
ATOM     14  H   UNL     1      34.781 -15.669 -19.650  0.00  0.00    +0.155 HD
ENDBRANCH   3   9
BRANCH   5  16
ATOM     15  F   UNL     1      34.014  -7.017 -22.721  0.00  0.00    -0.204 F 
ATOM     16  C   UNL     1      33.730 -10.733 -24.499  0.00  0.00    +0.015 C 
ATOM     17  C   UNL     1      34.904  -9.991 -24.620  0.00  0.00    +0.004 C 
ATOM     18  C   UNL     1      32.652 -10.221 -23.778  0.00  0.00    +0.004 C 
ATOM     19  C   UNL     1      35.000  -8.735 -24.019  0.00  0.00    +0.030 C 
ATOM     20  C   UNL     1      32.748  -8.966 -23.178  0.00  0.00    +0.030 C 
ATOM     21  C   UNL     1      33.922  -8.223 -23.298  0.00  0.00    +0.140 C 
ENDBRANCH   5  16
BRANCH   1  22
ATOM     22  C   UNL     1      33.174 -15.576 -25.290  0.00  0.00    +0.075 C 
BRANCH  22  23
ATOM     23  C   UNL     1      34.456 -16.342 -25.325  0.00  0.00    +0.016 C 
ATOM     24  C   UNL     1      34.899 -17.067 -24.095  0.00  0.00    +0.001 C 
ATOM     25  C   UNL     1      34.406 -17.837 -25.285  0.00  0.00    +0.001 C 
ENDBRANCH  22  23
ENDBRANCH   1  22
TORSDOF 4
ENDMDL
MODEL 8
REMARK VINA RESULT:      -8.5      6.439     10.276
REMARK  Name = 5172
REMARK  4 active torsions:
REMARK  status: ('A' for Active; 'I' for Inactive)
REMARK    1  A    between atoms: N_1  and  C_22
REMARK    2  A    between atoms: C_3  and  C_9
REMARK    3  A    between atoms: C_5  and  C_16
REMARK    4  A    between atoms: C_22  and  C_23
REMARK                            x       y       z     vdW  Elec       q    Type
REMARK                         _______ _______ _______ _____ _____    ______ ____
ROOT
ATOM      1  N   UNL     1      32.520 -23.706 -15.909  0.00  0.00    -0.243 NA
ATOM      2  N   UNL     1      32.183 -22.627 -17.821  0.00  0.00    -0.255 NA
ATOM      3  C   UNL     1      33.755 -23.309 -16.337  0.00  0.00    +0.153 C 
ATOM      4  C   UNL     1      31.608 -23.275 -16.832  0.00  0.00    +0.201 C 
ATOM      5  C   UNL     1      33.519 -22.647 -17.517  0.00  0.00    +0.077 C 
ENDROOT
BRANCH   3   9
ATOM      6  N   UNL     1      35.494 -24.809 -15.844  0.00  0.00    -0.340 NA
ATOM      7  N   UNL     1      37.288 -24.246 -14.338  0.00  0.00    -0.170 NA
ATOM      8  N   UNL     1      37.208 -26.343 -15.384  0.00  0.00    -0.293 N 
ATOM      9  C   UNL     1      34.979 -23.584 -15.620  0.00  0.00    +0.143 C 
ATOM     10  C   UNL     1      35.545 -22.647 -14.786  0.00  0.00    +0.052 C 
ATOM     11  C   UNL     1      36.713 -23.037 -14.163  0.00  0.00    +0.114 C 
ATOM     12  C   UNL     1      36.635 -25.069 -15.179  0.00  0.00    +0.141 C 
ATOM     13  H   UNL     1      36.774 -26.987 -15.990  0.00  0.00    +0.155 HD
ATOM     14  H   UNL     1      38.043 -26.588 -14.924  0.00  0.00    +0.155 HD
ENDBRANCH   3   9
BRANCH   5  16
ATOM     15  F   UNL     1      37.403 -20.302 -20.740  0.00  0.00    -0.204 F 
ATOM     16  C   UNL     1      34.521 -22.042 -18.348  0.00  0.00    +0.015 C 
ATOM     17  C   UNL     1      35.861 -22.078 -17.963  0.00  0.00    +0.004 C 
ATOM     18  C   UNL     1      34.154 -21.419 -19.541  0.00  0.00    +0.004 C 
ATOM     19  C   UNL     1      36.835 -21.490 -18.772  0.00  0.00    +0.030 C 
ATOM     20  C   UNL     1      35.128 -20.832 -20.349  0.00  0.00    +0.030 C 
ATOM     21  C   UNL     1      36.468 -20.867 -19.964  0.00  0.00    +0.140 C 
ENDBRANCH   5  16
BRANCH   1  22
ATOM     22  C   UNL     1      32.206 -24.446 -14.708  0.00  0.00    +0.075 C 
BRANCH  22  23
ATOM     23  C   UNL     1      30.865 -24.084 -14.159  0.00  0.00    +0.016 C 
ATOM     24  C   UNL     1      29.713 -25.009 -14.394  0.00  0.00    +0.001 C 
ATOM     25  C   UNL     1      30.310 -24.883 -13.023  0.00  0.00    +0.001 C 
ENDBRANCH  22  23
ENDBRANCH   1  22
TORSDOF 4
ENDMDL
MODEL 9
REMARK VINA RESULT:      -8.5      3.162      5.640
REMARK  Name = 5172
REMARK  4 active torsions:
REMARK  status: ('A' for Active; 'I' for Inactive)
REMARK    1  A    between atoms: N_1  and  C_22
REMARK    2  A    between atoms: C_3  and  C_9
REMARK    3  A    between atoms: C_5  and  C_16
REMARK    4  A    between atoms: C_22  and  C_23
REMARK                            x       y       z     vdW  Elec       q    Type
REMARK                         _______ _______ _______ _____ _____    ______ ____
ROOT
ATOM      1  N   UNL     1      32.015 -12.231 -21.890  0.00  0.00    -0.243 NA
ATOM      2  N   UNL     1      32.672 -13.729 -20.388  0.00  0.00    -0.255 NA
ATOM      3  C   UNL     1      32.778 -13.135 -22.573  0.00  0.00    +0.153 C 
ATOM      4  C   UNL     1      31.980 -12.629 -20.582  0.00  0.00    +0.201 C 
ATOM      5  C   UNL     1      33.171 -14.047 -21.624  0.00  0.00    +0.077 C 
ENDROOT
BRANCH   3   9
ATOM      6  N   UNL     1      32.527 -14.055 -24.720  0.00  0.00    -0.340 NA
ATOM      7  N   UNL     1      33.473 -13.021 -26.679  0.00  0.00    -0.170 NA
ATOM      8  N   UNL     1      32.247 -15.014 -26.842  0.00  0.00    -0.293 N 
ATOM      9  C   UNL     1      33.048 -13.049 -23.990  0.00  0.00    +0.143 C 
ATOM     10  C   UNL     1      33.781 -12.010 -24.517  0.00  0.00    +0.052 C 
ATOM     11  C   UNL     1      33.964 -12.048 -25.884  0.00  0.00    +0.114 C 
ATOM     12  C   UNL     1      32.775 -13.978 -26.041  0.00  0.00    +0.141 C 
ATOM     13  H   UNL     1      31.727 -15.742 -26.428  0.00  0.00    +0.155 HD
ATOM     14  H   UNL     1      32.397 -15.010 -27.815  0.00  0.00    +0.155 HD
ENDBRANCH   3   9
BRANCH   5  16
ATOM     15  F   UNL     1      36.374 -18.503 -22.552  0.00  0.00    -0.204 F 
ATOM     16  C   UNL     1      33.998 -15.196 -21.864  0.00  0.00    +0.015 C 
ATOM     17  C   UNL     1      34.230 -16.113 -20.839  0.00  0.00    +0.004 C 
ATOM     18  C   UNL     1      34.567 -15.396 -23.121  0.00  0.00    +0.004 C 
ATOM     19  C   UNL     1      35.033 -17.230 -21.072  0.00  0.00    +0.030 C 
ATOM     20  C   UNL     1      35.370 -16.513 -23.354  0.00  0.00    +0.030 C 
ATOM     21  C   UNL     1      35.602 -17.430 -22.329  0.00  0.00    +0.140 C 
ENDBRANCH   5  16
BRANCH   1  22
ATOM     22  C   UNL     1      31.355 -11.063 -22.425  0.00  0.00    +0.075 C 
BRANCH  22  23
ATOM     23  C   UNL     1      31.926  -9.794 -21.881  0.00  0.00    +0.016 C 
ATOM     24  C   UNL     1      32.944  -9.055 -22.690  0.00  0.00    +0.001 C 
ATOM     25  C   UNL     1      31.559  -8.499 -22.531  0.00  0.00    +0.001 C 
ENDBRANCH  22  23
ENDBRANCH   1  22
TORSDOF 4
ENDMDL
