MODEL 1
REMARK VINA RESULT:      -3.0      0.000      0.000
REMARK  Name = 1031
REMARK  2 active torsions:
REMARK  status: ('A' for Active; 'I' for Inactive)
REMARK    1  A    between atoms: C_1  and  O_2
REMARK    2  A    between atoms: C_1  and  C_4
REMARK                            x       y       z     vdW  Elec       q    Type
REMARK                         _______ _______ _______ _____ _____    ______ ____
ROOT
ATOM      1  C   UNL     1      33.674 -21.594 -19.479  0.00  0.00    +0.137 C 
ENDROOT
BRANCH   1   2
ATOM      2  O   UNL     1      32.679 -22.266 -18.721  0.00  0.00    -0.382 OA
ATOM      3  H   UNL     1      31.819 -22.173 -19.160  0.00  0.00    +0.210 HD
ENDBRANCH   1   2
BRANCH   1   4
ATOM      4  C   UNL     1      33.031 -20.423 -20.206  0.00  0.00    +0.032 C 
ATOM      5  C   UNL     1      34.056 -19.594 -20.959  0.00  0.00    +0.003 C 
ENDBRANCH   1   4
TORSDOF 2
ENDMDL
MODEL 2
REMARK VINA RESULT:      -3.0     10.118     10.238
REMARK  Name = 1031
REMARK  2 active torsions:
REMARK  status: ('A' for Active; 'I' for Inactive)
REMARK    1  A    between atoms: C_1  and  O_2
REMARK    2  A    between atoms: C_1  and  C_4
REMARK                            x       y       z     vdW  Elec       q    Type
REMARK                         _______ _______ _______ _____ _____    ______ ____
ROOT
ATOM      1  C   UNL     1      41.303 -15.752 -15.870  0.00  0.00    +0.137 C 
ENDROOT
BRANCH   1   2
ATOM      2  O   UNL     1      40.095 -16.007 -15.168  0.00  0.00    -0.382 OA
ATOM      3  H   UNL     1      39.725 -15.171 -14.845  0.00  0.00    +0.210 HD
ENDBRANCH   1   2
BRANCH   1   4
ATOM      4  C   UNL     1      41.254 -14.341 -16.435  0.00  0.00    +0.032 C 
ATOM      5  C   UNL     1      41.243 -14.340 -17.953  0.00  0.00    +0.003 C 
ENDBRANCH   1   4
TORSDOF 2
ENDMDL
MODEL 3
REMARK VINA RESULT:      -3.0     11.195     11.540
REMARK  Name = 1031
REMARK  2 active torsions:
REMARK  status: ('A' for Active; 'I' for Inactive)
REMARK    1  A    between atoms: C_1  and  O_2
REMARK    2  A    between atoms: C_1  and  C_4
REMARK                            x       y       z     vdW  Elec       q    Type
REMARK                         _______ _______ _______ _____ _____    ______ ____
ROOT
ATOM      1  C   UNL     1      40.642 -13.540 -14.389  0.00  0.00    +0.137 C 
ENDROOT
BRANCH   1   2
ATOM      2  O   UNL     1      40.913 -13.481 -12.996  0.00  0.00    -0.382 OA
ATOM      3  H   UNL     1      41.871 -13.417 -12.855  0.00  0.00    +0.210 HD
ENDBRANCH   1   2
BRANCH   1   4
ATOM      4  C   UNL     1      41.017 -14.920 -14.906  0.00  0.00    +0.032 C 
ATOM      5  C   UNL     1      41.197 -14.930 -16.413  0.00  0.00    +0.003 C 
ENDBRANCH   1   4
TORSDOF 2
ENDMDL
MODEL 4
REMARK VINA RESULT:      -3.0      1.334      1.623
REMARK  Name = 1031
REMARK  2 active torsions:
REMARK  status: ('A' for Active; 'I' for Inactive)
REMARK    1  A    between atoms: C_1  and  O_2
REMARK    2  A    between atoms: C_1  and  C_4
REMARK                            x       y       z     vdW  Elec       q    Type
REMARK                         _______ _______ _______ _____ _____    ______ ____
ROOT
ATOM      1  C   UNL     1      33.983 -22.429 -18.763  0.00  0.00    +0.137 C 
ENDROOT
BRANCH   1   2
ATOM      2  O   UNL     1      33.954 -23.652 -19.486  0.00  0.00    -0.382 OA
ATOM      3  H   UNL     1      33.562 -24.346 -18.932  0.00  0.00    +0.210 HD
ENDBRANCH   1   2
BRANCH   1   4
ATOM      4  C   UNL     1      34.343 -21.302 -19.719  0.00  0.00    +0.032 C 
ATOM      5  C   UNL     1      33.122 -20.504 -20.138  0.00  0.00    +0.003 C 
ENDBRANCH   1   4
TORSDOF 2
ENDMDL
MODEL 5
REMARK VINA RESULT:      -3.0      9.339      9.787
REMARK  Name = 1031
REMARK  2 active torsions:
REMARK  status: ('A' for Active; 'I' for Inactive)
REMARK    1  A    between atoms: C_1  and  O_2
REMARK    2  A    between atoms: C_1  and  C_4
REMARK                            x       y       z     vdW  Elec       q    Type
REMARK                         _______ _______ _______ _____ _____    ______ ____
ROOT
ATOM      1  C   UNL     1      40.301 -25.850 -14.651  0.00  0.00    +0.137 C 
ENDROOT
BRANCH   1   2
ATOM      2  O   UNL     1      40.509 -25.976 -16.050  0.00  0.00    -0.382 OA
ATOM      3  H   UNL     1      41.049 -25.234 -16.365  0.00  0.00    +0.210 HD
ENDBRANCH   1   2
BRANCH   1   4
ATOM      4  C   UNL     1      38.814 -25.673 -14.388  0.00  0.00    +0.032 C 
ATOM      5  C   UNL     1      38.507 -25.596 -12.903  0.00  0.00    +0.003 C 
ENDBRANCH   1   4
TORSDOF 2
ENDMDL
MODEL 6
REMARK VINA RESULT:      -2.9     12.537     13.350
REMARK  Name = 1031
REMARK  2 active torsions:
REMARK  status: ('A' for Active; 'I' for Inactive)
REMARK    1  A    between atoms: C_1  and  O_2
REMARK    2  A    between atoms: C_1  and  C_4
REMARK                            x       y       z     vdW  Elec       q    Type
REMARK                         _______ _______ _______ _____ _____    ______ ____
ROOT
ATOM      1  C   UNL     1      34.322  -9.191 -23.915  0.00  0.00    +0.137 C 
ENDROOT
BRANCH   1   2
ATOM      2  O   UNL     1      35.465 -10.004 -24.136  0.00  0.00    -0.382 OA
ATOM      3  H   UNL     1      35.845  -9.800 -25.005  0.00  0.00    +0.210 HD
ENDBRANCH   1   2
BRANCH   1   4
ATOM      4  C   UNL     1      34.779  -7.791 -23.535  0.00  0.00    +0.032 C 
ATOM      5  C   UNL     1      34.426  -6.772 -24.603  0.00  0.00    +0.003 C 
ENDBRANCH   1   4
TORSDOF 2
ENDMDL
MODEL 7
REMARK VINA RESULT:      -2.9      2.814      3.291
REMARK  Name = 1031
REMARK  2 active torsions:
REMARK  status: ('A' for Active; 'I' for Inactive)
REMARK    1  A    between atoms: C_1  and  O_2
REMARK    2  A    between atoms: C_1  and  C_4
REMARK                            x       y       z     vdW  Elec       q    Type
REMARK                         _______ _______ _______ _____ _____    ______ ____
ROOT
ATOM      1  C   UNL     1      35.223 -19.478 -21.004  0.00  0.00    +0.137 C 
ENDROOT
BRANCH   1   2
ATOM      2  O   UNL     1      35.710 -18.187 -20.667  0.00  0.00    -0.382 OA
ATOM      3  H   UNL     1      34.983 -17.650 -20.314  0.00  0.00    +0.210 HD
ENDBRANCH   1   2
BRANCH   1   4
ATOM      4  C   UNL     1      33.703 -19.444 -21.016  0.00  0.00    +0.032 C 
ATOM      5  C   UNL     1      33.105 -20.536 -20.147  0.00  0.00    +0.003 C 
ENDBRANCH   1   4
TORSDOF 2
ENDMDL
MODEL 8
REMARK VINA RESULT:      -2.9     11.275     11.895
REMARK  Name = 1031
REMARK  2 active torsions:
REMARK  status: ('A' for Active; 'I' for Inactive)
REMARK    1  A    between atoms: C_1  and  O_2
REMARK    2  A    between atoms: C_1  and  C_4
REMARK                            x       y       z     vdW  Elec       q    Type
REMARK                         _______ _______ _______ _____ _____    ______ ____
ROOT
ATOM      1  C   UNL     1      32.246  -8.860 -20.350  0.00  0.00    +0.137 C 
ENDROOT
BRANCH   1   2
ATOM      2  O   UNL     1      33.021  -7.862 -19.702  0.00  0.00    -0.382 OA
ATOM      3  H   UNL     1      33.821  -8.265 -19.329  0.00  0.00    +0.210 HD
ENDBRANCH   1   2
BRANCH   1   4
ATOM      4  C   UNL     1      31.863  -9.924 -19.332  0.00  0.00    +0.032 C 
ATOM      5  C   UNL     1      31.255 -11.147 -19.994  0.00  0.00    +0.003 C 
ENDBRANCH   1   4
TORSDOF 2
ENDMDL
MODEL 9
REMARK VINA RESULT:      -2.9      5.628      6.391
REMARK  Name = 1031
REMARK  2 active torsions:
REMARK  status: ('A' for Active; 'I' for Inactive)
REMARK    1  A    between atoms: C_1  and  O_2
REMARK    2  A    between atoms: C_1  and  C_4
REMARK                            x       y       z     vdW  Elec       q    Type
REMARK                         _______ _______ _______ _____ _____    ______ ____
ROOT
ATOM      1  C   UNL     1      34.550 -17.177 -24.593  0.00  0.00    +0.137 C 
ENDROOT
BRANCH   1   2
ATOM      2  O   UNL     1      34.824 -16.735 -25.914  0.00  0.00    -0.382 OA
ATOM      3  H   UNL     1      35.608 -16.163 -25.909  0.00  0.00    +0.210 HD
ENDBRANCH   1   2
BRANCH   1   4
ATOM      4  C   UNL     1      34.556 -18.698 -24.571  0.00  0.00    +0.032 C 
ATOM      5  C   UNL     1      34.836 -19.242 -23.182  0.00  0.00    +0.003 C 
ENDBRANCH   1   4
TORSDOF 2
ENDMDL
