MODEL 1
REMARK VINA RESULT:      -2.9      0.000      0.000
REMARK  Name = 700
REMARK  3 active torsions:
REMARK  status: ('A' for Active; 'I' for Inactive)
REMARK    1  A    between atoms: N_1  and  CA_5
REMARK    2  A    between atoms: CA_5  and  C_6
REMARK    3  A    between atoms: C_6  and  O_7
REMARK                            x       y       z     vdW  Elec       q    Type
REMARK                         _______ _______ _______ _____ _____    ______ ____
ROOT
ATOM      1  N   GLY A   1      37.961 -25.787 -15.329  0.00  0.00    +0.382 N 
ATOM      2  H1  GLY A   1      38.330 -26.376 -16.075  0.00  0.00    -0.089 HD
ATOM      3  H2  GLY A   1      37.841 -24.835 -15.675  0.00  0.00    -0.089 HD
ATOM      4  H3  GLY A   1      37.059 -26.153 -15.023  0.00  0.00    -0.089 HD
ENDROOT
BRANCH   1   5
ATOM      5  CA  GLY A   1      38.889 -25.784 -14.207  0.00  0.00    -0.054 C 
BRANCH   5   6
ATOM      6  C   GLY A   1      40.313 -25.558 -14.689  0.00  0.00    +0.113 C 
BRANCH   6   7
ATOM      7  O   GLY A   1      40.399 -25.943 -16.055  0.00  0.00    -0.384 OA
ATOM      8  H   GLY A   1      41.230 -26.421 -16.203  0.00  0.00    +0.210 HD
ENDBRANCH   6   7
ENDBRANCH   5   6
ENDBRANCH   1   5
TORSDOF 3
ENDMDL
MODEL 2
REMARK VINA RESULT:      -2.8      2.430      2.817
REMARK  Name = 700
REMARK  3 active torsions:
REMARK  status: ('A' for Active; 'I' for Inactive)
REMARK    1  A    between atoms: N_1  and  CA_5
REMARK    2  A    between atoms: CA_5  and  C_6
REMARK    3  A    between atoms: C_6  and  O_7
REMARK                            x       y       z     vdW  Elec       q    Type
REMARK                         _______ _______ _______ _____ _____    ______ ____
ROOT
ATOM      1  N   GLY A   1      38.521 -25.025 -15.239  0.00  0.00    +0.382 N 
ATOM      2  H1  GLY A   1      39.530 -25.100 -15.358  0.00  0.00    -0.089 HD
ATOM      3  H2  GLY A   1      38.307 -24.228 -14.639  0.00  0.00    -0.089 HD
ATOM      4  H3  GLY A   1      38.081 -24.891 -16.150  0.00  0.00    -0.089 HD
ENDROOT
BRANCH   1   5
ATOM      5  CA  GLY A   1      38.012 -26.244 -14.629  0.00  0.00    -0.054 C 
BRANCH   5   6
ATOM      6  C   GLY A   1      36.643 -26.595 -15.190  0.00  0.00    +0.113 C 
BRANCH   6   7
ATOM      7  O   GLY A   1      36.818 -27.345 -16.385  0.00  0.00    -0.384 OA
ATOM      8  H   GLY A   1      37.762 -27.512 -16.526  0.00  0.00    +0.210 HD
ENDBRANCH   6   7
ENDBRANCH   5   6
ENDBRANCH   1   5
TORSDOF 3
ENDMDL
MODEL 3
REMARK VINA RESULT:      -2.8     11.739     11.848
REMARK  Name = 700
REMARK  3 active torsions:
REMARK  status: ('A' for Active; 'I' for Inactive)
REMARK    1  A    between atoms: N_1  and  CA_5
REMARK    2  A    between atoms: CA_5  and  C_6
REMARK    3  A    between atoms: C_6  and  O_7
REMARK                            x       y       z     vdW  Elec       q    Type
REMARK                         _______ _______ _______ _____ _____    ______ ____
ROOT
ATOM      1  N   GLY A   1      40.535 -15.618 -15.211  0.00  0.00    +0.382 N 
ATOM      2  H1  GLY A   1      39.700 -15.600 -15.794  0.00  0.00    -0.089 HD
ATOM      3  H2  GLY A   1      40.280 -15.877 -14.258  0.00  0.00    -0.089 HD
ATOM      4  H3  GLY A   1      41.195 -16.302 -15.583  0.00  0.00    -0.089 HD
ENDROOT
BRANCH   1   5
ATOM      5  CA  GLY A   1      41.153 -14.300 -15.208  0.00  0.00    -0.054 C 
BRANCH   5   6
ATOM      6  C   GLY A   1      40.420 -13.365 -14.259  0.00  0.00    +0.113 C 
BRANCH   6   7
ATOM      7  O   GLY A   1      40.975 -13.508 -12.958  0.00  0.00    -0.384 OA
ATOM      8  H   GLY A   1      41.932 -13.363 -12.998  0.00  0.00    +0.210 HD
ENDBRANCH   6   7
ENDBRANCH   5   6
ENDBRANCH   1   5
TORSDOF 3
ENDMDL
MODEL 4
REMARK VINA RESULT:      -2.8      3.491      3.544
REMARK  Name = 700
REMARK  3 active torsions:
REMARK  status: ('A' for Active; 'I' for Inactive)
REMARK    1  A    between atoms: N_1  and  CA_5
REMARK    2  A    between atoms: CA_5  and  C_6
REMARK    3  A    between atoms: C_6  and  O_7
REMARK                            x       y       z     vdW  Elec       q    Type
REMARK                         _______ _______ _______ _____ _____    ______ ____
ROOT
ATOM      1  N   GLY A   1      36.083 -26.814 -15.133  0.00  0.00    +0.382 N 
ATOM      2  H1  GLY A   1      35.960 -25.904 -15.575  0.00  0.00    -0.089 HD
ATOM      3  H2  GLY A   1      35.275 -27.019 -14.545  0.00  0.00    -0.089 HD
ATOM      4  H3  GLY A   1      36.170 -27.532 -15.852  0.00  0.00    -0.089 HD
ENDROOT
BRANCH   1   5
ATOM      5  CA  GLY A   1      37.288 -26.798 -14.316  0.00  0.00    -0.054 C 
BRANCH   5   6
ATOM      6  C   GLY A   1      37.151 -25.799 -13.178  0.00  0.00    +0.113 C 
BRANCH   6   7
ATOM      7  O   GLY A   1      36.815 -26.503 -11.990  0.00  0.00    -0.384 OA
ATOM      8  H   GLY A   1      36.698 -27.444 -12.194  0.00  0.00    +0.210 HD
ENDBRANCH   6   7
ENDBRANCH   5   6
ENDBRANCH   1   5
TORSDOF 3
ENDMDL
MODEL 5
REMARK VINA RESULT:      -2.8      3.291      3.411
REMARK  Name = 700
REMARK  3 active torsions:
REMARK  status: ('A' for Active; 'I' for Inactive)
REMARK    1  A    between atoms: N_1  and  CA_5
REMARK    2  A    between atoms: CA_5  and  C_6
REMARK    3  A    between atoms: C_6  and  O_7
REMARK                            x       y       z     vdW  Elec       q    Type
REMARK                         _______ _______ _______ _____ _____    ______ ____
ROOT
ATOM      1  N   GLY A   1      35.574 -25.201 -13.693  0.00  0.00    +0.382 N 
ATOM      2  H1  GLY A   1      35.396 -26.087 -13.220  0.00  0.00    -0.089 HD
ATOM      3  H2  GLY A   1      34.714 -24.654 -13.725  0.00  0.00    -0.089 HD
ATOM      4  H3  GLY A   1      36.288 -24.681 -13.182  0.00  0.00    -0.089 HD
ENDROOT
BRANCH   1   5
ATOM      5  CA  GLY A   1      36.038 -25.458 -15.048  0.00  0.00    -0.054 C 
BRANCH   5   6
ATOM      6  C   GLY A   1      36.877 -26.725 -15.097  0.00  0.00    +0.113 C 
BRANCH   6   7
ATOM      7  O   GLY A   1      36.720 -27.327 -16.375  0.00  0.00    -0.384 OA
ATOM      8  H   GLY A   1      37.279 -26.866 -17.020  0.00  0.00    +0.210 HD
ENDBRANCH   6   7
ENDBRANCH   5   6
ENDBRANCH   1   5
TORSDOF 3
ENDMDL
MODEL 6
REMARK VINA RESULT:      -2.7     19.338     19.374
REMARK  Name = 700
REMARK  3 active torsions:
REMARK  status: ('A' for Active; 'I' for Inactive)
REMARK    1  A    between atoms: N_1  and  CA_5
REMARK    2  A    between atoms: CA_5  and  C_6
REMARK    3  A    between atoms: C_6  and  O_7
REMARK                            x       y       z     vdW  Elec       q    Type
REMARK                         _______ _______ _______ _____ _____    ______ ____
ROOT
ATOM      1  N   GLY A   1      32.487  -9.517 -19.059  0.00  0.00    +0.382 N 
ATOM      2  H1  GLY A   1      32.364  -8.729 -18.424  0.00  0.00    -0.089 HD
ATOM      3  H2  GLY A   1      33.454  -9.839 -19.018  0.00  0.00    -0.089 HD
ATOM      4  H3  GLY A   1      31.865 -10.277 -18.781  0.00  0.00    -0.089 HD
ENDROOT
BRANCH   1   5
ATOM      5  CA  GLY A   1      32.169  -9.101 -20.417  0.00  0.00    -0.054 C 
BRANCH   5   6
ATOM      6  C   GLY A   1      32.674  -7.692 -20.679  0.00  0.00    +0.113 C 
BRANCH   6   7
ATOM      7  O   GLY A   1      33.156  -7.145 -19.459  0.00  0.00    -0.384 OA
ATOM      8  H   GLY A   1      33.809  -7.748 -19.071  0.00  0.00    +0.210 HD
ENDBRANCH   6   7
ENDBRANCH   5   6
ENDBRANCH   1   5
TORSDOF 3
ENDMDL
MODEL 7
REMARK VINA RESULT:      -2.7     11.367     11.493
REMARK  Name = 700
REMARK  3 active torsions:
REMARK  status: ('A' for Active; 'I' for Inactive)
REMARK    1  A    between atoms: N_1  and  CA_5
REMARK    2  A    between atoms: CA_5  and  C_6
REMARK    3  A    between atoms: C_6  and  O_7
REMARK                            x       y       z     vdW  Elec       q    Type
REMARK                         _______ _______ _______ _____ _____    ______ ____
ROOT
ATOM      1  N   GLY A   1      40.738 -13.509 -14.201  0.00  0.00    +0.382 N 
ATOM      2  H1  GLY A   1      40.817 -14.327 -13.597  0.00  0.00    -0.089 HD
ATOM      3  H2  GLY A   1      39.754 -13.315 -14.384  0.00  0.00    -0.089 HD
ATOM      4  H3  GLY A   1      41.163 -12.704 -13.740  0.00  0.00    -0.089 HD
ENDROOT
BRANCH   1   5
ATOM      5  CA  GLY A   1      41.425 -13.766 -15.459  0.00  0.00    -0.054 C 
BRANCH   5   6
ATOM      6  C   GLY A   1      40.988 -15.098 -16.047  0.00  0.00    +0.113 C 
BRANCH   6   7
ATOM      7  O   GLY A   1      40.167 -15.768 -15.099  0.00  0.00    -0.384 OA
ATOM      8  H   GLY A   1      39.946 -15.161 -14.376  0.00  0.00    +0.210 HD
ENDBRANCH   6   7
ENDBRANCH   5   6
ENDBRANCH   1   5
TORSDOF 3
ENDMDL
MODEL 8
REMARK VINA RESULT:      -2.7      1.720      1.941
REMARK  Name = 700
REMARK  3 active torsions:
REMARK  status: ('A' for Active; 'I' for Inactive)
REMARK    1  A    between atoms: N_1  and  CA_5
REMARK    2  A    between atoms: CA_5  and  C_6
REMARK    3  A    between atoms: C_6  and  O_7
REMARK                            x       y       z     vdW  Elec       q    Type
REMARK                         _______ _______ _______ _____ _____    ______ ____
ROOT
ATOM      1  N   GLY A   1      36.172 -26.854 -15.182  0.00  0.00    +0.382 N 
ATOM      2  H1  GLY A   1      36.463 -27.463 -15.945  0.00  0.00    -0.089 HD
ATOM      3  H2  GLY A   1      35.983 -25.920 -15.544  0.00  0.00    -0.089 HD
ATOM      4  H3  GLY A   1      35.326 -27.228 -14.752  0.00  0.00    -0.089 HD
ENDROOT
BRANCH   1   5
ATOM      5  CA  GLY A   1      37.232 -26.783 -14.186  0.00  0.00    -0.054 C 
BRANCH   5   6
ATOM      6  C   GLY A   1      38.372 -25.905 -14.677  0.00  0.00    +0.113 C 
BRANCH   6   7
ATOM      7  O   GLY A   1      39.567 -26.675 -14.691  0.00  0.00    -0.384 OA
ATOM      8  H   GLY A   1      39.930 -26.724 -13.793  0.00  0.00    +0.210 HD
ENDBRANCH   6   7
ENDBRANCH   5   6
ENDBRANCH   1   5
TORSDOF 3
ENDMDL
MODEL 9
REMARK VINA RESULT:      -2.7     10.741     10.884
REMARK  Name = 700
REMARK  3 active torsions:
REMARK  status: ('A' for Active; 'I' for Inactive)
REMARK    1  A    between atoms: N_1  and  CA_5
REMARK    2  A    between atoms: CA_5  and  C_6
REMARK    3  A    between atoms: C_6  and  O_7
REMARK                            x       y       z     vdW  Elec       q    Type
REMARK                         _______ _______ _______ _____ _____    ______ ____
ROOT
ATOM      1  N   GLY A   1      41.203 -14.539 -17.780  0.00  0.00    +0.382 N 
ATOM      2  H1  GLY A   1      40.738 -15.405 -18.049  0.00  0.00    -0.089 HD
ATOM      3  H2  GLY A   1      42.050 -14.421 -18.336  0.00  0.00    -0.089 HD
ATOM      4  H3  GLY A   1      40.577 -13.751 -17.946  0.00  0.00    -0.089 HD
ENDROOT
BRANCH   1   5
ATOM      5  CA  GLY A   1      41.552 -14.593 -16.368  0.00  0.00    -0.054 C 
BRANCH   5   6
ATOM      6  C   GLY A   1      41.312 -15.986 -15.808  0.00  0.00    +0.113 C 
BRANCH   6   7
ATOM      7  O   GLY A   1      40.065 -15.995 -15.126  0.00  0.00    -0.384 OA
ATOM      8  H   GLY A   1      39.400 -15.539 -15.663  0.00  0.00    +0.210 HD
ENDBRANCH   6   7
ENDBRANCH   5   6
ENDBRANCH   1   5
TORSDOF 3
ENDMDL
