MODEL 1
REMARK VINA RESULT:     -12.2      0.000      0.000
REMARK  Name = 5289109
REMARK  6 active torsions:
REMARK  status: ('A' for Active; 'I' for Inactive)
REMARK    1  A    between atoms: C_3  and  C_9
REMARK    2  A    between atoms: C_4  and  C_21
REMARK    3  A    between atoms: N_8  and  C_11
REMARK    4  A    between atoms: C_11  and  C_12
REMARK    5  A    between atoms: N_20  and  C_23
REMARK    6  A    between atoms: C_23  and  C_24
REMARK                            x       y       z     vdW  Elec       q    Type
REMARK                         _______ _______ _______ _____ _____    ______ ____
ROOT
ATOM      1  N   UNL     1      33.856 -15.818 -25.839  0.00  0.00    -0.244 NA
ATOM      2  N   UNL     1      32.789 -13.717 -25.336  0.00  0.00    -0.244 NA
ATOM      3  C   UNL     1      34.054 -15.992 -24.515  0.00  0.00    +0.115 C 
ATOM      4  C   UNL     1      33.030 -13.978 -24.049  0.00  0.00    +0.115 C 
ATOM      5  C   UNL     1      33.654 -15.084 -23.554  0.00  0.00    +0.100 C 
ATOM      6  C   UNL     1      33.226 -14.676 -26.173  0.00  0.00    +0.250 C 
ENDROOT
BRANCH   3   9
ATOM      7  O   UNL     1      34.910 -18.129 -24.960  0.00  0.00    -0.269 OA
ATOM      8  N   UNL     1      35.187 -17.307 -22.810  0.00  0.00    -0.296 N 
ATOM      9  C   UNL     1      34.732 -17.218 -24.132  0.00  0.00    +0.260 C 
ATOM     10  H   UNL     1      35.013 -16.550 -22.205  0.00  0.00    +0.150 HD
BRANCH   8  11
ATOM     11  C   UNL     1      35.898 -18.450 -22.284  0.00  0.00    +0.117 C 
BRANCH  11  12
ATOM     12  C   UNL     1      35.021 -19.310 -21.421  0.00  0.00    -0.003 C 
ATOM     13  C   UNL     1      35.598 -20.245 -20.571  0.00  0.00    -0.007 C 
ATOM     14  C   UNL     1      34.783 -21.042 -19.767  0.00  0.00    -0.022 C 
ATOM     15  C   UNL     1      33.640 -19.161 -21.481  0.00  0.00    -0.003 C 
ATOM     16  C   UNL     1      33.396 -20.900 -19.821  0.00  0.00    -0.004 C 
ATOM     17  C   UNL     1      32.825 -19.958 -20.678  0.00  0.00    -0.001 C 
ATOM     18  C   UNL     1      35.394 -22.050 -18.852  0.00  0.00    +0.031 C 
ENDBRANCH  11  12
ENDBRANCH   8  11
ENDBRANCH   3   9
BRANCH   4  21
ATOM     19  O   UNL     1      32.006 -13.269 -22.062  0.00  0.00    -0.269 OA
ATOM     20  N   UNL     1      32.799 -11.618 -23.485  0.00  0.00    -0.296 N 
ATOM     21  C   UNL     1      32.556 -12.932 -23.108  0.00  0.00    +0.260 C 
ATOM     22  H   UNL     1      33.247 -11.448 -24.345  0.00  0.00    +0.150 HD
BRANCH  20  23
ATOM     23  C   UNL     1      32.422 -10.493 -22.667  0.00  0.00    +0.117 C 
BRANCH  23  24
ATOM     24  C   UNL     1      32.843  -9.193 -23.263  0.00  0.00    -0.003 C 
ATOM     25  C   UNL     1      31.894  -8.203 -23.518  0.00  0.00    -0.007 C 
ATOM     26  C   UNL     1      32.287  -6.985 -24.075  0.00  0.00    -0.022 C 
ATOM     27  C   UNL     1      34.186  -8.965 -23.564  0.00  0.00    -0.003 C 
ATOM     28  C   UNL     1      33.630  -6.759 -24.375  0.00  0.00    -0.004 C 
ATOM     29  C   UNL     1      34.580  -7.748 -24.120  0.00  0.00    -0.001 C 
ATOM     30  C   UNL     1      31.273  -5.928 -24.349  0.00  0.00    +0.031 C 
ENDBRANCH  23  24
ENDBRANCH  20  23
ENDBRANCH   4  21
TORSDOF 6
ENDMDL
MODEL 2
REMARK VINA RESULT:     -12.1      1.452     10.050
REMARK  Name = 5289109
REMARK  6 active torsions:
REMARK  status: ('A' for Active; 'I' for Inactive)
REMARK    1  A    between atoms: C_3  and  C_9
REMARK    2  A    between atoms: C_4  and  C_21
REMARK    3  A    between atoms: N_8  and  C_11
REMARK    4  A    between atoms: C_11  and  C_12
REMARK    5  A    between atoms: N_20  and  C_23
REMARK    6  A    between atoms: C_23  and  C_24
REMARK                            x       y       z     vdW  Elec       q    Type
REMARK                         _______ _______ _______ _____ _____    ______ ____
ROOT
ATOM      1  N   UNL     1      32.619 -13.540 -24.227  0.00  0.00    -0.244 NA
ATOM      2  N   UNL     1      33.815 -15.434 -25.116  0.00  0.00    -0.244 NA
ATOM      3  C   UNL     1      32.844 -14.027 -22.989  0.00  0.00    +0.115 C 
ATOM      4  C   UNL     1      33.987 -15.834 -23.854  0.00  0.00    +0.115 C 
ATOM      5  C   UNL     1      33.536 -15.195 -22.737  0.00  0.00    +0.100 C 
ATOM      6  C   UNL     1      33.126 -14.283 -25.229  0.00  0.00    +0.250 C 
ENDROOT
BRANCH   3   9
ATOM      7  O   UNL     1      32.618 -13.498 -20.716  0.00  0.00    -0.269 OA
ATOM      8  N   UNL     1      31.451 -12.182 -22.228  0.00  0.00    -0.296 N 
ATOM      9  C   UNL     1      32.306 -13.241 -21.892  0.00  0.00    +0.260 C 
ATOM     10  H   UNL     1      31.244 -12.034 -23.178  0.00  0.00    +0.150 HD
BRANCH   8  11
ATOM     11  C   UNL     1      30.856 -11.296 -21.254  0.00  0.00    +0.117 C 
BRANCH  11  12
ATOM     12  C   UNL     1      31.587  -9.988 -21.163  0.00  0.00    -0.003 C 
ATOM     13  C   UNL     1      32.127  -9.422 -22.311  0.00  0.00    -0.007 C 
ATOM     14  C   UNL     1      32.804  -8.205 -22.227  0.00  0.00    -0.022 C 
ATOM     15  C   UNL     1      31.716  -9.356 -19.931  0.00  0.00    -0.003 C 
ATOM     16  C   UNL     1      32.938  -7.565 -20.995  0.00  0.00    -0.004 C 
ATOM     17  C   UNL     1      32.393  -8.140 -19.847  0.00  0.00    -0.001 C 
ATOM     18  C   UNL     1      33.388  -7.590 -23.454  0.00  0.00    +0.031 C 
ENDBRANCH  11  12
ENDBRANCH   8  11
ENDBRANCH   3   9
BRANCH   4  21
ATOM     19  O   UNL     1      35.009 -17.765 -24.708  0.00  0.00    -0.269 OA
ATOM     20  N   UNL     1      35.126 -17.437 -22.414  0.00  0.00    -0.296 N 
ATOM     21  C   UNL     1      34.745 -17.103 -23.707  0.00  0.00    +0.260 C 
ATOM     22  H   UNL     1      34.866 -16.841 -21.676  0.00  0.00    +0.150 HD
BRANCH  20  23
ATOM     23  C   UNL     1      35.887 -18.623 -22.112  0.00  0.00    +0.117 C 
BRANCH  23  24
ATOM     24  C   UNL     1      35.149 -19.556 -21.214  0.00  0.00    -0.003 C 
ATOM     25  C   UNL     1      35.848 -20.334 -20.291  0.00  0.00    -0.007 C 
ATOM     26  C   UNL     1      35.158 -21.208 -19.449  0.00  0.00    -0.022 C 
ATOM     27  C   UNL     1      33.760 -19.652 -21.295  0.00  0.00    -0.003 C 
ATOM     28  C   UNL     1      33.769 -21.302 -19.531  0.00  0.00    -0.004 C 
ATOM     29  C   UNL     1      33.070 -20.524 -20.454  0.00  0.00    -0.001 C 
ATOM     30  C   UNL     1      35.905 -22.040 -18.463  0.00  0.00    +0.031 C 
ENDBRANCH  23  24
ENDBRANCH  20  23
ENDBRANCH   4  21
TORSDOF 6
ENDMDL
MODEL 3
REMARK VINA RESULT:     -12.1      0.147     10.342
REMARK  Name = 5289109
REMARK  6 active torsions:
REMARK  status: ('A' for Active; 'I' for Inactive)
REMARK    1  A    between atoms: C_3  and  C_9
REMARK    2  A    between atoms: C_4  and  C_21
REMARK    3  A    between atoms: N_8  and  C_11
REMARK    4  A    between atoms: C_11  and  C_12
REMARK    5  A    between atoms: N_20  and  C_23
REMARK    6  A    between atoms: C_23  and  C_24
REMARK                            x       y       z     vdW  Elec       q    Type
REMARK                         _______ _______ _______ _____ _____    ______ ____
ROOT
ATOM      1  N   UNL     1      32.754 -13.654 -25.214  0.00  0.00    -0.244 NA
ATOM      2  N   UNL     1      33.785 -15.767 -25.742  0.00  0.00    -0.244 NA
ATOM      3  C   UNL     1      33.057 -13.872 -23.918  0.00  0.00    +0.115 C 
ATOM      4  C   UNL     1      34.041 -15.893 -24.438  0.00  0.00    +0.115 C 
ATOM      5  C   UNL     1      33.713 -14.999 -23.462  0.00  0.00    +0.100 C 
ATOM      6  C   UNL     1      33.142 -14.628 -26.060  0.00  0.00    +0.250 C 
ENDROOT
BRANCH   3   9
ATOM      7  O   UNL     1      32.286 -13.124 -21.833  0.00  0.00    -0.269 OA
ATOM      8  N   UNL     1      32.704 -11.511 -23.447  0.00  0.00    -0.296 N 
ATOM      9  C   UNL     1      32.648 -12.834 -22.988  0.00  0.00    +0.260 C 
ATOM     10  H   UNL     1      32.998 -11.351 -24.372  0.00  0.00    +0.150 HD
BRANCH   8  11
ATOM     11  C   UNL     1      32.352 -10.368 -22.635  0.00  0.00    +0.117 C 
BRANCH  11  12
ATOM     12  C   UNL     1      32.832  -9.081 -23.241  0.00  0.00    -0.003 C 
ATOM     13  C   UNL     1      31.921  -8.065 -23.506  0.00  0.00    -0.007 C 
ATOM     14  C   UNL     1      32.367  -6.868 -24.066  0.00  0.00    -0.022 C 
ATOM     15  C   UNL     1      34.182  -8.917 -23.529  0.00  0.00    -0.003 C 
ATOM     16  C   UNL     1      33.720  -6.695 -24.359  0.00  0.00    -0.004 C 
ATOM     17  C   UNL     1      34.627  -7.720 -24.090  0.00  0.00    -0.001 C 
ATOM     18  C   UNL     1      31.396  -5.772 -24.356  0.00  0.00    +0.031 C 
ENDBRANCH  11  12
ENDBRANCH   8  11
ENDBRANCH   3   9
BRANCH   4  21
ATOM     19  O   UNL     1      34.896 -18.025 -24.910  0.00  0.00    -0.269 OA
ATOM     20  N   UNL     1      35.223 -17.210 -22.763  0.00  0.00    -0.296 N 
ATOM     21  C   UNL     1      34.749 -17.144 -24.066  0.00  0.00    +0.260 C 
ATOM     22  H   UNL     1      35.056 -16.451 -22.160  0.00  0.00    +0.150 HD
BRANCH  20  23
ATOM     23  C   UNL     1      35.952 -18.347 -22.260  0.00  0.00    +0.117 C 
BRANCH  23  24
ATOM     24  C   UNL     1      35.102 -19.237 -21.418  0.00  0.00    -0.003 C 
ATOM     25  C   UNL     1      35.697 -20.173 -20.572  0.00  0.00    -0.007 C 
ATOM     26  C   UNL     1      34.902 -21.007 -19.784  0.00  0.00    -0.022 C 
ATOM     27  C   UNL     1      33.712 -19.135 -21.476  0.00  0.00    -0.003 C 
ATOM     28  C   UNL     1      33.513 -20.903 -19.843  0.00  0.00    -0.004 C 
ATOM     29  C   UNL     1      32.917 -19.967 -20.688  0.00  0.00    -0.001 C 
ATOM     30  C   UNL     1      35.538 -22.008 -18.880  0.00  0.00    +0.031 C 
ENDBRANCH  23  24
ENDBRANCH  20  23
ENDBRANCH   4  21
TORSDOF 6
ENDMDL
MODEL 4
REMARK VINA RESULT:     -12.1      1.942     10.852
REMARK  Name = 5289109
REMARK  6 active torsions:
REMARK  status: ('A' for Active; 'I' for Inactive)
REMARK    1  A    between atoms: C_3  and  C_9
REMARK    2  A    between atoms: C_4  and  C_21
REMARK    3  A    between atoms: N_8  and  C_11
REMARK    4  A    between atoms: C_11  and  C_12
REMARK    5  A    between atoms: N_20  and  C_23
REMARK    6  A    between atoms: C_23  and  C_24
REMARK                            x       y       z     vdW  Elec       q    Type
REMARK                         _______ _______ _______ _____ _____    ______ ____
ROOT
ATOM      1  N   UNL     1      34.244 -14.519 -21.398  0.00  0.00    -0.244 NA
ATOM      2  N   UNL     1      35.015 -16.591 -20.440  0.00  0.00    -0.244 NA
ATOM      3  C   UNL     1      34.330 -15.093 -22.616  0.00  0.00    +0.115 C 
ATOM      4  C   UNL     1      35.068 -17.071 -21.685  0.00  0.00    +0.115 C 
ATOM      5  C   UNL     1      34.746 -16.393 -22.824  0.00  0.00    +0.100 C 
ATOM      6  C   UNL     1      34.596 -15.314 -20.369  0.00  0.00    +0.250 C 
ENDROOT
BRANCH   3   9
ATOM      7  O   UNL     1      33.437 -14.749 -24.757  0.00  0.00    -0.269 OA
ATOM      8  N   UNL     1      34.182 -12.876 -23.609  0.00  0.00    -0.296 N 
ATOM      9  C   UNL     1      33.955 -14.253 -23.740  0.00  0.00    +0.260 C 
ATOM     10  H   UNL     1      34.596 -12.549 -22.778  0.00  0.00    +0.150 HD
BRANCH   8  11
ATOM     11  C   UNL     1      33.841 -11.909 -24.627  0.00  0.00    +0.117 C 
BRANCH  11  12
ATOM     12  C   UNL     1      33.868 -10.504 -24.100  0.00  0.00    -0.003 C 
ATOM     13  C   UNL     1      32.876 -10.079 -23.225  0.00  0.00    -0.007 C 
ATOM     14  C   UNL     1      32.903  -8.774 -22.733  0.00  0.00    -0.022 C 
ATOM     15  C   UNL     1      34.887  -9.642 -24.491  0.00  0.00    -0.003 C 
ATOM     16  C   UNL     1      33.921  -7.903 -23.121  0.00  0.00    -0.004 C 
ATOM     17  C   UNL     1      34.913  -8.337 -24.000  0.00  0.00    -0.001 C 
ATOM     18  C   UNL     1      31.841  -8.309 -21.794  0.00  0.00    +0.031 C 
ENDBRANCH  11  12
ENDBRANCH   8  11
ENDBRANCH   3   9
BRANCH   4  21
ATOM     19  O   UNL     1      35.506 -19.042 -22.877  0.00  0.00    -0.269 OA
ATOM     20  N   UNL     1      35.985 -19.055 -20.608  0.00  0.00    -0.296 N 
ATOM     21  C   UNL     1      35.529 -18.479 -21.785  0.00  0.00    +0.260 C 
ATOM     22  H   UNL     1      35.964 -18.522 -19.781  0.00  0.00    +0.150 HD
BRANCH  20  23
ATOM     23  C   UNL     1      36.488 -20.405 -20.549  0.00  0.00    +0.117 C 
BRANCH  23  24
ATOM     24  C   UNL     1      35.839 -21.204 -19.470  0.00  0.00    -0.003 C 
ATOM     25  C   UNL     1      36.562 -21.552 -18.330  0.00  0.00    -0.007 C 
ATOM     26  C   UNL     1      35.955 -22.300 -17.319  0.00  0.00    -0.022 C 
ATOM     27  C   UNL     1      34.509 -21.604 -19.601  0.00  0.00    -0.003 C 
ATOM     28  C   UNL     1      34.625 -22.699 -17.451  0.00  0.00    -0.004 C 
ATOM     29  C   UNL     1      33.902 -22.351 -18.592  0.00  0.00    -0.001 C 
ATOM     30  C   UNL     1      36.728 -22.673 -16.100  0.00  0.00    +0.031 C 
ENDBRANCH  23  24
ENDBRANCH  20  23
ENDBRANCH   4  21
TORSDOF 6
ENDMDL
MODEL 5
REMARK VINA RESULT:     -12.1      1.937      3.035
REMARK  Name = 5289109
REMARK  6 active torsions:
REMARK  status: ('A' for Active; 'I' for Inactive)
REMARK    1  A    between atoms: C_3  and  C_9
REMARK    2  A    between atoms: C_4  and  C_21
REMARK    3  A    between atoms: N_8  and  C_11
REMARK    4  A    between atoms: C_11  and  C_12
REMARK    5  A    between atoms: N_20  and  C_23
REMARK    6  A    between atoms: C_23  and  C_24
REMARK                            x       y       z     vdW  Elec       q    Type
REMARK                         _______ _______ _______ _____ _____    ______ ____
ROOT
ATOM      1  N   UNL     1      34.967 -16.590 -20.421  0.00  0.00    -0.244 NA
ATOM      2  N   UNL     1      34.232 -14.515 -21.400  0.00  0.00    -0.244 NA
ATOM      3  C   UNL     1      35.030 -17.111 -21.665  0.00  0.00    +0.115 C 
ATOM      4  C   UNL     1      34.325 -15.117 -22.587  0.00  0.00    +0.115 C 
ATOM      5  C   UNL     1      34.713 -16.405 -22.809  0.00  0.00    +0.100 C 
ATOM      6  C   UNL     1      34.567 -15.306 -20.364  0.00  0.00    +0.250 C 
ENDROOT
BRANCH   3   9
ATOM      7  O   UNL     1      35.357 -19.126 -22.818  0.00  0.00    -0.269 OA
ATOM      8  N   UNL     1      36.007 -19.064 -20.593  0.00  0.00    -0.296 N 
ATOM      9  C   UNL     1      35.460 -18.496 -21.750  0.00  0.00    +0.260 C 
ATOM     10  H   UNL     1      36.059 -18.511 -19.781  0.00  0.00    +0.150 HD
BRANCH   8  11
ATOM     11  C   UNL     1      36.501 -20.421 -20.526  0.00  0.00    +0.117 C 
BRANCH  11  12
ATOM     12  C   UNL     1      35.819 -21.215 -19.450  0.00  0.00    -0.003 C 
ATOM     13  C   UNL     1      36.523 -21.570 -18.306  0.00  0.00    -0.007 C 
ATOM     14  C   UNL     1      35.888 -22.305 -17.305  0.00  0.00    -0.022 C 
ATOM     15  C   UNL     1      34.488 -21.586 -19.608  0.00  0.00    -0.003 C 
ATOM     16  C   UNL     1      34.554 -22.682 -17.456  0.00  0.00    -0.004 C 
ATOM     17  C   UNL     1      33.853 -22.321 -18.607  0.00  0.00    -0.001 C 
ATOM     18  C   UNL     1      36.637 -22.693 -16.074  0.00  0.00    +0.031 C 
ENDBRANCH  11  12
ENDBRANCH   8  11
ENDBRANCH   3   9
BRANCH   4  21
ATOM     19  O   UNL     1      33.471 -14.781 -24.745  0.00  0.00    -0.269 OA
ATOM     20  N   UNL     1      34.184 -12.900 -23.590  0.00  0.00    -0.296 N 
ATOM     21  C   UNL     1      33.960 -14.261 -23.744  0.00  0.00    +0.260 C 
ATOM     22  H   UNL     1      34.581 -12.579 -22.748  0.00  0.00    +0.150 HD
BRANCH  20  23
ATOM     23  C   UNL     1      33.858 -11.939 -24.613  0.00  0.00    +0.117 C 
BRANCH  23  24
ATOM     24  C   UNL     1      33.864 -10.539 -24.098  0.00  0.00    -0.003 C 
ATOM     25  C   UNL     1      32.854 -10.109 -23.238  0.00  0.00    -0.007 C 
ATOM     26  C   UNL     1      32.859  -8.799 -22.755  0.00  0.00    -0.022 C 
ATOM     27  C   UNL     1      34.880  -9.661 -24.474  0.00  0.00    -0.003 C 
ATOM     28  C   UNL     1      33.875  -7.922 -23.133  0.00  0.00    -0.004 C 
ATOM     29  C   UNL     1      34.886  -8.352 -23.992  0.00  0.00    -0.001 C 
ATOM     30  C   UNL     1      31.778  -8.338 -21.837  0.00  0.00    +0.031 C 
ENDBRANCH  23  24
ENDBRANCH  20  23
ENDBRANCH   4  21
TORSDOF 6
ENDMDL
MODEL 6
REMARK VINA RESULT:     -11.9      1.919      9.651
REMARK  Name = 5289109
REMARK  6 active torsions:
REMARK  status: ('A' for Active; 'I' for Inactive)
REMARK    1  A    between atoms: C_3  and  C_9
REMARK    2  A    between atoms: C_4  and  C_21
REMARK    3  A    between atoms: N_8  and  C_11
REMARK    4  A    between atoms: C_11  and  C_12
REMARK    5  A    between atoms: N_20  and  C_23
REMARK    6  A    between atoms: C_23  and  C_24
REMARK                            x       y       z     vdW  Elec       q    Type
REMARK                         _______ _______ _______ _____ _____    ______ ____
ROOT
ATOM      1  N   UNL     1      33.308 -14.276 -25.718  0.00  0.00    -0.244 NA
ATOM      2  N   UNL     1      33.947 -16.267 -24.522  0.00  0.00    -0.244 NA
ATOM      3  C   UNL     1      33.759 -13.549 -24.674  0.00  0.00    +0.115 C 
ATOM      4  C   UNL     1      34.365 -15.465 -23.541  0.00  0.00    +0.115 C 
ATOM      5  C   UNL     1      34.308 -14.103 -23.535  0.00  0.00    +0.100 C 
ATOM      6  C   UNL     1      33.432 -15.609 -25.577  0.00  0.00    +0.250 C 
ENDROOT
BRANCH   3   9
ATOM      7  O   UNL     1      34.006 -11.533 -25.845  0.00  0.00    -0.269 OA
ATOM      8  N   UNL     1      33.067 -11.417 -23.728  0.00  0.00    -0.296 N 
ATOM      9  C   UNL     1      33.636 -12.108 -24.806  0.00  0.00    +0.260 C 
ATOM     10  H   UNL     1      32.796 -11.933 -22.935  0.00  0.00    +0.150 HD
BRANCH   8  11
ATOM     11  C   UNL     1      32.855  -9.987 -23.717  0.00  0.00    +0.117 C 
BRANCH  11  12
ATOM     12  C   UNL     1      32.588  -9.469 -22.334  0.00  0.00    -0.003 C 
ATOM     13  C   UNL     1      31.973 -10.292 -21.399  0.00  0.00    -0.007 C 
ATOM     14  C   UNL     1      31.727  -9.811 -20.112  0.00  0.00    -0.022 C 
ATOM     15  C   UNL     1      32.960  -8.171 -22.001  0.00  0.00    -0.003 C 
ATOM     16  C   UNL     1      32.097  -8.510 -19.771  0.00  0.00    -0.004 C 
ATOM     17  C   UNL     1      32.714  -7.691 -20.716  0.00  0.00    -0.001 C 
ATOM     18  C   UNL     1      31.066 -10.687 -19.102  0.00  0.00    +0.031 C 
ENDBRANCH  11  12
ENDBRANCH   8  11
ENDBRANCH   3   9
BRANCH   4  21
ATOM     19  O   UNL     1      34.920 -15.621 -21.268  0.00  0.00    -0.269 OA
ATOM     20  N   UNL     1      35.438 -17.444 -22.606  0.00  0.00    -0.296 N 
ATOM     21  C   UNL     1      34.937 -16.172 -22.366  0.00  0.00    +0.260 C 
ATOM     22  H   UNL     1      35.406 -17.799 -23.524  0.00  0.00    +0.150 HD
BRANCH  20  23
ATOM     23  C   UNL     1      36.002 -18.265 -21.564  0.00  0.00    +0.117 C 
BRANCH  23  24
ATOM     24  C   UNL     1      35.006 -19.217 -20.992  0.00  0.00    -0.003 C 
ATOM     25  C   UNL     1      35.440 -20.316 -20.252  0.00  0.00    -0.007 C 
ATOM     26  C   UNL     1      34.509 -21.208 -19.715  0.00  0.00    -0.022 C 
ATOM     27  C   UNL     1      33.643 -19.008 -21.196  0.00  0.00    -0.003 C 
ATOM     28  C   UNL     1      33.146 -20.998 -19.920  0.00  0.00    -0.004 C 
ATOM     29  C   UNL     1      32.712 -19.899 -20.661  0.00  0.00    -0.001 C 
ATOM     30  C   UNL     1      34.973 -22.384 -18.924  0.00  0.00    +0.031 C 
ENDBRANCH  23  24
ENDBRANCH  20  23
ENDBRANCH   4  21
TORSDOF 6
ENDMDL
MODEL 7
REMARK VINA RESULT:     -11.8      1.973      2.696
REMARK  Name = 5289109
REMARK  6 active torsions:
REMARK  status: ('A' for Active; 'I' for Inactive)
REMARK    1  A    between atoms: C_3  and  C_9
REMARK    2  A    between atoms: C_4  and  C_21
REMARK    3  A    between atoms: N_8  and  C_11
REMARK    4  A    between atoms: C_11  and  C_12
REMARK    5  A    between atoms: N_20  and  C_23
REMARK    6  A    between atoms: C_23  and  C_24
REMARK                            x       y       z     vdW  Elec       q    Type
REMARK                         _______ _______ _______ _____ _____    ______ ____
ROOT
ATOM      1  N   UNL     1      33.862 -16.074 -24.431  0.00  0.00    -0.244 NA
ATOM      2  N   UNL     1      33.266 -14.001 -25.504  0.00  0.00    -0.244 NA
ATOM      3  C   UNL     1      34.346 -15.356 -23.396  0.00  0.00    +0.115 C 
ATOM      4  C   UNL     1      33.770 -13.379 -24.436  0.00  0.00    +0.115 C 
ATOM      5  C   UNL     1      34.327 -13.976 -23.344  0.00  0.00    +0.100 C 
ATOM      6  C   UNL     1      33.344 -15.343 -25.436  0.00  0.00    +0.250 C 
ENDROOT
BRANCH   3   9
ATOM      7  O   UNL     1      34.892 -15.680 -21.139  0.00  0.00    -0.269 OA
ATOM      8  N   UNL     1      35.444 -17.382 -22.614  0.00  0.00    -0.296 N 
ATOM      9  C   UNL     1      34.910 -16.125 -22.300  0.00  0.00    +0.260 C 
ATOM     10  H   UNL     1      35.427 -17.674 -23.554  0.00  0.00    +0.150 HD
BRANCH   8  11
ATOM     11  C   UNL     1      36.018 -18.274 -21.633  0.00  0.00    +0.117 C 
BRANCH  11  12
ATOM     12  C   UNL     1      34.995 -19.208 -21.055  0.00  0.00    -0.003 C 
ATOM     13  C   UNL     1      35.408 -20.298 -20.299  0.00  0.00    -0.007 C 
ATOM     14  C   UNL     1      34.456 -21.164 -19.760  0.00  0.00    -0.022 C 
ATOM     15  C   UNL     1      33.643 -18.971 -21.281  0.00  0.00    -0.003 C 
ATOM     16  C   UNL     1      33.098 -20.935 -19.983  0.00  0.00    -0.004 C 
ATOM     17  C   UNL     1      32.692 -19.838 -20.743  0.00  0.00    -0.001 C 
ATOM     18  C   UNL     1      34.890 -22.338 -18.949  0.00  0.00    +0.031 C 
ENDBRANCH  11  12
ENDBRANCH   8  11
ENDBRANCH   3   9
BRANCH   4  21
ATOM     19  O   UNL     1      34.367 -11.292 -25.324  0.00  0.00    -0.269 OA
ATOM     20  N   UNL     1      32.830 -11.297 -23.587  0.00  0.00    -0.296 N 
ATOM     21  C   UNL     1      33.696 -11.897 -24.492  0.00  0.00    +0.260 C 
ATOM     22  H   UNL     1      32.333 -11.868 -22.958  0.00  0.00    +0.150 HD
BRANCH  20  23
ATOM     23  C   UNL     1      32.629  -9.871 -23.535  0.00  0.00    +0.117 C 
BRANCH  23  24
ATOM     24  C   UNL     1      32.423  -9.379 -22.142  0.00  0.00    -0.003 C 
ATOM     25  C   UNL     1      31.961 -10.250 -21.157  0.00  0.00    -0.007 C 
ATOM     26  C   UNL     1      31.768  -9.790 -19.852  0.00  0.00    -0.022 C 
ATOM     27  C   UNL     1      32.693  -8.048 -21.825  0.00  0.00    -0.003 C 
ATOM     28  C   UNL     1      32.039  -8.459 -19.537  0.00  0.00    -0.004 C 
ATOM     29  C   UNL     1      32.501  -7.588 -20.522  0.00  0.00    -0.001 C 
ATOM     30  C   UNL     1      31.273 -10.722 -18.798  0.00  0.00    +0.031 C 
ENDBRANCH  23  24
ENDBRANCH  20  23
ENDBRANCH   4  21
TORSDOF 6
ENDMDL
MODEL 8
REMARK VINA RESULT:     -11.8      7.512     11.813
REMARK  Name = 5289109
REMARK  6 active torsions:
REMARK  status: ('A' for Active; 'I' for Inactive)
REMARK    1  A    between atoms: C_3  and  C_9
REMARK    2  A    between atoms: C_4  and  C_21
REMARK    3  A    between atoms: N_8  and  C_11
REMARK    4  A    between atoms: C_11  and  C_12
REMARK    5  A    between atoms: N_20  and  C_23
REMARK    6  A    between atoms: C_23  and  C_24
REMARK                            x       y       z     vdW  Elec       q    Type
REMARK                         _______ _______ _______ _____ _____    ______ ____
ROOT
ATOM      1  N   UNL     1      36.547 -24.321 -13.823  0.00  0.00    -0.244 NA
ATOM      2  N   UNL     1      37.889 -23.302 -15.545  0.00  0.00    -0.244 NA
ATOM      3  C   UNL     1      35.505 -23.575 -14.246  0.00  0.00    +0.115 C 
ATOM      4  C   UNL     1      36.802 -22.607 -15.889  0.00  0.00    +0.115 C 
ATOM      5  C   UNL     1      35.577 -22.682 -15.296  0.00  0.00    +0.100 C 
ATOM      6  C   UNL     1      37.691 -24.137 -14.508  0.00  0.00    +0.250 C 
ENDROOT
BRANCH   3   9
ATOM      7  O   UNL     1      34.204 -24.522 -12.540  0.00  0.00    -0.269 OA
ATOM      8  N   UNL     1      33.151 -23.024 -13.964  0.00  0.00    -0.296 N 
ATOM      9  C   UNL     1      34.259 -23.758 -13.521  0.00  0.00    +0.260 C 
ATOM     10  H   UNL     1      33.263 -22.439 -14.747  0.00  0.00    +0.150 HD
BRANCH   8  11
ATOM     11  C   UNL     1      31.852 -23.080 -13.333  0.00  0.00    +0.117 C 
BRANCH  11  12
ATOM     12  C   UNL     1      30.808 -23.655 -14.246  0.00  0.00    -0.003 C 
ATOM     13  C   UNL     1      29.959 -22.804 -14.942  0.00  0.00    -0.007 C 
ATOM     14  C   UNL     1      28.991 -23.339 -15.792  0.00  0.00    -0.022 C 
ATOM     15  C   UNL     1      30.703 -25.035 -14.388  0.00  0.00    -0.003 C 
ATOM     16  C   UNL     1      28.878 -24.722 -15.939  0.00  0.00    -0.004 C 
ATOM     17  C   UNL     1      29.735 -25.569 -15.237  0.00  0.00    -0.001 C 
ATOM     18  C   UNL     1      28.073 -22.433 -16.542  0.00  0.00    +0.031 C 
ENDBRANCH  11  12
ENDBRANCH   8  11
ENDBRANCH   3   9
BRANCH   4  21
ATOM     19  O   UNL     1      37.555 -20.600 -16.839  0.00  0.00    -0.269 OA
ATOM     20  N   UNL     1      36.547 -22.127 -18.265  0.00  0.00    -0.296 N 
ATOM     21  C   UNL     1      36.999 -21.679 -17.031  0.00  0.00    +0.260 C 
ATOM     22  H   UNL     1      36.113 -23.009 -18.318  0.00  0.00    +0.150 HD
BRANCH  20  23
ATOM     23  C   UNL     1      36.689 -21.351 -19.471  0.00  0.00    +0.117 C 
BRANCH  23  24
ATOM     24  C   UNL     1      35.391 -20.781 -19.934  0.00  0.00    -0.003 C 
ATOM     25  C   UNL     1      35.378 -19.647 -20.746  0.00  0.00    -0.007 C 
ATOM     26  C   UNL     1      34.163 -19.113 -21.180  0.00  0.00    -0.022 C 
ATOM     27  C   UNL     1      34.190 -21.381 -19.555  0.00  0.00    -0.003 C 
ATOM     28  C   UNL     1      32.963 -19.714 -20.801  0.00  0.00    -0.004 C 
ATOM     29  C   UNL     1      32.976 -20.848 -19.988  0.00  0.00    -0.001 C 
ATOM     30  C   UNL     1      34.149 -17.901 -22.048  0.00  0.00    +0.031 C 
ENDBRANCH  23  24
ENDBRANCH  20  23
ENDBRANCH   4  21
TORSDOF 6
ENDMDL
MODEL 9
REMARK VINA RESULT:     -11.7      1.631      2.146
REMARK  Name = 5289109
REMARK  6 active torsions:
REMARK  status: ('A' for Active; 'I' for Inactive)
REMARK    1  A    between atoms: C_3  and  C_9
REMARK    2  A    between atoms: C_4  and  C_21
REMARK    3  A    between atoms: N_8  and  C_11
REMARK    4  A    between atoms: C_11  and  C_12
REMARK    5  A    between atoms: N_20  and  C_23
REMARK    6  A    between atoms: C_23  and  C_24
REMARK                            x       y       z     vdW  Elec       q    Type
REMARK                         _______ _______ _______ _____ _____    ______ ____
ROOT
ATOM      1  N   UNL     1      32.781 -14.878 -22.194  0.00  0.00    -0.244 NA
ATOM      2  N   UNL     1      32.493 -12.518 -22.585  0.00  0.00    -0.244 NA
ATOM      3  C   UNL     1      33.719 -14.886 -23.164  0.00  0.00    +0.115 C 
ATOM      4  C   UNL     1      33.432 -12.626 -23.527  0.00  0.00    +0.115 C 
ATOM      5  C   UNL     1      34.092 -13.766 -23.880  0.00  0.00    +0.100 C 
ATOM      6  C   UNL     1      32.218 -13.677 -21.959  0.00  0.00    +0.250 C 
ENDROOT
BRANCH   3   9
ATOM      7  O   UNL     1      34.495 -16.567 -24.603  0.00  0.00    -0.269 OA
ATOM      8  N   UNL     1      34.769 -16.915 -22.327  0.00  0.00    -0.296 N 
ATOM      9  C   UNL     1      34.341 -16.171 -23.434  0.00  0.00    +0.260 C 
ATOM     10  H   UNL     1      34.615 -16.544 -21.428  0.00  0.00    +0.150 HD
BRANCH   8  11
ATOM     11  C   UNL     1      35.424 -18.199 -22.431  0.00  0.00    +0.117 C 
BRANCH  11  12
ATOM     12  C   UNL     1      34.844 -19.205 -21.481  0.00  0.00    -0.003 C 
ATOM     13  C   UNL     1      35.691 -19.977 -20.696  0.00  0.00    -0.007 C 
ATOM     14  C   UNL     1      35.151 -20.911 -19.811  0.00  0.00    -0.022 C 
ATOM     15  C   UNL     1      33.464 -19.355 -21.396  0.00  0.00    -0.003 C 
ATOM     16  C   UNL     1      33.768 -21.068 -19.720  0.00  0.00    -0.004 C 
ATOM     17  C   UNL     1      32.924 -20.289 -20.512  0.00  0.00    -0.001 C 
ATOM     18  C   UNL     1      36.053 -21.746 -18.965  0.00  0.00    +0.031 C 
ENDBRANCH  11  12
ENDBRANCH   8  11
ENDBRANCH   3   9
BRANCH   4  21
ATOM     19  O   UNL     1      33.977 -11.380 -25.438  0.00  0.00    -0.269 OA
ATOM     20  N   UNL     1      33.744 -10.210 -23.448  0.00  0.00    -0.296 N 
ATOM     21  C   UNL     1      33.751 -11.357 -24.230  0.00  0.00    +0.260 C 
ATOM     22  H   UNL     1      33.551 -10.294 -22.487  0.00  0.00    +0.150 HD
BRANCH  20  23
ATOM     23  C   UNL     1      34.009  -8.901 -23.989  0.00  0.00    +0.117 C 
BRANCH  23  24
ATOM     24  C   UNL     1      33.222  -7.835 -23.305  0.00  0.00    -0.003 C 
ATOM     25  C   UNL     1      32.622  -6.822 -24.053  0.00  0.00    -0.007 C 
ATOM     26  C   UNL     1      31.884  -5.825 -23.413  0.00  0.00    -0.022 C 
ATOM     27  C   UNL     1      33.085  -7.850 -21.917  0.00  0.00    -0.003 C 
ATOM     28  C   UNL     1      31.748  -5.842 -22.026  0.00  0.00    -0.004 C 
ATOM     29  C   UNL     1      32.348  -6.854 -21.277  0.00  0.00    -0.001 C 
ATOM     30  C   UNL     1      31.243  -4.742 -24.213  0.00  0.00    +0.031 C 
ENDBRANCH  23  24
ENDBRANCH  20  23
ENDBRANCH   4  21
TORSDOF 6
ENDMDL
