MODEL 1
REMARK VINA RESULT:      -5.0      0.000      0.000
REMARK  Name = 5232324
REMARK  5 active torsions:
REMARK  status: ('A' for Active; 'I' for Inactive)
REMARK    1  A    between atoms: O_1  and  P_2
REMARK    2  A    between atoms: O_1  and  C_7
REMARK    3  A    between atoms: P_2  and  O_5
REMARK    4  A    between atoms: C_7  and  C_8
REMARK    5  A    between atoms: C_8  and  N_9
REMARK                            x       y       z     vdW  Elec       q    Type
REMARK                         _______ _______ _______ _____ _____    ______ ____
ROOT
ATOM      1  O   UNL     1      38.799 -26.861 -14.550  0.00  0.00    -0.274 OA
ENDROOT
BRANCH   1   2
ATOM      2  P   UNL     1      40.166 -25.967 -14.585  0.00  0.00    +0.503 P 
ATOM      3  O   UNL     1      41.293 -26.799 -14.015  0.00  0.00    -0.225 OA
ATOM      4  O   UNL     1      39.887 -24.581 -14.044  0.00  0.00    -0.116 OA
BRANCH   2   5
ATOM      5  O   UNL     1      40.380 -25.861 -16.201  0.00  0.00    -0.301 OA
ATOM      6  H   UNL     1      39.541 -25.619 -16.624  0.00  0.00    +0.222 HD
ENDBRANCH   2   5
ENDBRANCH   1   2
BRANCH   1   7
ATOM      7  C   UNL     1      37.636 -26.329 -13.931  0.00  0.00    +0.130 C 
BRANCH   7   8
ATOM      8  C   UNL     1      36.679 -25.828 -14.995  0.00  0.00    -0.053 C 
BRANCH   8   9
ATOM      9  N   UNL     1      37.037 -24.434 -15.359  0.00  0.00    +0.382 N 
ATOM     10  H   UNL     1      36.272 -23.809 -15.103  0.00  0.00    -0.089 HD
ATOM     11  H   UNL     1      37.201 -24.376 -16.363  0.00  0.00    -0.089 HD
ATOM     12  H   UNL     1      37.883 -24.159 -14.859  0.00  0.00    -0.089 HD
ENDBRANCH   8   9
ENDBRANCH   7   8
ENDBRANCH   1   7
TORSDOF 5
ENDMDL
MODEL 2
REMARK VINA RESULT:      -4.7      4.215      4.975
REMARK  Name = 5232324
REMARK  5 active torsions:
REMARK  status: ('A' for Active; 'I' for Inactive)
REMARK    1  A    between atoms: O_1  and  P_2
REMARK    2  A    between atoms: O_1  and  C_7
REMARK    3  A    between atoms: P_2  and  O_5
REMARK    4  A    between atoms: C_7  and  C_8
REMARK    5  A    between atoms: C_8  and  N_9
REMARK                            x       y       z     vdW  Elec       q    Type
REMARK                         _______ _______ _______ _____ _____    ______ ____
ROOT
ATOM      1  O   UNL     1      36.639 -25.646 -11.549  0.00  0.00    -0.274 OA
ENDROOT
BRANCH   1   2
ATOM      2  P   UNL     1      35.996 -24.196 -11.158  0.00  0.00    +0.503 P 
ATOM      3  O   UNL     1      34.868 -23.901 -12.123  0.00  0.00    -0.225 OA
ATOM      4  O   UNL     1      37.102 -23.185 -10.941  0.00  0.00    -0.116 OA
BRANCH   2   5
ATOM      5  O   UNL     1      35.340 -24.570  -9.710  0.00  0.00    -0.301 OA
ATOM      6  H   UNL     1      34.379 -24.438  -9.746  0.00  0.00    +0.222 HD
ENDBRANCH   2   5
ENDBRANCH   1   2
BRANCH   1   7
ATOM      7  C   UNL     1      37.657 -25.711 -12.538  0.00  0.00    +0.130 C 
BRANCH   7   8
ATOM      8  C   UNL     1      37.189 -26.575 -13.693  0.00  0.00    -0.053 C 
BRANCH   8   9
ATOM      9  N   UNL     1      36.076 -25.891 -14.397  0.00  0.00    +0.382 N 
ATOM     10  H   UNL     1      35.959 -26.299 -15.325  0.00  0.00    -0.089 HD
ATOM     11  H   UNL     1      36.289 -24.899 -14.487  0.00  0.00    -0.089 HD
ATOM     12  H   UNL     1      35.214 -26.008 -13.864  0.00  0.00    -0.089 HD
ENDBRANCH   8   9
ENDBRANCH   7   8
ENDBRANCH   1   7
TORSDOF 5
ENDMDL
MODEL 3
REMARK VINA RESULT:      -4.7      4.246      4.856
REMARK  Name = 5232324
REMARK  5 active torsions:
REMARK  status: ('A' for Active; 'I' for Inactive)
REMARK    1  A    between atoms: O_1  and  P_2
REMARK    2  A    between atoms: O_1  and  C_7
REMARK    3  A    between atoms: P_2  and  O_5
REMARK    4  A    between atoms: C_7  and  C_8
REMARK    5  A    between atoms: C_8  and  N_9
REMARK                            x       y       z     vdW  Elec       q    Type
REMARK                         _______ _______ _______ _____ _____    ______ ____
ROOT
ATOM      1  O   UNL     1      36.477 -25.564 -11.679  0.00  0.00    -0.274 OA
ENDROOT
BRANCH   1   2
ATOM      2  P   UNL     1      36.004 -24.176 -10.961  0.00  0.00    +0.503 P 
ATOM      3  O   UNL     1      37.166 -23.206 -10.991  0.00  0.00    -0.225 OA
ATOM      4  O   UNL     1      35.299 -24.485  -9.658  0.00  0.00    -0.116 OA
BRANCH   2   5
ATOM      5  O   UNL     1      34.894 -23.671 -12.047  0.00  0.00    -0.301 OA
ATOM      6  H   UNL     1      34.253 -24.381 -12.209  0.00  0.00    +0.222 HD
ENDBRANCH   2   5
ENDBRANCH   1   2
BRANCH   1   7
ATOM      7  C   UNL     1      37.565 -25.540 -12.593  0.00  0.00    +0.130 C 
BRANCH   7   8
ATOM      8  C   UNL     1      37.175 -26.261 -13.868  0.00  0.00    -0.053 C 
BRANCH   8   9
ATOM      9  N   UNL     1      35.884 -25.720 -14.361  0.00  0.00    +0.382 N 
ATOM     10  H   UNL     1      35.208 -26.480 -14.448  0.00  0.00    -0.089 HD
ATOM     11  H   UNL     1      36.024 -25.285 -15.272  0.00  0.00    -0.089 HD
ATOM     12  H   UNL     1      35.532 -25.025 -13.702  0.00  0.00    -0.089 HD
ENDBRANCH   8   9
ENDBRANCH   7   8
ENDBRANCH   1   7
TORSDOF 5
ENDMDL
MODEL 4
REMARK VINA RESULT:      -4.7      1.459      1.743
REMARK  Name = 5232324
REMARK  5 active torsions:
REMARK  status: ('A' for Active; 'I' for Inactive)
REMARK    1  A    between atoms: O_1  and  P_2
REMARK    2  A    between atoms: O_1  and  C_7
REMARK    3  A    between atoms: P_2  and  O_5
REMARK    4  A    between atoms: C_7  and  C_8
REMARK    5  A    between atoms: C_8  and  N_9
REMARK                            x       y       z     vdW  Elec       q    Type
REMARK                         _______ _______ _______ _____ _____    ______ ____
ROOT
ATOM      1  O   UNL     1      38.714 -24.241 -15.082  0.00  0.00    -0.274 OA
ENDROOT
BRANCH   1   2
ATOM      2  P   UNL     1      39.818 -25.384 -14.703  0.00  0.00    +0.503 P 
ATOM      3  O   UNL     1      39.098 -26.540 -14.044  0.00  0.00    -0.225 OA
ATOM      4  O   UNL     1      41.012 -24.742 -14.030  0.00  0.00    -0.116 OA
BRANCH   2   5
ATOM      5  O   UNL     1      40.256 -25.849 -16.206  0.00  0.00    -0.301 OA
ATOM      6  H   UNL     1      40.183 -26.814 -16.280  0.00  0.00    +0.222 HD
ENDBRANCH   2   5
ENDBRANCH   1   2
BRANCH   1   7
ATOM      7  C   UNL     1      37.535 -24.127 -14.298  0.00  0.00    +0.130 C 
BRANCH   7   8
ATOM      8  C   UNL     1      36.346 -24.632 -15.092  0.00  0.00    -0.053 C 
BRANCH   8   9
ATOM      9  N   UNL     1      36.059 -26.036 -14.705  0.00  0.00    +0.382 N 
ATOM     10  H   UNL     1      35.557 -26.501 -15.462  0.00  0.00    -0.089 HD
ATOM     11  H   UNL     1      35.487 -26.046 -13.861  0.00  0.00    -0.089 HD
ATOM     12  H   UNL     1      36.936 -26.526 -14.528  0.00  0.00    -0.089 HD
ENDBRANCH   8   9
ENDBRANCH   7   8
ENDBRANCH   1   7
TORSDOF 5
ENDMDL
MODEL 5
REMARK VINA RESULT:      -4.5     10.366     10.988
REMARK  Name = 5232324
REMARK  5 active torsions:
REMARK  status: ('A' for Active; 'I' for Inactive)
REMARK    1  A    between atoms: O_1  and  P_2
REMARK    2  A    between atoms: O_1  and  C_7
REMARK    3  A    between atoms: P_2  and  O_5
REMARK    4  A    between atoms: C_7  and  C_8
REMARK    5  A    between atoms: C_8  and  N_9
REMARK                            x       y       z     vdW  Elec       q    Type
REMARK                         _______ _______ _______ _____ _____    ______ ____
ROOT
ATOM      1  O   UNL     1      28.618 -23.992 -15.444  0.00  0.00    -0.274 OA
ENDROOT
BRANCH   1   2
ATOM      2  P   UNL     1      27.920 -22.922 -16.461  0.00  0.00    +0.503 P 
ATOM      3  O   UNL     1      28.984 -21.955 -16.935  0.00  0.00    -0.225 OA
ATOM      4  O   UNL     1      26.630 -22.407 -15.860  0.00  0.00    -0.116 OA
BRANCH   2   5
ATOM      5  O   UNL     1      27.555 -23.921 -17.701  0.00  0.00    -0.301 OA
ATOM      6  H   UNL     1      27.477 -23.406 -18.519  0.00  0.00    +0.222 HD
ENDBRANCH   2   5
ENDBRANCH   1   2
BRANCH   1   7
ATOM      7  C   UNL     1      30.014 -24.240 -15.545  0.00  0.00    +0.130 C 
BRANCH   7   8
ATOM      8  C   UNL     1      30.691 -23.875 -14.238  0.00  0.00    -0.053 C 
BRANCH   8   9
ATOM      9  N   UNL     1      30.507 -24.980 -13.266  0.00  0.00    +0.382 N 
ATOM     10  H   UNL     1      30.493 -25.872 -13.763  0.00  0.00    -0.089 HD
ATOM     11  H   UNL     1      29.625 -24.854 -12.770  0.00  0.00    -0.089 HD
ATOM     12  H   UNL     1      31.277 -24.977 -12.597  0.00  0.00    -0.089 HD
ENDBRANCH   8   9
ENDBRANCH   7   8
ENDBRANCH   1   7
TORSDOF 5
ENDMDL
MODEL 6
REMARK VINA RESULT:      -4.5      3.602      4.368
REMARK  Name = 5232324
REMARK  5 active torsions:
REMARK  status: ('A' for Active; 'I' for Inactive)
REMARK    1  A    between atoms: O_1  and  P_2
REMARK    2  A    between atoms: O_1  and  C_7
REMARK    3  A    between atoms: P_2  and  O_5
REMARK    4  A    between atoms: C_7  and  C_8
REMARK    5  A    between atoms: C_8  and  N_9
REMARK                            x       y       z     vdW  Elec       q    Type
REMARK                         _______ _______ _______ _____ _____    ______ ____
ROOT
ATOM      1  O   UNL     1      36.658 -24.081 -13.259  0.00  0.00    -0.274 OA
ENDROOT
BRANCH   1   2
ATOM      2  P   UNL     1      36.425 -24.865 -11.845  0.00  0.00    +0.503 P 
ATOM      3  O   UNL     1      36.853 -23.950 -10.718  0.00  0.00    -0.225 OA
ATOM      4  O   UNL     1      36.975 -26.272 -11.941  0.00  0.00    -0.116 OA
BRANCH   2   5
ATOM      5  O   UNL     1      34.793 -24.944 -11.842  0.00  0.00    -0.301 OA
ATOM      6  H   UNL     1      34.438 -24.323 -12.497  0.00  0.00    +0.222 HD
ENDBRANCH   2   5
ENDBRANCH   1   2
BRANCH   1   7
ATOM      7  C   UNL     1      37.181 -24.794 -14.371  0.00  0.00    +0.130 C 
BRANCH   7   8
ATOM      8  C   UNL     1      36.045 -25.439 -15.142  0.00  0.00    -0.053 C 
BRANCH   8   9
ATOM      9  N   UNL     1      36.148 -26.914 -15.022  0.00  0.00    +0.382 N 
ATOM     10  H   UNL     1      37.130 -27.190 -15.052  0.00  0.00    -0.089 HD
ATOM     11  H   UNL     1      35.649 -27.354 -15.795  0.00  0.00    -0.089 HD
ATOM     12  H   UNL     1      35.737 -27.214 -14.138  0.00  0.00    -0.089 HD
ENDBRANCH   8   9
ENDBRANCH   7   8
ENDBRANCH   1   7
TORSDOF 5
ENDMDL
MODEL 7
REMARK VINA RESULT:      -4.4      1.928      2.161
REMARK  Name = 5232324
REMARK  5 active torsions:
REMARK  status: ('A' for Active; 'I' for Inactive)
REMARK    1  A    between atoms: O_1  and  P_2
REMARK    2  A    between atoms: O_1  and  C_7
REMARK    3  A    between atoms: P_2  and  O_5
REMARK    4  A    between atoms: C_7  and  C_8
REMARK    5  A    between atoms: C_8  and  N_9
REMARK                            x       y       z     vdW  Elec       q    Type
REMARK                         _______ _______ _______ _____ _____    ______ ____
ROOT
ATOM      1  O   UNL     1      38.921 -26.003 -13.059  0.00  0.00    -0.274 OA
ENDROOT
BRANCH   1   2
ATOM      2  P   UNL     1      39.413 -25.721 -14.591  0.00  0.00    +0.503 P 
ATOM      3  O   UNL     1      40.661 -26.538 -14.848  0.00  0.00    -0.225 OA
ATOM      4  O   UNL     1      39.403 -24.232 -14.868  0.00  0.00    -0.116 OA
BRANCH   2   5
ATOM      5  O   UNL     1      38.178 -26.411 -15.406  0.00  0.00    -0.301 OA
ATOM      6  H   UNL     1      37.430 -25.794 -15.444  0.00  0.00    +0.222 HD
ENDBRANCH   2   5
ENDBRANCH   1   2
BRANCH   1   7
ATOM      7  C   UNL     1      37.532 -25.996 -12.762  0.00  0.00    +0.130 C 
BRANCH   7   8
ATOM      8  C   UNL     1      37.123 -24.621 -12.272  0.00  0.00    -0.053 C 
BRANCH   8   9
ATOM      9  N   UNL     1      38.309 -23.931 -11.706  0.00  0.00    +0.382 N 
ATOM     10  H   UNL     1      39.115 -24.087 -12.313  0.00  0.00    -0.089 HD
ATOM     11  H   UNL     1      38.507 -24.300 -10.777  0.00  0.00    -0.089 HD
ATOM     12  H   UNL     1      38.122 -22.930 -11.642  0.00  0.00    -0.089 HD
ENDBRANCH   8   9
ENDBRANCH   7   8
ENDBRANCH   1   7
TORSDOF 5
ENDMDL
MODEL 8
REMARK VINA RESULT:      -4.4     10.990     11.573
REMARK  Name = 5232324
REMARK  5 active torsions:
REMARK  status: ('A' for Active; 'I' for Inactive)
REMARK    1  A    between atoms: O_1  and  P_2
REMARK    2  A    between atoms: O_1  and  C_7
REMARK    3  A    between atoms: P_2  and  O_5
REMARK    4  A    between atoms: C_7  and  C_8
REMARK    5  A    between atoms: C_8  and  N_9
REMARK                            x       y       z     vdW  Elec       q    Type
REMARK                         _______ _______ _______ _____ _____    ______ ____
ROOT
ATOM      1  O   UNL     1      41.151 -15.223 -17.189  0.00  0.00    -0.274 OA
ENDROOT
BRANCH   1   2
ATOM      2  P   UNL     1      42.259 -16.386 -17.482  0.00  0.00    +0.503 P 
ATOM      3  O   UNL     1      43.439 -16.161 -16.562  0.00  0.00    -0.225 OA
ATOM      4  O   UNL     1      42.469 -16.532 -18.974  0.00  0.00    -0.116 OA
BRANCH   2   5
ATOM      5  O   UNL     1      41.437 -17.690 -16.943  0.00  0.00    -0.301 OA
ATOM      6  H   UNL     1      41.790 -17.962 -16.081  0.00  0.00    +0.222 HD
ENDBRANCH   2   5
ENDBRANCH   1   2
BRANCH   1   7
ATOM      7  C   UNL     1      41.153 -14.044 -17.981  0.00  0.00    +0.130 C 
BRANCH   7   8
ATOM      8  C   UNL     1      42.060 -13.008 -17.346  0.00  0.00    -0.053 C 
BRANCH   8   9
ATOM      9  N   UNL     1      42.041 -13.177 -15.872  0.00  0.00    +0.382 N 
ATOM     10  H   UNL     1      41.286 -13.812 -15.613  0.00  0.00    -0.089 HD
ATOM     11  H   UNL     1      41.890 -12.272 -15.427  0.00  0.00    -0.089 HD
ATOM     12  H   UNL     1      42.933 -13.564 -15.562  0.00  0.00    -0.089 HD
ENDBRANCH   8   9
ENDBRANCH   7   8
ENDBRANCH   1   7
TORSDOF 5
ENDMDL
MODEL 9
REMARK VINA RESULT:      -4.4     10.967     11.580
REMARK  Name = 5232324
REMARK  5 active torsions:
REMARK  status: ('A' for Active; 'I' for Inactive)
REMARK    1  A    between atoms: O_1  and  P_2
REMARK    2  A    between atoms: O_1  and  C_7
REMARK    3  A    between atoms: P_2  and  O_5
REMARK    4  A    between atoms: C_7  and  C_8
REMARK    5  A    between atoms: C_8  and  N_9
REMARK                            x       y       z     vdW  Elec       q    Type
REMARK                         _______ _______ _______ _____ _____    ______ ____
ROOT
ATOM      1  O   UNL     1      41.152 -15.223 -17.145  0.00  0.00    -0.274 OA
ENDROOT
BRANCH   1   2
ATOM      2  P   UNL     1      42.097 -16.514 -17.476  0.00  0.00    +0.503 P 
ATOM      3  O   UNL     1      42.512 -16.438 -18.929  0.00  0.00    -0.225 OA
ATOM      4  O   UNL     1      41.458 -17.772 -16.927  0.00  0.00    -0.116 OA
BRANCH   2   5
ATOM      5  O   UNL     1      43.395 -16.145 -16.557  0.00  0.00    -0.301 OA
ATOM      6  H   UNL     1      44.031 -15.636 -17.084  0.00  0.00    +0.222 HD
ENDBRANCH   2   5
ENDBRANCH   1   2
BRANCH   1   7
ATOM      7  C   UNL     1      41.200 -14.089 -18.000  0.00  0.00    +0.130 C 
BRANCH   7   8
ATOM      8  C   UNL     1      42.057 -13.011 -17.366  0.00  0.00    -0.053 C 
BRANCH   8   9
ATOM      9  N   UNL     1      42.056 -13.187 -15.892  0.00  0.00    +0.382 N 
ATOM     10  H   UNL     1      42.970 -13.523 -15.589  0.00  0.00    -0.089 HD
ATOM     11  H   UNL     1      41.341 -13.866 -15.631  0.00  0.00    -0.089 HD
ATOM     12  H   UNL     1      41.856 -12.293 -15.443  0.00  0.00    -0.089 HD
ENDBRANCH   8   9
ENDBRANCH   7   8
ENDBRANCH   1   7
TORSDOF 5
ENDMDL
