MODEL 1
REMARK VINA RESULT:     -10.6      0.000      0.000
REMARK  Name = 15991547
REMARK  2 active torsions:
REMARK  status: ('A' for Active; 'I' for Inactive)
REMARK    1  A    between atoms: N_2  and  C_7
REMARK    2  A    between atoms: C_3  and  C_20
REMARK                            x       y       z     vdW  Elec       q    Type
REMARK                         _______ _______ _______ _____ _____    ______ ____
ROOT
ATOM      1  O   UNL     1      36.505 -17.953 -22.703  0.00  0.00    -0.269 OA
ATOM      2  N   UNL     1      34.293 -17.256 -22.740  0.00  0.00    -0.294 N 
ATOM      3  C   UNL     1      35.341 -18.067 -22.325  0.00  0.00    +0.260 C 
ATOM      4  H   UNL     1      33.393 -17.427 -22.379  0.00  0.00    +0.150 HD
ENDROOT
BRANCH   2   7
ATOM      5  O   UNL     1      33.860 -17.803 -25.362  0.00  0.00    -0.273 OA
ATOM      6  N   UNL     1      33.688 -15.589 -25.927  0.00  0.00    -0.283 N 
ATOM      7  C   UNL     1      34.470 -16.176 -23.675  0.00  0.00    +0.154 C 
ATOM      8  C   UNL     1      33.802 -14.904 -23.166  0.00  0.00    +0.057 C 
ATOM      9  C   UNL     1      33.793 -13.846 -24.232  0.00  0.00    -0.007 C 
ATOM     10  C   UNL     1      33.697 -14.227 -25.577  0.00  0.00    +0.046 C 
ATOM     11  C   UNL     1      33.942 -16.618 -25.036  0.00  0.00    +0.244 C 
ATOM     12  C   UNL     1      33.776 -12.486 -23.901  0.00  0.00    -0.003 C 
ATOM     13  C   UNL     1      33.582 -13.261 -26.580  0.00  0.00    +0.014 C 
ATOM     14  C   UNL     1      33.680 -11.522 -24.904  0.00  0.00    -0.000 C 
ATOM     15  C   UNL     1      33.581 -11.908 -26.241  0.00  0.00    +0.001 C 
ATOM     16  H   UNL     1      33.489 -15.824 -26.862  0.00  0.00    +0.155 HD
ENDBRANCH   2   7
BRANCH   3  20
ATOM     17 CL   UNL     1      33.456 -23.521 -17.586  0.00  0.00    -0.075 Cl
ATOM     18  S   UNL     1      35.650 -21.879 -18.790  0.00  0.00    -0.061 S 
ATOM     19  N   UNL     1      35.946 -19.797 -20.656  0.00  0.00    -0.304 N 
ATOM     20  C   UNL     1      34.990 -19.155 -21.377  0.00  0.00    +0.103 C 
ATOM     21  C   UNL     1      33.972 -20.612 -20.182  0.00  0.00    +0.022 C 
ATOM     22  C   UNL     1      35.280 -20.710 -19.911  0.00  0.00    +0.080 C 
ATOM     23  C   UNL     1      33.740 -19.619 -21.125  0.00  0.00    +0.021 C 
ATOM     24  C   UNL     1      33.151 -21.495 -19.486  0.00  0.00    +0.020 C 
ATOM     25  C   UNL     1      33.951 -22.278 -18.659  0.00  0.00    +0.088 C 
ATOM     26  H   UNL     1      36.915 -19.632 -20.672  0.00  0.00    +0.153 HD
ENDBRANCH   3  20
TORSDOF 2
ENDMDL
MODEL 2
REMARK VINA RESULT:     -10.6      6.144      9.451
REMARK  Name = 15991547
REMARK  2 active torsions:
REMARK  status: ('A' for Active; 'I' for Inactive)
REMARK    1  A    between atoms: N_2  and  C_7
REMARK    2  A    between atoms: C_3  and  C_20
REMARK                            x       y       z     vdW  Elec       q    Type
REMARK                         _______ _______ _______ _____ _____    ______ ____
ROOT
ATOM      1  O   UNL     1      31.953 -12.714 -21.809  0.00  0.00    -0.269 OA
ATOM      2  N   UNL     1      33.067 -12.837 -23.840  0.00  0.00    -0.294 N 
ATOM      3  C   UNL     1      32.449 -12.168 -22.792  0.00  0.00    +0.260 C 
ATOM      4  H   UNL     1      33.436 -12.310 -24.585  0.00  0.00    +0.150 HD
ENDROOT
BRANCH   2   7
ATOM      5  O   UNL     1      32.720 -14.047 -26.243  0.00  0.00    -0.273 OA
ATOM      6  N   UNL     1      33.705 -15.995 -25.549  0.00  0.00    -0.283 N 
ATOM      7  C   UNL     1      33.191 -14.271 -23.879  0.00  0.00    +0.154 C 
ATOM      8  C   UNL     1      34.420 -14.730 -23.102  0.00  0.00    +0.057 C 
ATOM      9  C   UNL     1      34.675 -16.192 -23.327  0.00  0.00    -0.007 C 
ATOM     10  C   UNL     1      34.342 -16.766 -24.561  0.00  0.00    +0.046 C 
ATOM     11  C   UNL     1      33.212 -14.719 -25.337  0.00  0.00    +0.244 C 
ATOM     12  C   UNL     1      35.330 -16.969 -22.363  0.00  0.00    -0.003 C 
ATOM     13  C   UNL     1      34.664 -18.099 -24.832  0.00  0.00    +0.014 C 
ATOM     14  C   UNL     1      35.634 -18.304 -22.628  0.00  0.00    -0.000 C 
ATOM     15  C   UNL     1      35.304 -18.867 -23.860  0.00  0.00    +0.001 C 
ATOM     16  H   UNL     1      33.603 -16.387 -26.446  0.00  0.00    +0.155 HD
ENDBRANCH   2   7
BRANCH   3  20
ATOM     17 CL   UNL     1      31.977  -4.736 -23.352  0.00  0.00    -0.075 Cl
ATOM     18  S   UNL     1      33.602  -7.200 -23.850  0.00  0.00    -0.061 S 
ATOM     19  N   UNL     1      33.396  -9.977 -23.464  0.00  0.00    -0.304 N 
ATOM     20  C   UNL     1      32.377 -10.689 -22.913  0.00  0.00    +0.103 C 
ATOM     21  C   UNL     1      31.782  -8.633 -22.852  0.00  0.00    +0.022 C 
ATOM     22  C   UNL     1      32.998  -8.684 -23.413  0.00  0.00    +0.080 C 
ATOM     23  C   UNL     1      31.344  -9.907 -22.513  0.00  0.00    +0.021 C 
ATOM     24  C   UNL     1      31.236  -7.358 -22.730  0.00  0.00    +0.020 C 
ATOM     25  C   UNL     1      32.145  -6.440 -23.250  0.00  0.00    +0.088 C 
ATOM     26  H   UNL     1      34.242 -10.328 -23.822  0.00  0.00    +0.153 HD
ENDBRANCH   3  20
TORSDOF 2
ENDMDL
MODEL 3
REMARK VINA RESULT:     -10.3      5.952      7.825
REMARK  Name = 15991547
REMARK  2 active torsions:
REMARK  status: ('A' for Active; 'I' for Inactive)
REMARK    1  A    between atoms: N_2  and  C_7
REMARK    2  A    between atoms: C_3  and  C_20
REMARK                            x       y       z     vdW  Elec       q    Type
REMARK                         _______ _______ _______ _____ _____    ______ ____
ROOT
ATOM      1  O   UNL     1      30.411 -11.499 -21.382  0.00  0.00    -0.269 OA
ATOM      2  N   UNL     1      32.291 -10.402 -22.185  0.00  0.00    -0.294 N 
ATOM      3  C   UNL     1      31.579 -11.518 -21.765  0.00  0.00    +0.260 C 
ATOM      4  H   UNL     1      33.224 -10.519 -22.475  0.00  0.00    +0.150 HD
ENDROOT
BRANCH   2   7
ATOM      5  O   UNL     1      32.580  -8.874 -19.962  0.00  0.00    -0.273 OA
ATOM      6  N   UNL     1      32.059  -6.938 -21.069  0.00  0.00    -0.283 N 
ATOM      7  C   UNL     1      31.718  -9.082 -22.215  0.00  0.00    +0.154 C 
ATOM      8  C   UNL     1      32.049  -8.376 -23.525  0.00  0.00    +0.057 C 
ATOM      9  C   UNL     1      31.646  -6.931 -23.466  0.00  0.00    -0.007 C 
ATOM     10  C   UNL     1      31.702  -6.251 -22.243  0.00  0.00    +0.046 C 
ATOM     11  C   UNL     1      32.201  -8.313 -20.990  0.00  0.00    +0.244 C 
ATOM     12  C   UNL     1      31.313  -6.226 -24.629  0.00  0.00    -0.003 C 
ATOM     13  C   UNL     1      31.433  -4.881 -22.181  0.00  0.00    +0.014 C 
ATOM     14  C   UNL     1      31.026  -4.862 -24.563  0.00  0.00    -0.000 C 
ATOM     15  C   UNL     1      31.088  -4.191 -23.343  0.00  0.00    +0.001 C 
ATOM     16  H   UNL     1      32.215  -6.408 -20.254  0.00  0.00    +0.155 HD
ENDBRANCH   2   7
BRANCH   3  20
ATOM     17 CL   UNL     1      35.280 -18.003 -21.658  0.00  0.00    -0.075 Cl
ATOM     18  S   UNL     1      34.431 -15.615 -23.251  0.00  0.00    -0.061 S 
ATOM     19  N   UNL     1      32.951 -13.253 -22.885  0.00  0.00    -0.304 N 
ATOM     20  C   UNL     1      32.320 -12.804 -21.768  0.00  0.00    +0.103 C 
ATOM     21  C   UNL     1      33.225 -14.674 -21.245  0.00  0.00    +0.022 C 
ATOM     22  C   UNL     1      33.512 -14.433 -22.532  0.00  0.00    +0.080 C 
ATOM     23  C   UNL     1      32.456 -13.648 -20.713  0.00  0.00    +0.021 C 
ATOM     24  C   UNL     1      33.739 -15.863 -20.734  0.00  0.00    +0.020 C 
ATOM     25  C   UNL     1      34.446 -16.507 -21.746  0.00  0.00    +0.088 C 
ATOM     26  H   UNL     1      32.989 -12.813 -23.764  0.00  0.00    +0.153 HD
ENDBRANCH   3  20
TORSDOF 2
ENDMDL
MODEL 4
REMARK VINA RESULT:     -10.2      3.893      5.620
REMARK  Name = 15991547
REMARK  2 active torsions:
REMARK  status: ('A' for Active; 'I' for Inactive)
REMARK    1  A    between atoms: N_2  and  C_7
REMARK    2  A    between atoms: C_3  and  C_20
REMARK                            x       y       z     vdW  Elec       q    Type
REMARK                         _______ _______ _______ _____ _____    ______ ____
ROOT
ATOM      1  O   UNL     1      33.467 -13.513 -25.248  0.00  0.00    -0.269 OA
ATOM      2  N   UNL     1      33.547 -12.452 -23.186  0.00  0.00    -0.294 N 
ATOM      3  C   UNL     1      33.690 -13.538 -24.039  0.00  0.00    +0.260 C 
ATOM      4  H   UNL     1      33.751 -12.571 -22.231  0.00  0.00    +0.150 HD
ENDROOT
BRANCH   2   7
ATOM      5  O   UNL     1      31.286 -11.439 -22.078  0.00  0.00    -0.273 OA
ATOM      6  N   UNL     1      31.734  -9.311 -22.797  0.00  0.00    -0.283 N 
ATOM      7  C   UNL     1      33.112 -11.158 -23.644  0.00  0.00    +0.154 C 
ATOM      8  C   UNL     1      34.284 -10.185 -23.712  0.00  0.00    +0.057 C 
ATOM      9  C   UNL     1      33.800  -8.788 -23.972  0.00  0.00    -0.007 C 
ATOM     10  C   UNL     1      32.555  -8.388 -23.470  0.00  0.00    +0.046 C 
ATOM     11  C   UNL     1      31.990 -10.670 -22.733  0.00  0.00    +0.244 C 
ATOM     12  C   UNL     1      34.613  -7.850 -24.618  0.00  0.00    -0.003 C 
ATOM     13  C   UNL     1      32.128  -7.065 -23.608  0.00  0.00    +0.014 C 
ATOM     14  C   UNL     1      34.178  -6.533 -24.771  0.00  0.00    -0.000 C 
ATOM     15  C   UNL     1      32.939  -6.141 -24.266  0.00  0.00    +0.001 C 
ATOM     16  H   UNL     1      30.930  -8.970 -22.345  0.00  0.00    +0.155 HD
ENDBRANCH   2   7
BRANCH   3  20
ATOM     17 CL   UNL     1      35.864 -19.884 -20.757  0.00  0.00    -0.075 Cl
ATOM     18  S   UNL     1      35.112 -18.494 -23.299  0.00  0.00    -0.061 S 
ATOM     19  N   UNL     1      34.309 -15.937 -24.147  0.00  0.00    -0.304 N 
ATOM     20  C   UNL     1      34.122 -14.811 -23.408  0.00  0.00    +0.103 C 
ATOM     21  C   UNL     1      34.733 -16.341 -22.040  0.00  0.00    +0.022 C 
ATOM     22  C   UNL     1      34.693 -16.887 -23.263  0.00  0.00    +0.080 C 
ATOM     23  C   UNL     1      34.371 -15.002 -22.088  0.00  0.00    +0.021 C 
ATOM     24  C   UNL     1      35.115 -17.204 -21.016  0.00  0.00    +0.020 C 
ATOM     25  C   UNL     1      35.363 -18.457 -21.568  0.00  0.00    +0.088 C 
ATOM     26  H   UNL     1      34.190 -16.038 -25.118  0.00  0.00    +0.153 HD
ENDBRANCH   3  20
TORSDOF 2
ENDMDL
MODEL 5
REMARK VINA RESULT:     -10.2      6.208      9.672
REMARK  Name = 15991547
REMARK  2 active torsions:
REMARK  status: ('A' for Active; 'I' for Inactive)
REMARK    1  A    between atoms: N_2  and  C_7
REMARK    2  A    between atoms: C_3  and  C_20
REMARK                            x       y       z     vdW  Elec       q    Type
REMARK                         _______ _______ _______ _____ _____    ______ ____
ROOT
ATOM      1  O   UNL     1      31.931 -12.419 -21.587  0.00  0.00    -0.269 OA
ATOM      2  N   UNL     1      33.114 -12.826 -23.540  0.00  0.00    -0.294 N 
ATOM      3  C   UNL     1      32.464 -12.016 -22.619  0.00  0.00    +0.260 C 
ATOM      4  H   UNL     1      33.512 -12.409 -24.338  0.00  0.00    +0.150 HD
ENDROOT
BRANCH   2   7
ATOM      5  O   UNL     1      33.176 -14.337 -25.793  0.00  0.00    -0.273 OA
ATOM      6  N   UNL     1      34.011 -16.167 -24.697  0.00  0.00    -0.283 N 
ATOM      7  C   UNL     1      33.232 -14.252 -23.374  0.00  0.00    +0.154 C 
ATOM      8  C   UNL     1      34.305 -14.591 -22.345  0.00  0.00    +0.057 C 
ATOM      9  C   UNL     1      34.582 -16.066 -22.334  0.00  0.00    -0.007 C 
ATOM     10  C   UNL     1      34.462 -16.797 -23.523  0.00  0.00    +0.046 C 
ATOM     11  C   UNL     1      33.499 -14.881 -24.737  0.00  0.00    +0.244 C 
ATOM     12  C   UNL     1      35.055 -16.704 -21.181  0.00  0.00    -0.003 C 
ATOM     13  C   UNL     1      34.814 -18.148 -23.563  0.00  0.00    +0.014 C 
ATOM     14  C   UNL     1      35.389 -18.058 -21.217  0.00  0.00    -0.000 C 
ATOM     15  C   UNL     1      35.271 -18.778 -22.406  0.00  0.00    +0.001 C 
ATOM     16  H   UNL     1      34.062 -16.672 -25.540  0.00  0.00    +0.155 HD
ENDBRANCH   2   7
BRANCH   3  20
ATOM     17 CL   UNL     1      32.287  -4.746 -24.313  0.00  0.00    -0.075 Cl
ATOM     18  S   UNL     1      30.819  -7.110 -23.213  0.00  0.00    -0.061 S 
ATOM     19  N   UNL     1      31.283  -9.839 -22.719  0.00  0.00    -0.304 N 
ATOM     20  C   UNL     1      32.405 -10.569 -22.948  0.00  0.00    +0.103 C 
ATOM     21  C   UNL     1      32.840  -8.572 -23.588  0.00  0.00    +0.022 C 
ATOM     22  C   UNL     1      31.580  -8.584 -23.130  0.00  0.00    +0.080 C 
ATOM     23  C   UNL     1      33.410  -9.835 -23.489  0.00  0.00    +0.021 C 
ATOM     24  C   UNL     1      33.293  -7.339 -24.050  0.00  0.00    +0.020 C 
ATOM     25  C   UNL     1      32.266  -6.411 -23.904  0.00  0.00    +0.088 C 
ATOM     26  H   UNL     1      30.434 -10.156 -22.335  0.00  0.00    +0.153 HD
ENDBRANCH   3  20
TORSDOF 2
ENDMDL
MODEL 6
REMARK VINA RESULT:      -9.7      4.880     10.465
REMARK  Name = 15991547
REMARK  2 active torsions:
REMARK  status: ('A' for Active; 'I' for Inactive)
REMARK    1  A    between atoms: N_2  and  C_7
REMARK    2  A    between atoms: C_3  and  C_20
REMARK                            x       y       z     vdW  Elec       q    Type
REMARK                         _______ _______ _______ _____ _____    ______ ____
ROOT
ATOM      1  O   UNL     1      34.166 -23.304 -19.613  0.00  0.00    -0.269 OA
ATOM      2  N   UNL     1      32.881 -21.988 -18.201  0.00  0.00    -0.294 N 
ATOM      3  C   UNL     1      33.711 -22.209 -19.292  0.00  0.00    +0.260 C 
ATOM      4  H   UNL     1      32.566 -21.072 -18.025  0.00  0.00    +0.150 HD
ENDROOT
BRANCH   2   7
ATOM      5  O   UNL     1      34.633 -22.772 -16.284  0.00  0.00    -0.273 OA
ATOM      6  N   UNL     1      33.017 -23.846 -15.065  0.00  0.00    -0.283 N 
ATOM      7  C   UNL     1      32.461 -23.045 -17.318  0.00  0.00    +0.154 C 
ATOM      8  C   UNL     1      31.037 -22.807 -16.827  0.00  0.00    +0.057 C 
ATOM      9  C   UNL     1      30.681 -23.781 -15.741  0.00  0.00    -0.007 C 
ATOM     10  C   UNL     1      31.681 -24.237 -14.872  0.00  0.00    +0.046 C 
ATOM     11  C   UNL     1      33.469 -23.158 -16.179  0.00  0.00    +0.244 C 
ATOM     12  C   UNL     1      29.352 -24.162 -15.519  0.00  0.00    -0.003 C 
ATOM     13  C   UNL     1      31.357 -25.061 -13.791  0.00  0.00    +0.014 C 
ATOM     14  C   UNL     1      29.033 -25.000 -14.450  0.00  0.00    -0.000 C 
ATOM     15  C   UNL     1      30.033 -25.446 -13.587  0.00  0.00    +0.001 C 
ATOM     16  H   UNL     1      33.671 -24.075 -14.366  0.00  0.00    +0.155 HD
ENDBRANCH   2   7
BRANCH   3  20
ATOM     17 CL   UNL     1      35.419 -16.153 -23.314  0.00  0.00    -0.075 Cl
ATOM     18  S   UNL     1      36.416 -18.564 -21.847  0.00  0.00    -0.061 S 
ATOM     19  N   UNL     1      35.371 -20.723 -20.380  0.00  0.00    -0.304 N 
ATOM     20  C   UNL     1      34.074 -21.010 -20.089  0.00  0.00    +0.103 C 
ATOM     21  C   UNL     1      34.052 -19.207 -21.245  0.00  0.00    +0.022 C 
ATOM     22  C   UNL     1      35.332 -19.582 -21.107  0.00  0.00    +0.080 C 
ATOM     23  C   UNL     1      33.207 -20.101 -20.601  0.00  0.00    +0.021 C 
ATOM     24  C   UNL     1      33.850 -18.040 -21.976  0.00  0.00    +0.020 C 
ATOM     25  C   UNL     1      35.090 -17.558 -22.385  0.00  0.00    +0.088 C 
ATOM     26  H   UNL     1      36.167 -21.236 -20.116  0.00  0.00    +0.153 HD
ENDBRANCH   3  20
TORSDOF 2
ENDMDL
MODEL 7
REMARK VINA RESULT:      -9.6      5.863      9.277
REMARK  Name = 15991547
REMARK  2 active torsions:
REMARK  status: ('A' for Active; 'I' for Inactive)
REMARK    1  A    between atoms: N_2  and  C_7
REMARK    2  A    between atoms: C_3  and  C_20
REMARK                            x       y       z     vdW  Elec       q    Type
REMARK                         _______ _______ _______ _____ _____    ______ ____
ROOT
ATOM      1  O   UNL     1      34.082 -12.625 -25.101  0.00  0.00    -0.269 OA
ATOM      2  N   UNL     1      34.128 -13.179 -22.849  0.00  0.00    -0.294 N 
ATOM      3  C   UNL     1      33.882 -12.335 -23.924  0.00  0.00    +0.260 C 
ATOM      4  H   UNL     1      33.934 -12.856 -21.940  0.00  0.00    +0.150 HD
ENDROOT
BRANCH   2   7
ATOM      5  O   UNL     1      34.757 -14.548 -20.593  0.00  0.00    -0.273 OA
ATOM      6  N   UNL     1      34.815 -16.565 -21.679  0.00  0.00    -0.283 N 
ATOM      7  C   UNL     1      34.655 -14.509 -23.012  0.00  0.00    +0.154 C 
ATOM      8  C   UNL     1      33.837 -15.295 -24.032  0.00  0.00    +0.057 C 
ATOM      9  C   UNL     1      34.244 -16.740 -24.037  0.00  0.00    -0.007 C 
ATOM     10  C   UNL     1      34.683 -17.335 -22.848  0.00  0.00    +0.046 C 
ATOM     11  C   UNL     1      34.703 -15.185 -21.645  0.00  0.00    +0.244 C 
ATOM     12  C   UNL     1      34.096 -17.528 -25.185  0.00  0.00    -0.003 C 
ATOM     13  C   UNL     1      34.967 -18.703 -22.803  0.00  0.00    +0.014 C 
ATOM     14  C   UNL     1      34.398 -18.889 -25.144  0.00  0.00    -0.000 C 
ATOM     15  C   UNL     1      34.831 -19.476 -23.955  0.00  0.00    +0.001 C 
ATOM     16  H   UNL     1      34.998 -17.035 -20.834  0.00  0.00    +0.155 HD
ENDBRANCH   2   7
BRANCH   3  20
ATOM     17 CL   UNL     1      31.183  -5.596 -22.171  0.00  0.00    -0.075 Cl
ATOM     18  S   UNL     1      33.279  -7.170 -23.616  0.00  0.00    -0.061 S 
ATOM     19  N   UNL     1      33.974  -9.860 -24.047  0.00  0.00    -0.304 N 
ATOM     20  C   UNL     1      33.363 -10.984 -23.588  0.00  0.00    +0.103 C 
ATOM     21  C   UNL     1      32.236  -9.328 -22.830  0.00  0.00    +0.022 C 
ATOM     22  C   UNL     1      33.247  -8.830 -23.556  0.00  0.00    +0.080 C 
ATOM     23  C   UNL     1      32.274 -10.717 -22.824  0.00  0.00    +0.021 C 
ATOM     24  C   UNL     1      31.393  -8.382 -22.255  0.00  0.00    +0.020 C 
ATOM     25  C   UNL     1      31.851  -7.115 -22.607  0.00  0.00    +0.088 C 
ATOM     26  H   UNL     1      34.775  -9.808 -24.615  0.00  0.00    +0.153 HD
ENDBRANCH   3  20
TORSDOF 2
ENDMDL
MODEL 8
REMARK VINA RESULT:      -9.6      5.339      7.461
REMARK  Name = 15991547
REMARK  2 active torsions:
REMARK  status: ('A' for Active; 'I' for Inactive)
REMARK    1  A    between atoms: N_2  and  C_7
REMARK    2  A    between atoms: C_3  and  C_20
REMARK                            x       y       z     vdW  Elec       q    Type
REMARK                         _______ _______ _______ _____ _____    ______ ____
ROOT
ATOM      1  O   UNL     1      33.903 -10.715 -23.982  0.00  0.00    -0.269 OA
ATOM      2  N   UNL     1      32.035 -11.310 -22.744  0.00  0.00    -0.294 N 
ATOM      3  C   UNL     1      33.192 -11.573 -23.465  0.00  0.00    +0.260 C 
ATOM      4  H   UNL     1      31.532 -12.067 -22.366  0.00  0.00    +0.150 HD
ENDROOT
BRANCH   2   7
ATOM      5  O   UNL     1      32.251 -10.305 -20.233  0.00  0.00    -0.273 OA
ATOM      6  N   UNL     1      31.925  -8.147 -20.931  0.00  0.00    -0.283 N 
ATOM      7  C   UNL     1      31.543  -9.975 -22.525  0.00  0.00    +0.154 C 
ATOM      8  C   UNL     1      32.009  -9.037 -23.634  0.00  0.00    +0.057 C 
ATOM      9  C   UNL     1      31.688  -7.611 -23.292  0.00  0.00    -0.007 C 
ATOM     10  C   UNL     1      31.695  -7.207 -21.951  0.00  0.00    +0.046 C 
ATOM     11  C   UNL     1      31.981  -9.515 -21.138  0.00  0.00    +0.244 C 
ATOM     12  C   UNL     1      31.481  -6.657 -24.295  0.00  0.00    -0.003 C 
ATOM     13  C   UNL     1      31.502  -5.864 -21.615  0.00  0.00    +0.014 C 
ATOM     14  C   UNL     1      31.270  -5.320 -23.958  0.00  0.00    -0.000 C 
ATOM     15  C   UNL     1      31.283  -4.924 -22.621  0.00  0.00    +0.001 C 
ATOM     16  H   UNL     1      32.053  -7.812 -20.014  0.00  0.00    +0.155 HD
ENDBRANCH   2   7
BRANCH   3  20
ATOM     17 CL   UNL     1      34.945 -18.775 -24.375  0.00  0.00    -0.075 Cl
ATOM     18  S   UNL     1      35.024 -16.371 -22.594  0.00  0.00    -0.061 S 
ATOM     19  N   UNL     1      34.196 -13.684 -22.639  0.00  0.00    -0.304 N 
ATOM     20  C   UNL     1      33.551 -13.005 -23.624  0.00  0.00    +0.103 C 
ATOM     21  C   UNL     1      33.827 -15.003 -24.344  0.00  0.00    +0.022 C 
ATOM     22  C   UNL     1      34.360 -14.940 -23.116  0.00  0.00    +0.080 C 
ATOM     23  C   UNL     1      33.294 -13.775 -24.711  0.00  0.00    +0.021 C 
ATOM     24  C   UNL     1      33.919 -16.244 -24.969  0.00  0.00    +0.020 C 
ATOM     25  C   UNL     1      34.570 -17.122 -24.107  0.00  0.00    +0.088 C 
ATOM     26  H   UNL     1      34.483 -13.335 -21.765  0.00  0.00    +0.153 HD
ENDBRANCH   3  20
TORSDOF 2
ENDMDL
MODEL 9
REMARK VINA RESULT:      -9.6      1.546      2.002
REMARK  Name = 15991547
REMARK  2 active torsions:
REMARK  status: ('A' for Active; 'I' for Inactive)
REMARK    1  A    between atoms: N_2  and  C_7
REMARK    2  A    between atoms: C_3  and  C_20
REMARK                            x       y       z     vdW  Elec       q    Type
REMARK                         _______ _______ _______ _____ _____    ______ ____
ROOT
ATOM      1  O   UNL     1      37.272 -18.918 -21.665  0.00  0.00    -0.269 OA
ATOM      2  N   UNL     1      34.995 -18.479 -21.643  0.00  0.00    -0.294 N 
ATOM      3  C   UNL     1      36.151 -19.108 -21.200  0.00  0.00    +0.260 C 
ATOM      4  H   UNL     1      34.141 -18.697 -21.205  0.00  0.00    +0.150 HD
ENDROOT
BRANCH   2   7
ATOM      5  O   UNL     1      34.765 -19.440 -24.169  0.00  0.00    -0.273 OA
ATOM      6  N   UNL     1      34.195 -17.395 -25.032  0.00  0.00    -0.283 N 
ATOM      7  C   UNL     1      34.996 -17.518 -22.715  0.00  0.00    +0.154 C 
ATOM      8  C   UNL     1      34.081 -16.342 -22.390  0.00  0.00    +0.057 C 
ATOM      9  C   UNL     1      33.909 -15.457 -23.590  0.00  0.00    -0.007 C 
ATOM     10  C   UNL     1      33.934 -16.023 -24.872  0.00  0.00    +0.046 C 
ATOM     11  C   UNL     1      34.610 -18.230 -24.007  0.00  0.00    +0.244 C 
ATOM     12  C   UNL     1      33.623 -14.094 -23.448  0.00  0.00    -0.003 C 
ATOM     13  C   UNL     1      33.672 -15.239 -25.998  0.00  0.00    +0.014 C 
ATOM     14  C   UNL     1      33.381 -13.307 -24.575  0.00  0.00    -0.000 C 
ATOM     15  C   UNL     1      33.403 -13.879 -25.847  0.00  0.00    +0.001 C 
ATOM     16  H   UNL     1      34.078 -17.786 -25.928  0.00  0.00    +0.155 HD
ENDBRANCH   2   7
BRANCH   3  20
ATOM     17 CL   UNL     1      35.171 -24.092 -15.726  0.00  0.00    -0.075 Cl
ATOM     18  S   UNL     1      36.959 -22.040 -16.971  0.00  0.00    -0.061 S 
ATOM     19  N   UNL     1      36.944 -20.280 -19.164  0.00  0.00    -0.304 N 
ATOM     20  C   UNL     1      35.978 -20.094 -20.103  0.00  0.00    +0.103 C 
ATOM     21  C   UNL     1      35.244 -21.599 -18.768  0.00  0.00    +0.022 C 
ATOM     22  C   UNL     1      36.459 -21.234 -18.335  0.00  0.00    +0.080 C 
ATOM     23  C   UNL     1      34.895 -20.888 -19.908  0.00  0.00    +0.021 C 
ATOM     24  C   UNL     1      34.613 -22.581 -18.010  0.00  0.00    +0.020 C 
ATOM     25  C   UNL     1      35.455 -22.933 -16.959  0.00  0.00    +0.088 C 
ATOM     26  H   UNL     1      37.810 -19.820 -19.102  0.00  0.00    +0.153 HD
ENDBRANCH   3  20
TORSDOF 2
ENDMDL
