MODEL 1
REMARK VINA RESULT:     -11.5      0.000      0.000
REMARK  Name = 151194
REMARK  3 active torsions:
REMARK  status: ('A' for Active; 'I' for Inactive)
REMARK    1  A    between atoms: N_1  and  C_14
REMARK    2  A    between atoms: C_6  and  C_20
REMARK    3  A    between atoms: C_20  and  C_22
REMARK                            x       y       z     vdW  Elec       q    Type
REMARK                         _______ _______ _______ _____ _____    ______ ____
ROOT
ATOM      1  N   UNL     1      32.224 -13.290 -22.594  0.00  0.00    -0.297 N 
ATOM      2  N   UNL     1      34.185 -15.768 -20.842  0.00  0.00    -0.151 NA
ATOM      3  N   UNL     1      33.390 -14.697 -21.101  0.00  0.00    -0.133 NA
ATOM      4  C   UNL     1      34.304 -16.279 -23.196  0.00  0.00    +0.018 A 
ATOM      5  C   UNL     1      33.483 -15.173 -23.464  0.00  0.00    +0.035 A 
ATOM      6  C   UNL     1      34.623 -16.530 -21.867  0.00  0.00    +0.085 A 
ATOM      7  C   UNL     1      33.054 -14.417 -22.380  0.00  0.00    +0.154 A 
ATOM      8  C   UNL     1      34.764 -17.077 -24.257  0.00  0.00    +0.001 C 
ATOM      9  C   UNL     1      33.130 -14.876 -24.792  0.00  0.00    +0.003 C 
ATOM     10  C   UNL     1      34.408 -16.773 -25.572  0.00  0.00    +0.000 C 
ATOM     11  C   UNL     1      33.592 -15.674 -25.839  0.00  0.00    +0.000 C 
ATOM     12  H   UNL     1      31.642 -13.371 -23.383  0.00  0.00    +0.154 HD
ENDROOT
BRANCH   1  14
ATOM     13 CL   UNL     1      31.574  -8.188 -19.660  0.00  0.00    -0.082 Cl
ATOM     14  C   UNL     1      32.070 -12.080 -21.899  0.00  0.00    +0.049 C 
ATOM     15  C   UNL     1      31.694 -12.085 -20.553  0.00  0.00    +0.016 C 
ATOM     16  C   UNL     1      32.291 -10.862 -22.549  0.00  0.00    +0.016 C 
ATOM     17  C   UNL     1      31.541 -10.884 -19.861  0.00  0.00    +0.013 C 
ATOM     18  C   UNL     1      32.138  -9.660 -21.857  0.00  0.00    +0.013 C 
ATOM     19  C   UNL     1      31.763  -9.671 -20.514  0.00  0.00    +0.058 C 
ENDBRANCH   1  14
BRANCH   6  20
ATOM     20  C   UNL     1      35.489 -17.681 -21.468  0.00  0.00    +0.074 C 
BRANCH  20  22
ATOM     21  N   UNL     1      33.305 -21.097 -20.079  0.00  0.00    -0.242 NA
ATOM     22  C   UNL     1      34.718 -18.887 -20.977  0.00  0.00    -0.013 C 
ATOM     23  C   UNL     1      33.343 -18.899 -21.086  0.00  0.00    +0.017 C 
ATOM     24  C   UNL     1      35.405 -19.951 -20.430  0.00  0.00    +0.017 C 
ATOM     25  C   UNL     1      32.684 -20.026 -20.623  0.00  0.00    +0.099 C 
ATOM     26  C   UNL     1      34.654 -21.031 -19.997  0.00  0.00    +0.099 C 
ENDBRANCH  20  22
ENDBRANCH   6  20
TORSDOF 3
ENDMDL
MODEL 2
REMARK VINA RESULT:     -11.1      6.208      9.978
REMARK  Name = 151194
REMARK  3 active torsions:
REMARK  status: ('A' for Active; 'I' for Inactive)
REMARK    1  A    between atoms: N_1  and  C_14
REMARK    2  A    between atoms: C_6  and  C_20
REMARK    3  A    between atoms: C_20  and  C_22
REMARK                            x       y       z     vdW  Elec       q    Type
REMARK                         _______ _______ _______ _____ _____    ______ ____
ROOT
ATOM      1  N   UNL     1      35.025 -22.092 -18.701  0.00  0.00    -0.297 N 
ATOM      2  N   UNL     1      31.844 -22.943 -17.216  0.00  0.00    -0.151 NA
ATOM      3  N   UNL     1      32.783 -22.500 -18.093  0.00  0.00    -0.133 NA
ATOM      4  C   UNL     1      33.565 -23.527 -15.630  0.00  0.00    +0.018 A 
ATOM      5  C   UNL     1      34.535 -23.070 -16.536  0.00  0.00    +0.035 A 
ATOM      6  C   UNL     1      32.234 -23.440 -16.022  0.00  0.00    +0.085 A 
ATOM      7  C   UNL     1      34.089 -22.567 -17.751  0.00  0.00    +0.154 A 
ATOM      8  C   UNL     1      33.964 -24.045 -14.386  0.00  0.00    +0.001 C 
ATOM      9  C   UNL     1      35.895 -23.136 -16.187  0.00  0.00    +0.003 C 
ATOM     10  C   UNL     1      35.317 -24.106 -14.051  0.00  0.00    +0.000 C 
ATOM     11  C   UNL     1      36.281 -23.653 -14.951  0.00  0.00    +0.000 C 
ATOM     12  H   UNL     1      35.897 -22.549 -18.661  0.00  0.00    +0.154 HD
ENDROOT
BRANCH   1  14
ATOM     13 CL   UNL     1      34.717 -17.899 -22.870  0.00  0.00    -0.082 Cl
ATOM     14  C   UNL     1      34.952 -21.098 -19.691  0.00  0.00    +0.049 C 
ATOM     15  C   UNL     1      33.713 -20.700 -20.197  0.00  0.00    +0.016 C 
ATOM     16  C   UNL     1      36.120 -20.502 -20.175  0.00  0.00    +0.016 C 
ATOM     17  C   UNL     1      33.639 -19.712 -21.179  0.00  0.00    +0.013 C 
ATOM     18  C   UNL     1      36.048 -19.513 -21.157  0.00  0.00    +0.013 C 
ATOM     19  C   UNL     1      34.807 -19.118 -21.659  0.00  0.00    +0.058 C 
ENDBRANCH   1  14
BRANCH   6  20
ATOM     20  C   UNL     1      31.121 -23.898 -15.138  0.00  0.00    +0.074 C 
BRANCH  20  22
ATOM     21  N   UNL     1      27.218 -22.933 -16.624  0.00  0.00    -0.242 NA
ATOM     22  C   UNL     1      29.742 -23.557 -15.662  0.00  0.00    -0.013 C 
ATOM     23  C   UNL     1      29.108 -22.422 -15.204  0.00  0.00    +0.017 C 
ATOM     24  C   UNL     1      29.148 -24.389 -16.588  0.00  0.00    +0.017 C 
ATOM     25  C   UNL     1      27.848 -22.154 -15.716  0.00  0.00    +0.099 C 
ATOM     26  C   UNL     1      27.887 -24.033 -17.037  0.00  0.00    +0.099 C 
ENDBRANCH  20  22
ENDBRANCH   6  20
TORSDOF 3
ENDMDL
MODEL 3
REMARK VINA RESULT:     -10.8      3.877      9.646
REMARK  Name = 151194
REMARK  3 active torsions:
REMARK  status: ('A' for Active; 'I' for Inactive)
REMARK    1  A    between atoms: N_1  and  C_14
REMARK    2  A    between atoms: C_6  and  C_20
REMARK    3  A    between atoms: C_20  and  C_22
REMARK                            x       y       z     vdW  Elec       q    Type
REMARK                         _______ _______ _______ _____ _____    ______ ____
ROOT
ATOM      1  N   UNL     1      32.149 -12.815 -22.838  0.00  0.00    -0.297 N 
ATOM      2  N   UNL     1      33.548  -9.579 -23.628  0.00  0.00    -0.151 NA
ATOM      3  N   UNL     1      33.197 -10.889 -23.709  0.00  0.00    -0.133 NA
ATOM      4  C   UNL     1      32.453  -9.394 -21.487  0.00  0.00    +0.018 A 
ATOM      5  C   UNL     1      32.091 -10.748 -21.570  0.00  0.00    +0.035 A 
ATOM      6  C   UNL     1      33.181  -8.862 -22.544  0.00  0.00    +0.085 A 
ATOM      7  C   UNL     1      32.488 -11.447 -22.703  0.00  0.00    +0.154 A 
ATOM      8  C   UNL     1      32.076  -8.642 -20.361  0.00  0.00    +0.001 C 
ATOM      9  C   UNL     1      31.354 -11.334 -20.527  0.00  0.00    +0.003 C 
ATOM     10  C   UNL     1      31.345  -9.235 -19.332  0.00  0.00    +0.000 C 
ATOM     11  C   UNL     1      30.984 -10.579 -19.414  0.00  0.00    +0.000 C 
ATOM     12  H   UNL     1      31.306 -13.060 -22.393  0.00  0.00    +0.154 HD
ENDROOT
BRANCH   1  14
ATOM     13 CL   UNL     1      34.815 -17.344 -25.565  0.00  0.00    -0.082 Cl
ATOM     14  C   UNL     1      32.781 -13.890 -23.485  0.00  0.00    +0.049 C 
ATOM     15  C   UNL     1      32.682 -14.033 -24.871  0.00  0.00    +0.016 C 
ATOM     16  C   UNL     1      33.513 -14.823 -22.745  0.00  0.00    +0.016 C 
ATOM     17  C   UNL     1      33.310 -15.100 -25.514  0.00  0.00    +0.013 C 
ATOM     18  C   UNL     1      34.142 -15.890 -23.387  0.00  0.00    +0.013 C 
ATOM     19  C   UNL     1      34.040 -16.029 -24.772  0.00  0.00    +0.058 C 
ENDBRANCH   1  14
BRANCH   6  20
ATOM     20  C   UNL     1      33.619  -7.433 -22.559  0.00  0.00    +0.074 C 
BRANCH  20  22
ATOM     21  N   UNL     1      30.609  -4.709 -23.935  0.00  0.00    -0.242 NA
ATOM     22  C   UNL     1      32.555  -6.471 -23.045  0.00  0.00    -0.013 C 
ATOM     23  C   UNL     1      31.888  -5.685 -22.130  0.00  0.00    +0.017 C 
ATOM     24  C   UNL     1      32.275  -6.400 -24.394  0.00  0.00    +0.017 C 
ATOM     25  C   UNL     1      30.925  -4.821 -22.625  0.00  0.00    +0.099 C 
ATOM     26  C   UNL     1      31.295  -5.505 -24.787  0.00  0.00    +0.099 C 
ENDBRANCH  20  22
ENDBRANCH   6  20
TORSDOF 3
ENDMDL
MODEL 4
REMARK VINA RESULT:     -10.7      3.544      6.642
REMARK  Name = 151194
REMARK  3 active torsions:
REMARK  status: ('A' for Active; 'I' for Inactive)
REMARK    1  A    between atoms: N_1  and  C_14
REMARK    2  A    between atoms: C_6  and  C_20
REMARK    3  A    between atoms: C_20  and  C_22
REMARK                            x       y       z     vdW  Elec       q    Type
REMARK                         _______ _______ _______ _____ _____    ______ ____
ROOT
ATOM      1  N   UNL     1      33.302  -7.746 -22.835  0.00  0.00    -0.297 N 
ATOM      2  N   UNL     1      32.704 -11.213 -23.657  0.00  0.00    -0.151 NA
ATOM      3  N   UNL     1      33.081  -9.911 -23.747  0.00  0.00    -0.133 NA
ATOM      4  C   UNL     1      31.935 -10.859 -21.399  0.00  0.00    +0.018 A 
ATOM      5  C   UNL     1      32.324  -9.514 -21.492  0.00  0.00    +0.035 A 
ATOM      6  C   UNL     1      32.149 -11.664 -22.512  0.00  0.00    +0.085 A 
ATOM      7  C   UNL     1      32.892  -9.094 -22.688  0.00  0.00    +0.154 A 
ATOM      8  C   UNL     1      31.355 -11.335 -20.211  0.00  0.00    +0.001 C 
ATOM      9  C   UNL     1      32.129  -8.658 -20.394  0.00  0.00    +0.003 C 
ATOM     10  C   UNL     1      31.167 -10.477 -19.127  0.00  0.00    +0.000 C 
ATOM     11  C   UNL     1      31.554  -9.140 -19.218  0.00  0.00    +0.000 C 
ATOM     12  H   UNL     1      33.588  -7.325 -21.993  0.00  0.00    +0.154 HD
ENDROOT
BRANCH   1  14
ATOM     13 CL   UNL     1      33.632  -4.158 -27.534  0.00  0.00    -0.082 Cl
ATOM     14  C   UNL     1      33.380  -6.895 -23.949  0.00  0.00    +0.049 C 
ATOM     15  C   UNL     1      34.551  -6.836 -24.709  0.00  0.00    +0.016 C 
ATOM     16  C   UNL     1      32.286  -6.100 -24.305  0.00  0.00    +0.016 C 
ATOM     17  C   UNL     1      34.629  -5.992 -25.816  0.00  0.00    +0.013 C 
ATOM     18  C   UNL     1      32.363  -5.255 -25.413  0.00  0.00    +0.013 C 
ATOM     19  C   UNL     1      33.535  -5.200 -26.168  0.00  0.00    +0.058 C 
ENDBRANCH   1  14
BRANCH   6  20
ATOM     20  C   UNL     1      31.773 -13.110 -22.523  0.00  0.00    +0.074 C 
BRANCH  20  22
ATOM     21  N   UNL     1      35.012 -15.752 -21.574  0.00  0.00    -0.242 NA
ATOM     22  C   UNL     1      32.918 -14.043 -22.187  0.00  0.00    -0.013 C 
ATOM     23  C   UNL     1      33.170 -14.354 -20.868  0.00  0.00    +0.017 C 
ATOM     24  C   UNL     1      33.685 -14.563 -23.209  0.00  0.00    +0.017 C 
ATOM     25  C   UNL     1      34.227 -15.213 -20.614  0.00  0.00    +0.099 C 
ATOM     26  C   UNL     1      34.720 -15.412 -22.850  0.00  0.00    +0.099 C 
ENDBRANCH  20  22
ENDBRANCH   6  20
TORSDOF 3
ENDMDL
MODEL 5
REMARK VINA RESULT:     -10.6      1.560      2.263
REMARK  Name = 151194
REMARK  3 active torsions:
REMARK  status: ('A' for Active; 'I' for Inactive)
REMARK    1  A    between atoms: N_1  and  C_14
REMARK    2  A    between atoms: C_6  and  C_20
REMARK    3  A    between atoms: C_20  and  C_22
REMARK                            x       y       z     vdW  Elec       q    Type
REMARK                         _______ _______ _______ _____ _____    ______ ____
ROOT
ATOM      1  N   UNL     1      33.133 -14.663 -23.669  0.00  0.00    -0.297 N 
ATOM      2  N   UNL     1      34.888 -16.411 -21.039  0.00  0.00    -0.151 NA
ATOM      3  N   UNL     1      34.185 -15.465 -21.716  0.00  0.00    -0.133 NA
ATOM      4  C   UNL     1      34.943 -17.809 -23.004  0.00  0.00    +0.018 A 
ATOM      5  C   UNL     1      34.218 -16.832 -23.703  0.00  0.00    +0.035 A 
ATOM      6  C   UNL     1      35.251 -17.547 -21.674  0.00  0.00    +0.085 A 
ATOM      7  C   UNL     1      33.865 -15.681 -23.010  0.00  0.00    +0.154 A 
ATOM      8  C   UNL     1      35.325 -18.993 -23.658  0.00  0.00    +0.001 C 
ATOM      9  C   UNL     1      33.881 -17.050 -25.050  0.00  0.00    +0.003 C 
ATOM     10  C   UNL     1      34.985 -19.198 -24.996  0.00  0.00    +0.000 C 
ATOM     11  C   UNL     1      34.264 -18.228 -25.691  0.00  0.00    +0.000 C 
ATOM     12  H   UNL     1      32.539 -14.998 -24.379  0.00  0.00    +0.154 HD
ENDROOT
BRANCH   1  14
ATOM     13 CL   UNL     1      32.946  -8.786 -22.973  0.00  0.00    -0.082 Cl
ATOM     14  C   UNL     1      33.088 -13.269 -23.504  0.00  0.00    +0.049 C 
ATOM     15  C   UNL     1      32.225 -12.699 -22.564  0.00  0.00    +0.016 C 
ATOM     16  C   UNL     1      33.907 -12.443 -24.280  0.00  0.00    +0.016 C 
ATOM     17  C   UNL     1      32.181 -11.314 -22.400  0.00  0.00    +0.013 C 
ATOM     18  C   UNL     1      33.864 -11.058 -24.116  0.00  0.00    +0.013 C 
ATOM     19  C   UNL     1      33.000 -10.494 -23.176  0.00  0.00    +0.058 C 
ENDBRANCH   1  14
BRANCH   6  20
ATOM     20  C   UNL     1      36.018 -18.517 -20.836  0.00  0.00    +0.074 C 
BRANCH  20  22
ATOM     21  N   UNL     1      33.740 -21.936 -19.614  0.00  0.00    -0.242 NA
ATOM     22  C   UNL     1      35.214 -19.725 -20.405  0.00  0.00    -0.013 C 
ATOM     23  C   UNL     1      35.870 -20.825 -19.894  0.00  0.00    +0.017 C 
ATOM     24  C   UNL     1      33.840 -19.700 -20.531  0.00  0.00    +0.017 C 
ATOM     25  C   UNL     1      35.088 -21.904 -19.513  0.00  0.00    +0.099 C 
ATOM     26  C   UNL     1      33.150 -20.830 -20.122  0.00  0.00    +0.099 C 
ENDBRANCH  20  22
ENDBRANCH   6  20
TORSDOF 3
ENDMDL
MODEL 6
REMARK VINA RESULT:     -10.4      3.548      6.672
REMARK  Name = 151194
REMARK  3 active torsions:
REMARK  status: ('A' for Active; 'I' for Inactive)
REMARK    1  A    between atoms: N_1  and  C_14
REMARK    2  A    between atoms: C_6  and  C_20
REMARK    3  A    between atoms: C_20  and  C_22
REMARK                            x       y       z     vdW  Elec       q    Type
REMARK                         _______ _______ _______ _____ _____    ______ ____
ROOT
ATOM      1  N   UNL     1      33.311  -7.759 -22.842  0.00  0.00    -0.297 N 
ATOM      2  N   UNL     1      32.681 -11.196 -23.758  0.00  0.00    -0.151 NA
ATOM      3  N   UNL     1      33.052  -9.891 -23.819  0.00  0.00    -0.133 NA
ATOM      4  C   UNL     1      32.011 -10.923 -21.456  0.00  0.00    +0.018 A 
ATOM      5  C   UNL     1      32.395  -9.575 -21.519  0.00  0.00    +0.035 A 
ATOM      6  C   UNL     1      32.176 -11.688 -22.605  0.00  0.00    +0.085 A 
ATOM      7  C   UNL     1      32.909  -9.111 -22.724  0.00  0.00    +0.154 A 
ATOM      8  C   UNL     1      31.485 -11.442 -20.261  0.00  0.00    +0.001 C 
ATOM      9  C   UNL     1      32.248  -8.758 -20.385  0.00  0.00    +0.003 C 
ATOM     10  C   UNL     1      31.344 -10.622 -19.141  0.00  0.00    +0.000 C 
ATOM     11  C   UNL     1      31.726  -9.282 -19.202  0.00  0.00    +0.000 C 
ATOM     12  H   UNL     1      33.634  -7.367 -21.999  0.00  0.00    +0.154 HD
ENDROOT
BRANCH   1  14
ATOM     13 CL   UNL     1      33.431  -4.005 -27.419  0.00  0.00    -0.082 Cl
ATOM     14  C   UNL     1      33.339  -6.869 -23.928  0.00  0.00    +0.049 C 
ATOM     15  C   UNL     1      32.301  -5.953 -24.114  0.00  0.00    +0.016 C 
ATOM     16  C   UNL     1      34.407  -6.894 -24.830  0.00  0.00    +0.016 C 
ATOM     17  C   UNL     1      32.329  -5.068 -25.192  0.00  0.00    +0.013 C 
ATOM     18  C   UNL     1      34.436  -6.009 -25.908  0.00  0.00    +0.013 C 
ATOM     19  C   UNL     1      33.396  -5.097 -26.089  0.00  0.00    +0.058 C 
ENDBRANCH   1  14
BRANCH   6  20
ATOM     20  C   UNL     1      31.802 -13.134 -22.650  0.00  0.00    +0.074 C 
BRANCH  20  22
ATOM     21  N   UNL     1      35.141 -15.779 -23.126  0.00  0.00    -0.242 NA
ATOM     22  C   UNL     1      32.982 -14.068 -22.818  0.00  0.00    -0.013 C 
ATOM     23  C   UNL     1      33.696 -14.459 -21.705  0.00  0.00    +0.017 C 
ATOM     24  C   UNL     1      33.318 -14.509 -24.081  0.00  0.00    +0.017 C 
ATOM     25  C   UNL     1      34.766 -15.315 -21.912  0.00  0.00    +0.099 C 
ATOM     26  C   UNL     1      34.405 -15.362 -24.181  0.00  0.00    +0.099 C 
ENDBRANCH  20  22
ENDBRANCH   6  20
TORSDOF 3
ENDMDL
MODEL 7
REMARK VINA RESULT:     -10.3      3.249      7.769
REMARK  Name = 151194
REMARK  3 active torsions:
REMARK  status: ('A' for Active; 'I' for Inactive)
REMARK    1  A    between atoms: N_1  and  C_14
REMARK    2  A    between atoms: C_6  and  C_20
REMARK    3  A    between atoms: C_20  and  C_22
REMARK                            x       y       z     vdW  Elec       q    Type
REMARK                         _______ _______ _______ _____ _____    ______ ____
ROOT
ATOM      1  N   UNL     1      35.079 -17.286 -22.868  0.00  0.00    -0.297 N 
ATOM      2  N   UNL     1      33.373 -14.409 -21.501  0.00  0.00    -0.151 NA
ATOM      3  N   UNL     1      34.108 -15.548 -21.602  0.00  0.00    -0.133 NA
ATOM      4  C   UNL     1      33.037 -14.386 -23.890  0.00  0.00    +0.018 A 
ATOM      5  C   UNL     1      33.796 -15.563 -23.994  0.00  0.00    +0.035 A 
ATOM      6  C   UNL     1      32.858 -13.853 -22.619  0.00  0.00    +0.085 A 
ATOM      7  C   UNL     1      34.307 -16.100 -22.819  0.00  0.00    +0.154 A 
ATOM      8  C   UNL     1      32.497 -13.802 -25.048  0.00  0.00    +0.001 C 
ATOM      9  C   UNL     1      34.006 -16.142 -25.257  0.00  0.00    +0.003 C 
ATOM     10  C   UNL     1      32.713 -14.386 -26.297  0.00  0.00    +0.000 C 
ATOM     11  C   UNL     1      33.467 -15.555 -26.401  0.00  0.00    +0.000 C 
ATOM     12  H   UNL     1      35.582 -17.397 -23.706  0.00  0.00    +0.154 HD
ENDROOT
BRANCH   1  14
ATOM     13 CL   UNL     1      35.870 -21.703 -19.004  0.00  0.00    -0.082 Cl
ATOM     14  C   UNL     1      35.266 -18.334 -21.952  0.00  0.00    +0.049 C 
ATOM     15  C   UNL     1      36.548 -18.643 -21.489  0.00  0.00    +0.016 C 
ATOM     16  C   UNL     1      34.172 -19.075 -21.498  0.00  0.00    +0.016 C 
ATOM     17  C   UNL     1      36.735 -19.683 -20.578  0.00  0.00    +0.013 C 
ATOM     18  C   UNL     1      34.357 -20.116 -20.587  0.00  0.00    +0.013 C 
ATOM     19  C   UNL     1      35.639 -20.420 -20.128  0.00  0.00    +0.058 C 
ENDBRANCH   1  14
BRANCH   6  20
ATOM     20  C   UNL     1      32.069 -12.604 -22.392  0.00  0.00    +0.074 C 
BRANCH  20  22
ATOM     21  N   UNL     1      33.973  -9.058 -23.865  0.00  0.00    -0.242 NA
ATOM     22  C   UNL     1      32.741 -11.351 -22.913  0.00  0.00    -0.013 C 
ATOM     23  C   UNL     1      32.213 -10.119 -22.592  0.00  0.00    +0.017 C 
ATOM     24  C   UNL     1      33.870 -11.468 -23.698  0.00  0.00    +0.017 C 
ATOM     25  C   UNL     1      32.865  -9.004 -23.092  0.00  0.00    +0.099 C 
ATOM     26  C   UNL     1      34.447 -10.293 -24.149  0.00  0.00    +0.099 C 
ENDBRANCH  20  22
ENDBRANCH   6  20
TORSDOF 3
ENDMDL
MODEL 8
REMARK VINA RESULT:     -10.2      3.627      7.766
REMARK  Name = 151194
REMARK  3 active torsions:
REMARK  status: ('A' for Active; 'I' for Inactive)
REMARK    1  A    between atoms: N_1  and  C_14
REMARK    2  A    between atoms: C_6  and  C_20
REMARK    3  A    between atoms: C_20  and  C_22
REMARK                            x       y       z     vdW  Elec       q    Type
REMARK                         _______ _______ _______ _____ _____    ______ ____
ROOT
ATOM      1  N   UNL     1      35.101 -20.300 -21.310  0.00  0.00    -0.297 N 
ATOM      2  N   UNL     1      35.383 -16.738 -20.773  0.00  0.00    -0.151 NA
ATOM      3  N   UNL     1      35.371 -18.080 -20.558  0.00  0.00    -0.133 NA
ATOM      4  C   UNL     1      34.839 -17.081 -23.098  0.00  0.00    +0.018 A 
ATOM      5  C   UNL     1      34.828 -18.467 -22.876  0.00  0.00    +0.035 A 
ATOM      6  C   UNL     1      35.123 -16.263 -22.010  0.00  0.00    +0.085 A 
ATOM      7  C   UNL     1      35.100 -18.911 -21.588  0.00  0.00    +0.154 A 
ATOM      8  C   UNL     1      34.570 -16.580 -24.383  0.00  0.00    +0.001 C 
ATOM      9  C   UNL     1      34.546 -19.338 -23.943  0.00  0.00    +0.003 C 
ATOM     10  C   UNL     1      34.292 -17.453 -25.434  0.00  0.00    +0.000 C 
ATOM     11  C   UNL     1      34.280 -18.830 -25.215  0.00  0.00    +0.000 C 
ATOM     12  H   UNL     1      35.365 -20.857 -22.077  0.00  0.00    +0.154 HD
ENDROOT
BRANCH   1  14
ATOM     13 CL   UNL     1      33.827 -23.403 -16.431  0.00  0.00    -0.082 Cl
ATOM     14  C   UNL     1      34.799 -21.035 -20.153  0.00  0.00    +0.049 C 
ATOM     15  C   UNL     1      33.473 -21.354 -19.848  0.00  0.00    +0.016 C 
ATOM     16  C   UNL     1      35.823 -21.452 -19.298  0.00  0.00    +0.016 C 
ATOM     17  C   UNL     1      33.173 -22.085 -18.699  0.00  0.00    +0.013 C 
ATOM     18  C   UNL     1      35.524 -22.184 -18.148  0.00  0.00    +0.013 C 
ATOM     19  C   UNL     1      34.198 -22.500 -17.849  0.00  0.00    +0.058 C 
ENDBRANCH   1  14
BRANCH   6  20
ATOM     20  C   UNL     1      35.163 -14.774 -22.133  0.00  0.00    +0.074 C 
BRANCH  20  22
ATOM     21  N   UNL     1      31.414 -12.865 -21.318  0.00  0.00    -0.242 NA
ATOM     22  C   UNL     1      33.838 -14.100 -21.845  0.00  0.00    -0.013 C 
ATOM     23  C   UNL     1      33.244 -14.280 -20.614  0.00  0.00    +0.017 C 
ATOM     24  C   UNL     1      33.253 -13.319 -22.820  0.00  0.00    +0.017 C 
ATOM     25  C   UNL     1      32.033 -13.641 -20.400  0.00  0.00    +0.099 C 
ATOM     26  C   UNL     1      32.042 -12.724 -22.507  0.00  0.00    +0.099 C 
ENDBRANCH  20  22
ENDBRANCH   6  20
TORSDOF 3
ENDMDL
MODEL 9
REMARK VINA RESULT:     -10.1      5.543      9.149
REMARK  Name = 151194
REMARK  3 active torsions:
REMARK  status: ('A' for Active; 'I' for Inactive)
REMARK    1  A    between atoms: N_1  and  C_14
REMARK    2  A    between atoms: C_6  and  C_20
REMARK    3  A    between atoms: C_20  and  C_22
REMARK                            x       y       z     vdW  Elec       q    Type
REMARK                         _______ _______ _______ _____ _____    ______ ____
ROOT
ATOM      1  N   UNL     1      35.751 -21.160 -19.405  0.00  0.00    -0.297 N 
ATOM      2  N   UNL     1      32.832 -22.891 -18.167  0.00  0.00    -0.151 NA
ATOM      3  N   UNL     1      33.666 -22.170 -18.962  0.00  0.00    -0.133 NA
ATOM      4  C   UNL     1      34.562 -23.100 -16.499  0.00  0.00    +0.018 A 
ATOM      5  C   UNL     1      35.424 -22.355 -17.319  0.00  0.00    +0.035 A 
ATOM      6  C   UNL     1      33.277 -23.339 -16.973  0.00  0.00    +0.085 A 
ATOM      7  C   UNL     1      34.924 -21.916 -18.539  0.00  0.00    +0.154 A 
ATOM      8  C   UNL     1      35.018 -23.568 -15.255  0.00  0.00    +0.001 C 
ATOM      9  C   UNL     1      36.733 -22.086 -16.887  0.00  0.00    +0.003 C 
ATOM     10  C   UNL     1      36.321 -23.295 -14.836  0.00  0.00    +0.000 C 
ATOM     11  C   UNL     1      37.177 -22.555 -15.650  0.00  0.00    +0.000 C 
ATOM     12  H   UNL     1      36.708 -21.376 -19.327  0.00  0.00    +0.154 HD
ENDROOT
BRANCH   1  14
ATOM     13 CL   UNL     1      34.569 -16.956 -23.403  0.00  0.00    -0.082 Cl
ATOM     14  C   UNL     1      35.471 -20.163 -20.354  0.00  0.00    +0.049 C 
ATOM     15  C   UNL     1      34.165 -19.978 -20.815  0.00  0.00    +0.016 C 
ATOM     16  C   UNL     1      36.498 -19.350 -20.843  0.00  0.00    +0.016 C 
ATOM     17  C   UNL     1      33.886 -18.988 -21.756  0.00  0.00    +0.013 C 
ATOM     18  C   UNL     1      36.219 -18.359 -21.785  0.00  0.00    +0.013 C 
ATOM     19  C   UNL     1      34.914 -18.178 -22.242  0.00  0.00    +0.058 C 
ENDBRANCH   1  14
BRANCH   6  20
ATOM     20  C   UNL     1      32.279 -24.120 -16.183  0.00  0.00    +0.074 C 
BRANCH  20  22
ATOM     21  N   UNL     1      28.597 -22.037 -15.492  0.00  0.00    -0.242 NA
ATOM     22  C   UNL     1      30.978 -23.384 -15.939  0.00  0.00    -0.013 C 
ATOM     23  C   UNL     1      29.948 -23.516 -16.846  0.00  0.00    +0.017 C 
ATOM     24  C   UNL     1      30.850 -22.596 -14.814  0.00  0.00    +0.017 C 
ATOM     25  C   UNL     1      28.779 -22.823 -16.577  0.00  0.00    +0.099 C 
ATOM     26  C   UNL     1      29.641 -21.944 -14.636  0.00  0.00    +0.099 C 
ENDBRANCH  20  22
ENDBRANCH   6  20
TORSDOF 3
ENDMDL
