MODEL 1
REMARK VINA RESULT:      -6.5      0.000      0.000
REMARK  Name = 4649
REMARK  4 active torsions:
REMARK  status: ('A' for Active; 'I' for Inactive)
REMARK    1  A    between atoms: C_1  and  C_13
REMARK    2  A    between atoms: C_2  and  O_10
REMARK    3  A    between atoms: C_3  and  N_7
REMARK    4  A    between atoms: C_13  and  O_14
REMARK                            x       y       z     vdW  Elec       q    Type
REMARK                         _______ _______ _______ _____ _____    ______ ____
ROOT
ATOM      1  C   UNL     1      29.381 -23.708 -16.124  0.00  0.00    +0.109 C 
ATOM      2  C   UNL     1      30.690 -23.255 -16.287  0.00  0.00    +0.141 C 
ATOM      3  C   UNL     1      31.412 -24.682 -14.477  0.00  0.00    +0.045 C 
ATOM      4  C   UNL     1      31.706 -23.742 -15.464  0.00  0.00    +0.051 C 
ATOM      5  C   UNL     1      29.088 -24.649 -15.137  0.00  0.00    +0.011 C 
ATOM      6  C   UNL     1      30.103 -25.137 -14.314  0.00  0.00    +0.014 C 
ENDROOT
BRANCH   3   7
ATOM      7  N   UNL     1      32.438 -25.175 -13.645  0.00  0.00    -0.357 N 
ATOM      8  H   UNL     1      32.671 -26.131 -13.664  0.00  0.00    +0.142 HD
ATOM      9  H   UNL     1      32.923 -24.563 -13.045  0.00  0.00    +0.142 HD
ENDBRANCH   3   7
BRANCH   2  10
ATOM     10  O   UNL     1      30.997 -22.336 -17.246  0.00  0.00    -0.505 OA
ATOM     11  H   UNL     1      31.598 -21.643 -17.057  0.00  0.00    +0.292 HD
ENDBRANCH   2  10
BRANCH   1  13
ATOM     12  O   UNL     1      27.600 -23.905 -17.709  0.00  0.00    -0.245 OA
ATOM     13  C   UNL     1      28.307 -23.211 -16.972  0.00  0.00    +0.341 C 
BRANCH  13  14
ATOM     14  O   UNL     1      28.149 -21.864 -16.872  0.00  0.00    -0.477 OA
ATOM     15  H   UNL     1      28.889 -21.297 -16.967  0.00  0.00    +0.295 HD
ENDBRANCH  13  14
ENDBRANCH   1  13
TORSDOF 4
ENDMDL
MODEL 2
REMARK VINA RESULT:      -6.5      7.627      9.386
REMARK  Name = 4649
REMARK  4 active torsions:
REMARK  status: ('A' for Active; 'I' for Inactive)
REMARK    1  A    between atoms: C_1  and  C_13
REMARK    2  A    between atoms: C_2  and  O_10
REMARK    3  A    between atoms: C_3  and  N_7
REMARK    4  A    between atoms: C_13  and  O_14
REMARK                            x       y       z     vdW  Elec       q    Type
REMARK                         _______ _______ _______ _____ _____    ______ ____
ROOT
ATOM      1  C   UNL     1      38.892 -25.702 -14.117  0.00  0.00    +0.109 C 
ATOM      2  C   UNL     1      37.687 -26.048 -14.728  0.00  0.00    +0.141 C 
ATOM      3  C   UNL     1      36.469 -25.065 -12.889  0.00  0.00    +0.045 C 
ATOM      4  C   UNL     1      36.476 -25.729 -14.115  0.00  0.00    +0.051 C 
ATOM      5  C   UNL     1      38.885 -25.037 -12.891  0.00  0.00    +0.011 C 
ATOM      6  C   UNL     1      37.674 -24.717 -12.277  0.00  0.00    +0.014 C 
ENDROOT
BRANCH   3   7
ATOM      7  N   UNL     1      35.245 -24.742 -12.268  0.00  0.00    -0.357 N 
ATOM      8  H   UNL     1      35.172 -23.933 -11.712  0.00  0.00    +0.142 HD
ATOM      9  H   UNL     1      34.462 -25.327 -12.390  0.00  0.00    +0.142 HD
ENDBRANCH   3   7
BRANCH   2  10
ATOM     10  O   UNL     1      37.673 -26.697 -15.927  0.00  0.00    -0.505 OA
ATOM     11  H   UNL     1      37.620 -26.208 -16.724  0.00  0.00    +0.292 HD
ENDBRANCH   2  10
BRANCH   1  13
ATOM     12  O   UNL     1      41.126 -26.556 -14.172  0.00  0.00    -0.245 OA
ATOM     13  C   UNL     1      40.167 -26.026 -14.741  0.00  0.00    +0.341 C 
BRANCH  13  14
ATOM     14  O   UNL     1      40.203 -25.680 -16.056  0.00  0.00    -0.477 OA
ATOM     15  H   UNL     1      40.885 -26.007 -16.609  0.00  0.00    +0.295 HD
ENDBRANCH  13  14
ENDBRANCH   1  13
TORSDOF 4
ENDMDL
MODEL 3
REMARK VINA RESULT:      -6.4      6.278      7.483
REMARK  Name = 4649
REMARK  4 active torsions:
REMARK  status: ('A' for Active; 'I' for Inactive)
REMARK    1  A    between atoms: C_1  and  C_13
REMARK    2  A    between atoms: C_2  and  O_10
REMARK    3  A    between atoms: C_3  and  N_7
REMARK    4  A    between atoms: C_13  and  O_14
REMARK                            x       y       z     vdW  Elec       q    Type
REMARK                         _______ _______ _______ _____ _____    ______ ____
ROOT
ATOM      1  C   UNL     1      34.011 -21.419 -19.587  0.00  0.00    +0.109 C 
ATOM      2  C   UNL     1      35.398 -21.288 -19.515  0.00  0.00    +0.141 C 
ATOM      3  C   UNL     1      35.297 -19.388 -21.004  0.00  0.00    +0.045 C 
ATOM      4  C   UNL     1      36.041 -20.273 -20.223  0.00  0.00    +0.051 C 
ATOM      5  C   UNL     1      33.267 -20.533 -20.366  0.00  0.00    +0.011 C 
ATOM      6  C   UNL     1      33.909 -19.518 -21.075  0.00  0.00    +0.014 C 
ENDROOT
BRANCH   3   7
ATOM      7  N   UNL     1      35.946 -18.362 -21.720  0.00  0.00    -0.357 N 
ATOM      8  H   UNL     1      35.851 -18.307 -22.698  0.00  0.00    +0.142 HD
ATOM      9  H   UNL     1      36.496 -17.699 -21.242  0.00  0.00    +0.142 HD
ENDBRANCH   3   7
BRANCH   2  10
ATOM     10  O   UNL     1      36.142 -22.142 -18.757  0.00  0.00    -0.505 OA
ATOM     11  H   UNL     1      35.773 -22.954 -18.467  0.00  0.00    +0.292 HD
ENDBRANCH   2  10
BRANCH   1  13
ATOM     12  O   UNL     1      32.331 -22.311 -18.136  0.00  0.00    -0.245 OA
ATOM     13  C   UNL     1      33.321 -22.472 -18.855  0.00  0.00    +0.341 C 
BRANCH  13  14
ATOM     14  O   UNL     1      33.889 -23.693 -19.047  0.00  0.00    -0.477 OA
ATOM     15  H   UNL     1      34.774 -23.846 -18.781  0.00  0.00    +0.295 HD
ENDBRANCH  13  14
ENDBRANCH   1  13
TORSDOF 4
ENDMDL
MODEL 4
REMARK VINA RESULT:      -6.4      1.184      2.094
REMARK  Name = 4649
REMARK  4 active torsions:
REMARK  status: ('A' for Active; 'I' for Inactive)
REMARK    1  A    between atoms: C_1  and  C_13
REMARK    2  A    between atoms: C_2  and  O_10
REMARK    3  A    between atoms: C_3  and  N_7
REMARK    4  A    between atoms: C_13  and  O_14
REMARK                            x       y       z     vdW  Elec       q    Type
REMARK                         _______ _______ _______ _____ _____    ______ ____
ROOT
ATOM      1  C   UNL     1      29.804 -23.748 -15.944  0.00  0.00    +0.109 C 
ATOM      2  C   UNL     1      29.670 -24.659 -14.897  0.00  0.00    +0.141 C 
ATOM      3  C   UNL     1      32.016 -24.412 -14.378  0.00  0.00    +0.045 C 
ATOM      4  C   UNL     1      30.775 -24.991 -14.114  0.00  0.00    +0.051 C 
ATOM      5  C   UNL     1      31.045 -23.168 -16.208  0.00  0.00    +0.011 C 
ATOM      6  C   UNL     1      32.151 -23.499 -15.426  0.00  0.00    +0.014 C 
ENDROOT
BRANCH   3   7
ATOM      7  N   UNL     1      33.134 -24.748 -13.587  0.00  0.00    -0.357 N 
ATOM      8  H   UNL     1      33.066 -25.465 -12.916  0.00  0.00    +0.142 HD
ATOM      9  H   UNL     1      33.984 -24.265 -13.706  0.00  0.00    +0.142 HD
ENDBRANCH   3   7
BRANCH   2  10
ATOM     10  O   UNL     1      28.465 -25.235 -14.623  0.00  0.00    -0.505 OA
ATOM     11  H   UNL     1      28.302 -26.123 -14.873  0.00  0.00    +0.292 HD
ENDBRANCH   2  10
BRANCH   1  13
ATOM     12  O   UNL     1      27.865 -24.186 -17.275  0.00  0.00    -0.245 OA
ATOM     13  C   UNL     1      28.662 -23.388 -16.774  0.00  0.00    +0.341 C 
BRANCH  13  14
ATOM     14  O   UNL     1      28.552 -22.044 -16.948  0.00  0.00    -0.477 OA
ATOM     15  H   UNL     1      29.322 -21.512 -16.992  0.00  0.00    +0.295 HD
ENDBRANCH  13  14
ENDBRANCH   1  13
TORSDOF 4
ENDMDL
MODEL 5
REMARK VINA RESULT:      -6.4      6.687      8.086
REMARK  Name = 4649
REMARK  4 active torsions:
REMARK  status: ('A' for Active; 'I' for Inactive)
REMARK    1  A    between atoms: C_1  and  C_13
REMARK    2  A    between atoms: C_2  and  O_10
REMARK    3  A    between atoms: C_3  and  N_7
REMARK    4  A    between atoms: C_13  and  O_14
REMARK                            x       y       z     vdW  Elec       q    Type
REMARK                         _______ _______ _______ _____ _____    ______ ____
ROOT
ATOM      1  C   UNL     1      34.948 -21.280 -19.633  0.00  0.00    +0.109 C 
ATOM      2  C   UNL     1      33.895 -20.555 -20.192  0.00  0.00    +0.141 C 
ATOM      3  C   UNL     1      35.474 -19.019 -21.182  0.00  0.00    +0.045 C 
ATOM      4  C   UNL     1      34.158 -19.426 -20.966  0.00  0.00    +0.051 C 
ATOM      5  C   UNL     1      36.264 -20.874 -19.849  0.00  0.00    +0.011 C 
ATOM      6  C   UNL     1      36.528 -19.744 -20.623  0.00  0.00    +0.014 C 
ENDROOT
BRANCH   3   7
ATOM      7  N   UNL     1      35.741 -17.878 -21.965  0.00  0.00    -0.357 N 
ATOM      8  H   UNL     1      35.308 -17.020 -21.749  0.00  0.00    +0.142 HD
ATOM      9  H   UNL     1      36.360 -17.938 -22.728  0.00  0.00    +0.142 HD
ENDBRANCH   3   7
BRANCH   2  10
ATOM     10  O   UNL     1      32.601 -20.937 -19.993  0.00  0.00    -0.505 OA
ATOM     11  H   UNL     1      32.324 -21.232 -19.147  0.00  0.00    +0.292 HD
ENDBRANCH   2  10
BRANCH   1  13
ATOM     12  O   UNL     1      35.099 -22.636 -17.667  0.00  0.00    -0.245 OA
ATOM     13  C   UNL     1      34.694 -22.462 -18.820  0.00  0.00    +0.341 C 
BRANCH  13  14
ATOM     14  O   UNL     1      33.941 -23.387 -19.473  0.00  0.00    -0.477 OA
ATOM     15  H   UNL     1      33.348 -23.118 -20.147  0.00  0.00    +0.295 HD
ENDBRANCH  13  14
ENDBRANCH   1  13
TORSDOF 4
ENDMDL
MODEL 6
REMARK VINA RESULT:      -6.4      7.372      8.549
REMARK  Name = 4649
REMARK  4 active torsions:
REMARK  status: ('A' for Active; 'I' for Inactive)
REMARK    1  A    between atoms: C_1  and  C_13
REMARK    2  A    between atoms: C_2  and  O_10
REMARK    3  A    between atoms: C_3  and  N_7
REMARK    4  A    between atoms: C_13  and  O_14
REMARK                            x       y       z     vdW  Elec       q    Type
REMARK                         _______ _______ _______ _____ _____    ______ ____
ROOT
ATOM      1  C   UNL     1      34.872 -18.996 -21.098  0.00  0.00    +0.109 C 
ATOM      2  C   UNL     1      35.678 -19.941 -20.464  0.00  0.00    +0.141 C 
ATOM      3  C   UNL     1      33.712 -21.189 -19.821  0.00  0.00    +0.045 C 
ATOM      4  C   UNL     1      35.098 -21.038 -19.826  0.00  0.00    +0.051 C 
ATOM      5  C   UNL     1      33.485 -19.148 -21.093  0.00  0.00    +0.011 C 
ATOM      6  C   UNL     1      32.905 -20.244 -20.456  0.00  0.00    +0.014 C 
ENDROOT
BRANCH   3   7
ATOM      7  N   UNL     1      33.126 -22.297 -19.176  0.00  0.00    -0.357 N 
ATOM      8  H   UNL     1      32.264 -22.652 -19.492  0.00  0.00    +0.142 HD
ATOM      9  H   UNL     1      33.579 -22.717 -18.409  0.00  0.00    +0.142 HD
ENDBRANCH   3   7
BRANCH   2  10
ATOM     10  O   UNL     1      37.035 -19.811 -20.459  0.00  0.00    -0.505 OA
ATOM     11  H   UNL     1      37.483 -19.603 -19.662  0.00  0.00    +0.292 HD
ENDBRANCH   2  10
BRANCH   1  13
ATOM     12  O   UNL     1      35.200 -16.663 -21.515  0.00  0.00    -0.245 OA
ATOM     13  C   UNL     1      35.457 -17.844 -21.769  0.00  0.00    +0.341 C 
BRANCH  13  14
ATOM     14  O   UNL     1      36.346 -18.203 -22.735  0.00  0.00    -0.477 OA
ATOM     15  H   UNL     1      37.165 -18.590 -22.497  0.00  0.00    +0.295 HD
ENDBRANCH  13  14
ENDBRANCH   1  13
TORSDOF 4
ENDMDL
MODEL 7
REMARK VINA RESULT:      -6.1      6.887      7.988
REMARK  Name = 4649
REMARK  4 active torsions:
REMARK  status: ('A' for Active; 'I' for Inactive)
REMARK    1  A    between atoms: C_1  and  C_13
REMARK    2  A    between atoms: C_2  and  O_10
REMARK    3  A    between atoms: C_3  and  N_7
REMARK    4  A    between atoms: C_13  and  O_14
REMARK                            x       y       z     vdW  Elec       q    Type
REMARK                         _______ _______ _______ _____ _____    ______ ____
ROOT
ATOM      1  C   UNL     1      36.526 -24.795 -12.611  0.00  0.00    +0.109 C 
ATOM      2  C   UNL     1      36.228 -25.082 -13.943  0.00  0.00    +0.141 C 
ATOM      3  C   UNL     1      38.587 -25.219 -14.443  0.00  0.00    +0.045 C 
ATOM      4  C   UNL     1      37.259 -25.294 -14.859  0.00  0.00    +0.051 C 
ATOM      5  C   UNL     1      37.854 -24.720 -12.195  0.00  0.00    +0.011 C 
ATOM      6  C   UNL     1      38.886 -24.933 -13.109  0.00  0.00    +0.014 C 
ENDROOT
BRANCH   3   7
ATOM      7  N   UNL     1      39.629 -25.434 -15.367  0.00  0.00    -0.357 N 
ATOM      8  H   UNL     1      40.289 -26.147 -15.210  0.00  0.00    +0.142 HD
ATOM      9  H   UNL     1      39.698 -24.870 -16.171  0.00  0.00    +0.142 HD
ENDBRANCH   3   7
BRANCH   2  10
ATOM     10  O   UNL     1      34.935 -25.160 -14.369  0.00  0.00    -0.505 OA
ATOM     11  H   UNL     1      34.739 -25.101 -15.283  0.00  0.00    +0.292 HD
ENDBRANCH   2  10
BRANCH   1  13
ATOM     12  O   UNL     1      35.334 -25.173 -10.571  0.00  0.00    -0.245 OA
ATOM     13  C   UNL     1      35.464 -24.569 -11.640  0.00  0.00    +0.341 C 
BRANCH  13  14
ATOM     14  O   UNL     1      34.600 -23.595 -12.034  0.00  0.00    -0.477 OA
ATOM     15  H   UNL     1      34.354 -23.523 -12.935  0.00  0.00    +0.295 HD
ENDBRANCH  13  14
ENDBRANCH   1  13
TORSDOF 4
ENDMDL
MODEL 8
REMARK VINA RESULT:      -6.0      9.345     10.643
REMARK  Name = 4649
REMARK  4 active torsions:
REMARK  status: ('A' for Active; 'I' for Inactive)
REMARK    1  A    between atoms: C_1  and  C_13
REMARK    2  A    between atoms: C_2  and  O_10
REMARK    3  A    between atoms: C_3  and  N_7
REMARK    4  A    between atoms: C_13  and  O_14
REMARK                            x       y       z     vdW  Elec       q    Type
REMARK                         _______ _______ _______ _____ _____    ______ ____
ROOT
ATOM      1  C   UNL     1      35.092 -18.803 -21.917  0.00  0.00    +0.109 C 
ATOM      2  C   UNL     1      35.094 -17.416 -21.773  0.00  0.00    +0.141 C 
ATOM      3  C   UNL     1      34.702 -17.168 -24.144  0.00  0.00    +0.045 C 
ATOM      4  C   UNL     1      34.899 -16.598 -22.886  0.00  0.00    +0.051 C 
ATOM      5  C   UNL     1      34.894 -19.373 -23.174  0.00  0.00    +0.011 C 
ATOM      6  C   UNL     1      34.698 -18.556 -24.288  0.00  0.00    +0.014 C 
ENDROOT
BRANCH   3   7
ATOM      7  N   UNL     1      34.504 -16.342 -25.269  0.00  0.00    -0.357 N 
ATOM      8  H   UNL     1      34.625 -15.368 -25.193  0.00  0.00    +0.142 HD
ATOM      9  H   UNL     1      34.245 -16.740 -26.132  0.00  0.00    +0.142 HD
ENDBRANCH   3   7
BRANCH   2  10
ATOM     10  O   UNL     1      35.285 -16.840 -20.552  0.00  0.00    -0.505 OA
ATOM     11  H   UNL     1      36.151 -16.754 -20.205  0.00  0.00    +0.292 HD
ENDBRANCH   2  10
BRANCH   1  13
ATOM     12  O   UNL     1      34.471 -20.482 -20.329  0.00  0.00    -0.245 OA
ATOM     13  C   UNL     1      35.295 -19.674 -20.767  0.00  0.00    +0.341 C 
BRANCH  13  14
ATOM     14  O   UNL     1      36.521 -19.508 -20.202  0.00  0.00    -0.477 OA
ATOM     15  H   UNL     1      36.703 -19.875 -19.360  0.00  0.00    +0.295 HD
ENDBRANCH  13  14
ENDBRANCH   1  13
TORSDOF 4
ENDMDL
MODEL 9
REMARK VINA RESULT:      -6.0     10.941     11.878
REMARK  Name = 4649
REMARK  4 active torsions:
REMARK  status: ('A' for Active; 'I' for Inactive)
REMARK    1  A    between atoms: C_1  and  C_13
REMARK    2  A    between atoms: C_2  and  O_10
REMARK    3  A    between atoms: C_3  and  N_7
REMARK    4  A    between atoms: C_13  and  O_14
REMARK                            x       y       z     vdW  Elec       q    Type
REMARK                         _______ _______ _______ _____ _____    ______ ____
ROOT
ATOM      1  C   UNL     1      34.073 -15.879 -24.224  0.00  0.00    +0.109 C 
ATOM      2  C   UNL     1      34.582 -17.168 -24.390  0.00  0.00    +0.141 C 
ATOM      3  C   UNL     1      35.124 -17.258 -22.038  0.00  0.00    +0.045 C 
ATOM      4  C   UNL     1      35.107 -17.857 -23.297  0.00  0.00    +0.051 C 
ATOM      5  C   UNL     1      34.089 -15.281 -22.964  0.00  0.00    +0.011 C 
ATOM      6  C   UNL     1      34.614 -15.970 -21.871  0.00  0.00    +0.014 C 
ENDROOT
BRANCH   3   7
ATOM      7  N   UNL     1      35.655 -17.955 -20.933  0.00  0.00    -0.357 N 
ATOM      8  H   UNL     1      35.928 -17.463 -20.125  0.00  0.00    +0.142 HD
ATOM      9  H   UNL     1      35.753 -18.934 -20.969  0.00  0.00    +0.142 HD
ENDBRANCH   3   7
BRANCH   2  10
ATOM     10  O   UNL     1      34.573 -17.770 -25.613  0.00  0.00    -0.505 OA
ATOM     11  H   UNL     1      34.741 -18.689 -25.684  0.00  0.00    +0.292 HD
ENDBRANCH   2  10
BRANCH   1  13
ATOM     12  O   UNL     1      33.713 -15.410 -26.542  0.00  0.00    -0.245 OA
ATOM     13  C   UNL     1      33.521 -15.143 -25.352  0.00  0.00    +0.341 C 
BRANCH  13  14
ATOM     14  O   UNL     1      32.745 -14.097 -24.958  0.00  0.00    -0.477 OA
ATOM     15  H   UNL     1      32.807 -13.770 -24.083  0.00  0.00    +0.295 HD
ENDBRANCH  13  14
ENDBRANCH   1  13
TORSDOF 4
ENDMDL
