MODEL 1
REMARK VINA RESULT:     -11.3      0.000      0.000
REMARK  Name = 447994
REMARK  10 active torsions:
REMARK  status: ('A' for Active; 'I' for Inactive)
REMARK    1  A    between atoms: C_2  and  C_10
REMARK    2  A    between atoms: C_3  and  C_17
REMARK    3  A    between atoms: C_12  and  C_14
REMARK    4  A    between atoms: C_14  and  O_15
REMARK    5  A    between atoms: C_18  and  C_19
REMARK    6  A    between atoms: C_19  and  O_20
REMARK    7  A    between atoms: O_20  and  C_21
REMARK    8  A    between atoms: C_22  and  C_30
REMARK    9  A    between atoms: C_23  and  O_27
REMARK   10  A    between atoms: C_30  and  O_31
REMARK                            x       y       z     vdW  Elec       q    Type
REMARK                         _______ _______ _______ _____ _____    ______ ____
ROOT
ATOM      1  F   UNL     1      32.065 -20.147 -21.391  0.00  0.00    -0.204 F 
ATOM      2  C   UNL     1      34.403 -20.040 -20.973  0.00  0.00    +0.065 C 
ATOM      3  C   UNL     1      35.325 -21.319 -19.142  0.00  0.00    +0.000 C 
ATOM      4  C   UNL     1      35.500 -20.440 -20.209  0.00  0.00    +0.005 C 
ATOM      5  C   UNL     1      33.129 -20.521 -20.668  0.00  0.00    +0.143 C 
ATOM      6  C   UNL     1      34.051 -21.800 -18.837  0.00  0.00    +0.002 C 
ATOM      7  C   UNL     1      32.953 -21.400 -19.600  0.00  0.00    +0.030 C 
ENDROOT
BRANCH   2  10
ATOM      8  O   UNL     1      34.894 -19.712 -23.261  0.00  0.00    -0.353 OA
ATOM      9  N   UNL     1      35.043 -18.722 -24.224  0.00  0.00    -0.070 NA
ATOM     10  C   UNL     1      34.590 -19.131 -22.077  0.00  0.00    +0.179 C 
ATOM     11  C   UNL     1      34.528 -17.776 -22.218  0.00  0.00    +0.069 C 
ATOM     12  C   UNL     1      34.819 -17.574 -23.578  0.00  0.00    +0.198 C 
BRANCH  12  14
ATOM     13  O   UNL     1      34.963 -15.209 -23.754  0.00  0.00    -0.243 OA
ATOM     14  C   UNL     1      34.892 -16.329 -24.285  0.00  0.00    +0.359 C 
BRANCH  14  15
ATOM     15  O   UNL     1      34.876 -16.436 -25.653  0.00  0.00    -0.476 OA
ATOM     16  H   UNL     1      34.684 -17.259 -26.058  0.00  0.00    +0.295 HD
ENDBRANCH  14  15
ENDBRANCH  12  14
ENDBRANCH   2  10
BRANCH   3  17
ATOM     17  C   UNL     1      36.468 -21.736 -18.346  0.00  0.00    -0.001 C 
ATOM     18  C   UNL     1      36.441 -22.083 -17.039  0.00  0.00    +0.021 C 
BRANCH  18  19
ATOM     19  C   UNL     1      37.643 -22.519 -16.265  0.00  0.00    +0.232 C 
BRANCH  19  20
ATOM     20  O   UNL     1      37.459 -23.868 -15.859  0.00  0.00    -0.470 OA
BRANCH  20  21
ATOM     21  C   UNL     1      37.173 -24.083 -14.536  0.00  0.00    +0.148 C 
ATOM     22  C   UNL     1      37.215 -25.365 -13.999  0.00  0.00    +0.143 C 
ATOM     23  C   UNL     1      36.921 -25.561 -12.651  0.00  0.00    +0.143 C 
ATOM     24  C   UNL     1      36.841 -22.994 -13.738  0.00  0.00    +0.037 C 
ATOM     25  C   UNL     1      36.588 -24.473 -11.845  0.00  0.00    +0.037 C 
ATOM     26  C   UNL     1      36.548 -23.189 -12.389  0.00  0.00    +0.006 C 
BRANCH  23  27
ATOM     27  O   UNL     1      36.957 -26.807 -12.099  0.00  0.00    -0.505 OA
ATOM     28  H   UNL     1      36.986 -26.906 -11.167  0.00  0.00    +0.292 HD
ENDBRANCH  23  27
BRANCH  22  30
ATOM     29  O   UNL     1      36.821 -26.988 -15.703  0.00  0.00    -0.245 OA
ATOM     30  C   UNL     1      37.565 -26.504 -14.843  0.00  0.00    +0.347 C 
BRANCH  30  31
ATOM     31  O   UNL     1      38.820 -26.966 -14.561  0.00  0.00    -0.441 OA
ATOM     32  C   UNL     1      39.874 -25.997 -14.551  0.00  0.00    +0.256 C 
ENDBRANCH  30  31
ENDBRANCH  22  30
ENDBRANCH  20  21
ENDBRANCH  19  20
ENDBRANCH  18  19
ENDBRANCH   3  17
TORSDOF 10
ENDMDL
MODEL 2
REMARK VINA RESULT:     -11.3      3.204     11.110
REMARK  Name = 447994
REMARK  10 active torsions:
REMARK  status: ('A' for Active; 'I' for Inactive)
REMARK    1  A    between atoms: C_2  and  C_10
REMARK    2  A    between atoms: C_3  and  C_17
REMARK    3  A    between atoms: C_12  and  C_14
REMARK    4  A    between atoms: C_14  and  O_15
REMARK    5  A    between atoms: C_18  and  C_19
REMARK    6  A    between atoms: C_19  and  O_20
REMARK    7  A    between atoms: O_20  and  C_21
REMARK    8  A    between atoms: C_22  and  C_30
REMARK    9  A    between atoms: C_23  and  O_27
REMARK   10  A    between atoms: C_30  and  O_31
REMARK                            x       y       z     vdW  Elec       q    Type
REMARK                         _______ _______ _______ _____ _____    ______ ____
ROOT
ATOM      1  F   UNL     1      33.538 -24.228 -15.213  0.00  0.00    -0.204 F 
ATOM      2  C   UNL     1      35.309 -23.032 -16.257  0.00  0.00    +0.065 C 
ATOM      3  C   UNL     1      34.938 -22.054 -18.435  0.00  0.00    +0.000 C 
ATOM      4  C   UNL     1      35.776 -22.299 -17.348  0.00  0.00    +0.005 C 
ATOM      5  C   UNL     1      34.003 -23.521 -16.254  0.00  0.00    +0.143 C 
ATOM      6  C   UNL     1      33.631 -22.544 -18.431  0.00  0.00    +0.002 C 
ATOM      7  C   UNL     1      33.164 -23.277 -17.341  0.00  0.00    +0.030 C 
ENDROOT
BRANCH   2  10
ATOM      8  O   UNL     1      37.426 -23.705 -15.450  0.00  0.00    -0.353 OA
ATOM      9  N   UNL     1      38.146 -23.904 -14.278  0.00  0.00    -0.070 NA
ATOM     10  C   UNL     1      36.179 -23.282 -15.134  0.00  0.00    +0.179 C 
ATOM     11  C   UNL     1      36.042 -23.189 -13.780  0.00  0.00    +0.069 C 
ATOM     12  C   UNL     1      37.299 -23.589 -13.295  0.00  0.00    +0.198 C 
BRANCH  12  14
ATOM     13  O   UNL     1      37.101 -24.260 -11.024  0.00  0.00    -0.243 OA
ATOM     14  C   UNL     1      37.723 -23.680 -11.928  0.00  0.00    +0.359 C 
BRANCH  14  15
ATOM     15  O   UNL     1      38.916 -23.061 -11.647  0.00  0.00    -0.476 OA
ATOM     16  H   UNL     1      38.951 -22.382 -11.002  0.00  0.00    +0.295 HD
ENDBRANCH  14  15
ENDBRANCH  12  14
ENDBRANCH   2  10
BRANCH   3  17
ATOM     17  C   UNL     1      35.425 -21.289 -19.572  0.00  0.00    -0.001 C 
ATOM     18  C   UNL     1      34.701 -20.415 -20.308  0.00  0.00    +0.021 C 
BRANCH  18  19
ATOM     19  C   UNL     1      35.250 -19.640 -21.462  0.00  0.00    +0.232 C 
BRANCH  19  20
ATOM     20  O   UNL     1      34.747 -18.314 -21.401  0.00  0.00    -0.470 OA
BRANCH  20  21
ATOM     21  C   UNL     1      34.634 -17.639 -22.589  0.00  0.00    +0.148 C 
ATOM     22  C   UNL     1      34.319 -16.285 -22.610  0.00  0.00    +0.143 C 
ATOM     23  C   UNL     1      34.210 -15.618 -23.829  0.00  0.00    +0.143 C 
ATOM     24  C   UNL     1      34.840 -18.335 -23.776  0.00  0.00    +0.037 C 
ATOM     25  C   UNL     1      34.416 -16.309 -25.023  0.00  0.00    +0.037 C 
ATOM     26  C   UNL     1      34.731 -17.668 -24.996  0.00  0.00    +0.006 C 
BRANCH  23  27
ATOM     27  O   UNL     1      33.905 -14.291 -23.879  0.00  0.00    -0.505 OA
ATOM     28  H   UNL     1      33.012 -14.018 -23.961  0.00  0.00    +0.292 HD
ENDBRANCH  23  27
BRANCH  22  30
ATOM     29  O   UNL     1      34.993 -15.312 -20.539  0.00  0.00    -0.245 OA
ATOM     30  C   UNL     1      34.104 -15.560 -21.361  0.00  0.00    +0.347 C 
BRANCH  30  31
ATOM     31  O   UNL     1      32.797 -15.191 -21.217  0.00  0.00    -0.441 OA
ATOM     32  C   UNL     1      32.551 -13.834 -20.833  0.00  0.00    +0.256 C 
ENDBRANCH  30  31
ENDBRANCH  22  30
ENDBRANCH  20  21
ENDBRANCH  19  20
ENDBRANCH  18  19
ENDBRANCH   3  17
TORSDOF 10
ENDMDL
MODEL 3
REMARK VINA RESULT:     -11.3      5.928      6.758
REMARK  Name = 447994
REMARK  10 active torsions:
REMARK  status: ('A' for Active; 'I' for Inactive)
REMARK    1  A    between atoms: C_2  and  C_10
REMARK    2  A    between atoms: C_3  and  C_17
REMARK    3  A    between atoms: C_12  and  C_14
REMARK    4  A    between atoms: C_14  and  O_15
REMARK    5  A    between atoms: C_18  and  C_19
REMARK    6  A    between atoms: C_19  and  O_20
REMARK    7  A    between atoms: O_20  and  C_21
REMARK    8  A    between atoms: C_22  and  C_30
REMARK    9  A    between atoms: C_23  and  O_27
REMARK   10  A    between atoms: C_30  and  O_31
REMARK                            x       y       z     vdW  Elec       q    Type
REMARK                         _______ _______ _______ _____ _____    ______ ____
ROOT
ATOM      1  F   UNL     1      29.360 -25.153 -13.988  0.00  0.00    -0.204 F 
ATOM      2  C   UNL     1      30.600 -23.698 -15.401  0.00  0.00    +0.065 C 
ATOM      3  C   UNL     1      32.983 -23.486 -15.062  0.00  0.00    +0.000 C 
ATOM      4  C   UNL     1      31.826 -23.138 -15.759  0.00  0.00    +0.005 C 
ATOM      5  C   UNL     1      30.530 -24.607 -14.345  0.00  0.00    +0.143 C 
ATOM      6  C   UNL     1      32.913 -24.395 -14.006  0.00  0.00    +0.002 C 
ATOM      7  C   UNL     1      31.687 -24.955 -13.647  0.00  0.00    +0.030 C 
ENDROOT
BRANCH   2  10
ATOM      8  O   UNL     1      28.962 -24.259 -17.009  0.00  0.00    -0.353 OA
ATOM      9  N   UNL     1      27.814 -23.777 -17.626  0.00  0.00    -0.070 NA
ATOM     10  C   UNL     1      29.406 -23.335 -16.125  0.00  0.00    +0.179 C 
ATOM     11  C   UNL     1      28.588 -22.244 -16.131  0.00  0.00    +0.069 C 
ATOM     12  C   UNL     1      27.610 -22.573 -17.086  0.00  0.00    +0.198 C 
BRANCH  12  14
ATOM     13  O   UNL     1      26.300 -21.359 -18.653  0.00  0.00    -0.243 OA
ATOM     14  C   UNL     1      26.489 -21.782 -17.501  0.00  0.00    +0.359 C 
BRANCH  14  15
ATOM     15  O   UNL     1      25.582 -21.495 -16.512  0.00  0.00    -0.476 OA
ATOM     16  H   UNL     1      25.758 -20.808 -15.899  0.00  0.00    +0.295 HD
ENDBRANCH  14  15
ENDBRANCH  12  14
ENDBRANCH   2  10
BRANCH   3  17
ATOM     17  C   UNL     1      34.262 -22.903 -15.435  0.00  0.00    -0.001 C 
ATOM     18  C   UNL     1      35.386 -23.588 -15.743  0.00  0.00    +0.021 C 
BRANCH  18  19
ATOM     19  C   UNL     1      36.676 -22.943 -16.136  0.00  0.00    +0.232 C 
BRANCH  19  20
ATOM     20  O   UNL     1      37.717 -23.479 -15.332  0.00  0.00    -0.470 OA
BRANCH  20  21
ATOM     21  C   UNL     1      37.389 -23.838 -14.050  0.00  0.00    +0.148 C 
ATOM     22  C   UNL     1      37.430 -25.169 -13.652  0.00  0.00    +0.143 C 
ATOM     23  C   UNL     1      37.093 -25.511 -12.344  0.00  0.00    +0.143 C 
ATOM     24  C   UNL     1      37.013 -22.843 -13.153  0.00  0.00    +0.037 C 
ATOM     25  C   UNL     1      36.717 -24.520 -11.439  0.00  0.00    +0.037 C 
ATOM     26  C   UNL     1      36.677 -23.186 -11.844  0.00  0.00    +0.006 C 
BRANCH  23  27
ATOM     27  O   UNL     1      37.127 -26.809 -11.927  0.00  0.00    -0.505 OA
ATOM     28  H   UNL     1      36.934 -27.020 -11.035  0.00  0.00    +0.292 HD
ENDBRANCH  23  27
BRANCH  22  30
ATOM     29  O   UNL     1      37.112 -26.617 -15.521  0.00  0.00    -0.245 OA
ATOM     30  C   UNL     1      37.826 -26.208 -14.599  0.00  0.00    +0.347 C 
BRANCH  30  31
ATOM     31  O   UNL     1      39.085 -26.667 -14.337  0.00  0.00    -0.441 OA
ATOM     32  C   UNL     1      40.173 -25.856 -14.792  0.00  0.00    +0.256 C 
ENDBRANCH  30  31
ENDBRANCH  22  30
ENDBRANCH  20  21
ENDBRANCH  19  20
ENDBRANCH  18  19
ENDBRANCH   3  17
TORSDOF 10
ENDMDL
MODEL 4
REMARK VINA RESULT:     -11.2      5.248     12.771
REMARK  Name = 447994
REMARK  10 active torsions:
REMARK  status: ('A' for Active; 'I' for Inactive)
REMARK    1  A    between atoms: C_2  and  C_10
REMARK    2  A    between atoms: C_3  and  C_17
REMARK    3  A    between atoms: C_12  and  C_14
REMARK    4  A    between atoms: C_14  and  O_15
REMARK    5  A    between atoms: C_18  and  C_19
REMARK    6  A    between atoms: C_19  and  O_20
REMARK    7  A    between atoms: O_20  and  C_21
REMARK    8  A    between atoms: C_22  and  C_30
REMARK    9  A    between atoms: C_23  and  O_27
REMARK   10  A    between atoms: C_30  and  O_31
REMARK                            x       y       z     vdW  Elec       q    Type
REMARK                         _______ _______ _______ _____ _____    ______ ____
ROOT
ATOM      1  F   UNL     1      34.704 -19.477 -24.586  0.00  0.00    -0.204 F 
ATOM      2  C   UNL     1      34.587 -17.807 -22.897  0.00  0.00    +0.065 C 
ATOM      3  C   UNL     1      34.315 -15.498 -23.551  0.00  0.00    +0.000 C 
ATOM      4  C   UNL     1      34.455 -16.462 -22.554  0.00  0.00    +0.005 C 
ATOM      5  C   UNL     1      34.579 -18.189 -24.239  0.00  0.00    +0.143 C 
ATOM      6  C   UNL     1      34.308 -15.879 -24.893  0.00  0.00    +0.002 C 
ATOM      7  C   UNL     1      34.439 -17.224 -25.237  0.00  0.00    +0.030 C 
ENDROOT
BRANCH   2  10
ATOM      8  O   UNL     1      35.919 -18.795 -21.214  0.00  0.00    -0.353 OA
ATOM      9  N   UNL     1      35.914 -19.798 -20.252  0.00  0.00    -0.070 NA
ATOM     10  C   UNL     1      34.730 -18.802 -21.862  0.00  0.00    +0.179 C 
ATOM     11  C   UNL     1      33.925 -19.782 -21.361  0.00  0.00    +0.069 C 
ATOM     12  C   UNL     1      34.713 -20.373 -20.359  0.00  0.00    +0.198 C 
BRANCH  12  14
ATOM     13  O   UNL     1      35.151 -22.331 -19.084  0.00  0.00    -0.243 OA
ATOM     14  C   UNL     1      34.363 -21.465 -19.498  0.00  0.00    +0.359 C 
BRANCH  14  15
ATOM     15  O   UNL     1      33.041 -21.515 -19.131  0.00  0.00    -0.476 OA
ATOM     16  H   UNL     1      32.382 -21.697 -19.773  0.00  0.00    +0.295 HD
ENDBRANCH  14  15
ENDBRANCH  12  14
ENDBRANCH   2  10
BRANCH   3  17
ATOM     17  C   UNL     1      34.178 -14.094 -23.194  0.00  0.00    -0.001 C 
ATOM     18  C   UNL     1      33.693 -13.117 -23.992  0.00  0.00    +0.021 C 
BRANCH  18  19
ATOM     19  C   UNL     1      33.557 -11.688 -23.574  0.00  0.00    +0.232 C 
BRANCH  19  20
ATOM     20  O   UNL     1      32.222 -11.463 -23.146  0.00  0.00    -0.470 OA
BRANCH  20  21
ATOM     21  C   UNL     1      32.048 -11.055 -21.849  0.00  0.00    +0.148 C 
ATOM     22  C   UNL     1      32.133  -9.709 -21.510  0.00  0.00    +0.143 C 
ATOM     23  C   UNL     1      31.952  -9.316 -20.185  0.00  0.00    +0.143 C 
ATOM     24  C   UNL     1      31.782 -12.013 -20.876  0.00  0.00    +0.037 C 
ATOM     25  C   UNL     1      31.684 -10.270 -19.204  0.00  0.00    +0.037 C 
ATOM     26  C   UNL     1      31.599 -11.619 -19.550  0.00  0.00    +0.006 C 
BRANCH  23  27
ATOM     27  O   UNL     1      32.029  -8.003 -19.826  0.00  0.00    -0.505 OA
ATOM     28  H   UNL     1      31.593  -7.350 -20.339  0.00  0.00    +0.292 HD
ENDBRANCH  23  27
BRANCH  22  30
ATOM     29  O   UNL     1      31.693  -8.504 -23.521  0.00  0.00    -0.245 OA
ATOM     30  C   UNL     1      32.412  -8.709 -22.536  0.00  0.00    +0.347 C 
BRANCH  30  31
ATOM     31  O   UNL     1      33.566  -8.028 -22.269  0.00  0.00    -0.441 OA
ATOM     32  C   UNL     1      34.477  -7.856 -23.360  0.00  0.00    +0.256 C 
ENDBRANCH  30  31
ENDBRANCH  22  30
ENDBRANCH  20  21
ENDBRANCH  19  20
ENDBRANCH  18  19
ENDBRANCH   3  17
TORSDOF 10
ENDMDL
MODEL 5
REMARK VINA RESULT:     -11.1      2.621      3.521
REMARK  Name = 447994
REMARK  10 active torsions:
REMARK  status: ('A' for Active; 'I' for Inactive)
REMARK    1  A    between atoms: C_2  and  C_10
REMARK    2  A    between atoms: C_3  and  C_17
REMARK    3  A    between atoms: C_12  and  C_14
REMARK    4  A    between atoms: C_14  and  O_15
REMARK    5  A    between atoms: C_18  and  C_19
REMARK    6  A    between atoms: C_19  and  O_20
REMARK    7  A    between atoms: O_20  and  C_21
REMARK    8  A    between atoms: C_22  and  C_30
REMARK    9  A    between atoms: C_23  and  O_27
REMARK   10  A    between atoms: C_30  and  O_31
REMARK                            x       y       z     vdW  Elec       q    Type
REMARK                         _______ _______ _______ _____ _____    ______ ____
ROOT
ATOM      1  F   UNL     1      37.451 -17.892 -22.608  0.00  0.00    -0.204 F 
ATOM      2  C   UNL     1      35.230 -18.690 -22.319  0.00  0.00    +0.065 C 
ATOM      3  C   UNL     1      34.778 -20.281 -20.557  0.00  0.00    +0.000 C 
ATOM      4  C   UNL     1      34.332 -19.499 -21.622  0.00  0.00    +0.005 C 
ATOM      5  C   UNL     1      36.575 -18.663 -21.949  0.00  0.00    +0.143 C 
ATOM      6  C   UNL     1      36.123 -20.254 -20.188  0.00  0.00    +0.002 C 
ATOM      7  C   UNL     1      37.022 -19.445 -20.884  0.00  0.00    +0.030 C 
ENDROOT
BRANCH   2  10
ATOM      8  O   UNL     1      34.661 -18.526 -24.606  0.00  0.00    -0.353 OA
ATOM      9  N   UNL     1      34.204 -17.631 -25.566  0.00  0.00    -0.070 NA
ATOM     10  C   UNL     1      34.764 -17.883 -23.420  0.00  0.00    +0.179 C 
ATOM     11  C   UNL     1      34.388 -16.579 -23.555  0.00  0.00    +0.069 C 
ATOM     12  C   UNL     1      34.048 -16.475 -24.915  0.00  0.00    +0.198 C 
BRANCH  12  14
ATOM     13  O   UNL     1      33.462 -15.224 -26.849  0.00  0.00    -0.243 OA
ATOM     14  C   UNL     1      33.579 -15.316 -25.616  0.00  0.00    +0.359 C 
BRANCH  14  15
ATOM     15  O   UNL     1      33.246 -14.249 -24.819  0.00  0.00    -0.476 OA
ATOM     16  H   UNL     1      33.877 -13.578 -24.646  0.00  0.00    +0.295 HD
ENDBRANCH  14  15
ENDBRANCH  12  14
ENDBRANCH   2  10
BRANCH   3  17
ATOM     17  C   UNL     1      33.841 -21.124 -19.830  0.00  0.00    -0.001 C 
ATOM     18  C   UNL     1      34.160 -22.004 -18.854  0.00  0.00    +0.021 C 
BRANCH  18  19
ATOM     19  C   UNL     1      33.159 -22.840 -18.124  0.00  0.00    +0.232 C 
BRANCH  19  20
ATOM     20  O   UNL     1      33.842 -23.649 -17.178  0.00  0.00    -0.470 OA
BRANCH  20  21
ATOM     21  C   UNL     1      33.333 -23.680 -15.906  0.00  0.00    +0.148 C 
ATOM     22  C   UNL     1      34.097 -24.154 -14.846  0.00  0.00    +0.143 C 
ATOM     23  C   UNL     1      33.558 -24.175 -13.560  0.00  0.00    +0.143 C 
ATOM     24  C   UNL     1      32.035 -23.226 -15.695  0.00  0.00    +0.037 C 
ATOM     25  C   UNL     1      32.258 -23.721 -13.340  0.00  0.00    +0.037 C 
ATOM     26  C   UNL     1      31.496 -23.247 -14.408  0.00  0.00    +0.006 C 
BRANCH  23  27
ATOM     27  O   UNL     1      34.286 -24.633 -12.502  0.00  0.00    -0.505 OA
ATOM     28  H   UNL     1      33.959 -25.338 -11.978  0.00  0.00    +0.292 HD
ENDBRANCH  23  27
BRANCH  22  30
ATOM     29  O   UNL     1      35.740 -25.726 -15.566  0.00  0.00    -0.245 OA
ATOM     30  C   UNL     1      35.459 -24.627 -15.074  0.00  0.00    +0.347 C 
BRANCH  30  31
ATOM     31  O   UNL     1      36.381 -23.702 -14.677  0.00  0.00    -0.441 OA
ATOM     32  C   UNL     1      37.048 -22.973 -15.713  0.00  0.00    +0.256 C 
ENDBRANCH  30  31
ENDBRANCH  22  30
ENDBRANCH  20  21
ENDBRANCH  19  20
ENDBRANCH  18  19
ENDBRANCH   3  17
TORSDOF 10
ENDMDL
MODEL 6
REMARK VINA RESULT:     -11.1      5.057     13.294
REMARK  Name = 447994
REMARK  10 active torsions:
REMARK  status: ('A' for Active; 'I' for Inactive)
REMARK    1  A    between atoms: C_2  and  C_10
REMARK    2  A    between atoms: C_3  and  C_17
REMARK    3  A    between atoms: C_12  and  C_14
REMARK    4  A    between atoms: C_14  and  O_15
REMARK    5  A    between atoms: C_18  and  C_19
REMARK    6  A    between atoms: C_19  and  O_20
REMARK    7  A    between atoms: O_20  and  C_21
REMARK    8  A    between atoms: C_22  and  C_30
REMARK    9  A    between atoms: C_23  and  O_27
REMARK   10  A    between atoms: C_30  and  O_31
REMARK                            x       y       z     vdW  Elec       q    Type
REMARK                         _______ _______ _______ _____ _____    ______ ____
ROOT
ATOM      1  F   UNL     1      35.230 -19.556 -23.961  0.00  0.00    -0.204 F 
ATOM      2  C   UNL     1      34.622 -18.115 -22.170  0.00  0.00    +0.065 C 
ATOM      3  C   UNL     1      34.205 -15.781 -22.636  0.00  0.00    +0.000 C 
ATOM      4  C   UNL     1      34.277 -16.837 -21.729  0.00  0.00    +0.005 C 
ATOM      5  C   UNL     1      34.897 -18.335 -23.521  0.00  0.00    +0.143 C 
ATOM      6  C   UNL     1      34.479 -16.002 -23.986  0.00  0.00    +0.002 C 
ATOM      7  C   UNL     1      34.825 -17.279 -24.428  0.00  0.00    +0.030 C 
ENDROOT
BRANCH   2  10
ATOM      8  O   UNL     1      35.907 -19.395 -20.656  0.00  0.00    -0.353 OA
ATOM      9  N   UNL     1      35.827 -20.470 -19.778  0.00  0.00    -0.070 NA
ATOM     10  C   UNL     1      34.695 -19.205 -21.229  0.00  0.00    +0.179 C 
ATOM     11  C   UNL     1      33.801 -20.122 -20.759  0.00  0.00    +0.069 C 
ATOM     12  C   UNL     1      34.560 -20.887 -19.857  0.00  0.00    +0.198 C 
BRANCH  12  14
ATOM     13  O   UNL     1      34.867 -22.751 -18.416  0.00  0.00    -0.243 OA
ATOM     14  C   UNL     1      34.123 -22.000 -19.066  0.00  0.00    +0.359 C 
BRANCH  14  15
ATOM     15  O   UNL     1      32.766 -22.212 -19.061  0.00  0.00    -0.476 OA
ATOM     16  H   UNL     1      32.227 -21.817 -19.719  0.00  0.00    +0.295 HD
ENDBRANCH  14  15
ENDBRANCH  12  14
ENDBRANCH   2  10
BRANCH   3  17
ATOM     17  C   UNL     1      33.845 -14.449 -22.176  0.00  0.00    -0.001 C 
ATOM     18  C   UNL     1      32.642 -13.852 -22.339  0.00  0.00    +0.021 C 
BRANCH  18  19
ATOM     19  C   UNL     1      32.314 -12.484 -21.835  0.00  0.00    +0.232 C 
BRANCH  19  20
ATOM     20  O   UNL     1      31.974 -11.660 -22.940  0.00  0.00    -0.470 OA
BRANCH  20  21
ATOM     21  C   UNL     1      32.980 -10.903 -23.482  0.00  0.00    +0.148 C 
ATOM     22  C   UNL     1      33.150  -9.574 -23.109  0.00  0.00    +0.143 C 
ATOM     23  C   UNL     1      34.180  -8.824 -23.672  0.00  0.00    +0.143 C 
ATOM     24  C   UNL     1      33.831 -11.490 -24.414  0.00  0.00    +0.037 C 
ATOM     25  C   UNL     1      35.038  -9.405 -24.605  0.00  0.00    +0.037 C 
ATOM     26  C   UNL     1      34.862 -10.739 -24.976  0.00  0.00    +0.006 C 
BRANCH  23  27
ATOM     27  O   UNL     1      34.371  -7.520 -23.322  0.00  0.00    -0.505 OA
ATOM     28  H   UNL     1      35.239  -7.179 -23.237  0.00  0.00    +0.292 HD
ENDBRANCH  23  27
BRANCH  22  30
ATOM     29  O   UNL     1      32.369  -9.094 -20.906  0.00  0.00    -0.245 OA
ATOM     30  C   UNL     1      32.254  -8.965 -22.130  0.00  0.00    +0.347 C 
BRANCH  30  31
ATOM     31  O   UNL     1      31.273  -8.236 -22.740  0.00  0.00    -0.441 OA
ATOM     32  C   UNL     1      31.220  -6.840 -22.424  0.00  0.00    +0.256 C 
ENDBRANCH  30  31
ENDBRANCH  22  30
ENDBRANCH  20  21
ENDBRANCH  19  20
ENDBRANCH  18  19
ENDBRANCH   3  17
TORSDOF 10
ENDMDL
MODEL 7
REMARK VINA RESULT:     -10.8      3.550      5.870
REMARK  Name = 447994
REMARK  10 active torsions:
REMARK  status: ('A' for Active; 'I' for Inactive)
REMARK    1  A    between atoms: C_2  and  C_10
REMARK    2  A    between atoms: C_3  and  C_17
REMARK    3  A    between atoms: C_12  and  C_14
REMARK    4  A    between atoms: C_14  and  O_15
REMARK    5  A    between atoms: C_18  and  C_19
REMARK    6  A    between atoms: C_19  and  O_20
REMARK    7  A    between atoms: O_20  and  C_21
REMARK    8  A    between atoms: C_22  and  C_30
REMARK    9  A    between atoms: C_23  and  O_27
REMARK   10  A    between atoms: C_30  and  O_31
REMARK                            x       y       z     vdW  Elec       q    Type
REMARK                         _______ _______ _______ _____ _____    ______ ____
ROOT
ATOM      1  F   UNL     1      33.661 -15.773 -25.642  0.00  0.00    -0.204 F 
ATOM      2  C   UNL     1      34.146 -15.715 -23.315  0.00  0.00    +0.065 C 
ATOM      3  C   UNL     1      35.221 -17.623 -22.295  0.00  0.00    +0.000 C 
ATOM      4  C   UNL     1      34.674 -16.345 -22.188  0.00  0.00    +0.005 C 
ATOM      5  C   UNL     1      34.164 -16.364 -24.550  0.00  0.00    +0.143 C 
ATOM      6  C   UNL     1      35.240 -18.272 -23.530  0.00  0.00    +0.002 C 
ATOM      7  C   UNL     1      34.712 -17.642 -24.657  0.00  0.00    +0.030 C 
ENDROOT
BRANCH   2  10
ATOM      8  O   UNL     1      34.161 -13.446 -23.973  0.00  0.00    -0.353 OA
ATOM      9  N   UNL     1      33.518 -12.232 -23.760  0.00  0.00    -0.070 NA
ATOM     10  C   UNL     1      33.580 -14.393 -23.199  0.00  0.00    +0.179 C 
ATOM     11  C   UNL     1      32.563 -13.849 -22.472  0.00  0.00    +0.069 C 
ATOM     12  C   UNL     1      32.567 -12.499 -22.860  0.00  0.00    +0.198 C 
BRANCH  12  14
ATOM     13  O   UNL     1      31.764 -10.264 -22.759  0.00  0.00    -0.243 OA
ATOM     14  C   UNL     1      31.699 -11.452 -22.405  0.00  0.00    +0.359 C 
BRANCH  14  15
ATOM     15  O   UNL     1      30.737 -11.845 -21.507  0.00  0.00    -0.476 OA
ATOM     16  H   UNL     1      30.019 -12.376 -21.791  0.00  0.00    +0.295 HD
ENDBRANCH  14  15
ENDBRANCH  12  14
ENDBRANCH   2  10
BRANCH   3  17
ATOM     17  C   UNL     1      35.773 -18.280 -21.120  0.00  0.00    -0.001 C 
ATOM     18  C   UNL     1      36.295 -19.527 -21.081  0.00  0.00    +0.021 C 
BRANCH  18  19
ATOM     19  C   UNL     1      36.864 -20.155 -19.850  0.00  0.00    +0.232 C 
BRANCH  19  20
ATOM     20  O   UNL     1      36.288 -21.443 -19.688  0.00  0.00    -0.470 OA
BRANCH  20  21
ATOM     21  C   UNL     1      36.065 -21.865 -18.403  0.00  0.00    +0.148 C 
ATOM     22  C   UNL     1      34.883 -22.514 -18.063  0.00  0.00    +0.143 C 
ATOM     23  C   UNL     1      34.677 -22.935 -16.750  0.00  0.00    +0.143 C 
ATOM     24  C   UNL     1      37.044 -21.632 -17.443  0.00  0.00    +0.037 C 
ATOM     25  C   UNL     1      35.655 -22.705 -15.783  0.00  0.00    +0.037 C 
ATOM     26  C   UNL     1      36.838 -22.053 -16.129  0.00  0.00    +0.006 C 
BRANCH  23  27
ATOM     27  O   UNL     1      33.529 -23.575 -16.391  0.00  0.00    -0.505 OA
ATOM     28  H   UNL     1      33.073 -23.319 -15.613  0.00  0.00    +0.292 HD
ENDBRANCH  23  27
BRANCH  22  30
ATOM     29  O   UNL     1      33.890 -23.689 -19.886  0.00  0.00    -0.245 OA
ATOM     30  C   UNL     1      33.860 -22.756 -19.076  0.00  0.00    +0.347 C 
BRANCH  30  31
ATOM     31  O   UNL     1      32.866 -21.822 -19.013  0.00  0.00    -0.441 OA
ATOM     32  C   UNL     1      32.968 -20.713 -19.913  0.00  0.00    +0.256 C 
ENDBRANCH  30  31
ENDBRANCH  22  30
ENDBRANCH  20  21
ENDBRANCH  19  20
ENDBRANCH  18  19
ENDBRANCH   3  17
TORSDOF 10
ENDMDL
MODEL 8
REMARK VINA RESULT:     -10.8      4.920     10.339
REMARK  Name = 447994
REMARK  10 active torsions:
REMARK  status: ('A' for Active; 'I' for Inactive)
REMARK    1  A    between atoms: C_2  and  C_10
REMARK    2  A    between atoms: C_3  and  C_17
REMARK    3  A    between atoms: C_12  and  C_14
REMARK    4  A    between atoms: C_14  and  O_15
REMARK    5  A    between atoms: C_18  and  C_19
REMARK    6  A    between atoms: C_19  and  O_20
REMARK    7  A    between atoms: O_20  and  C_21
REMARK    8  A    between atoms: C_22  and  C_30
REMARK    9  A    between atoms: C_23  and  O_27
REMARK   10  A    between atoms: C_30  and  O_31
REMARK                            x       y       z     vdW  Elec       q    Type
REMARK                         _______ _______ _______ _____ _____    ______ ____
ROOT
ATOM      1  F   UNL     1      32.106 -24.380 -14.326  0.00  0.00    -0.204 F 
ATOM      2  C   UNL     1      31.990 -23.250 -16.415  0.00  0.00    +0.065 C 
ATOM      3  C   UNL     1      34.042 -22.735 -17.582  0.00  0.00    +0.000 C 
ATOM      4  C   UNL     1      32.650 -22.696 -17.512  0.00  0.00    +0.005 C 
ATOM      5  C   UNL     1      32.724 -23.843 -15.387  0.00  0.00    +0.143 C 
ATOM      6  C   UNL     1      34.776 -23.328 -16.554  0.00  0.00    +0.002 C 
ATOM      7  C   UNL     1      34.116 -23.882 -15.457  0.00  0.00    +0.030 C 
ENDROOT
BRANCH   2  10
ATOM      8  O   UNL     1      29.947 -24.398 -16.115  0.00  0.00    -0.353 OA
ATOM      9  N   UNL     1      28.571 -24.206 -16.075  0.00  0.00    -0.070 NA
ATOM     10  C   UNL     1      30.550 -23.209 -16.347  0.00  0.00    +0.179 C 
ATOM     11  C   UNL     1      29.617 -22.221 -16.463  0.00  0.00    +0.069 C 
ATOM     12  C   UNL     1      28.399 -22.898 -16.285  0.00  0.00    +0.198 C 
BRANCH  12  14
ATOM     13  O   UNL     1      26.276 -22.367 -15.358  0.00  0.00    -0.243 OA
ATOM     14  C   UNL     1      27.076 -22.345 -16.307  0.00  0.00    +0.359 C 
BRANCH  14  15
ATOM     15  O   UNL     1      26.712 -21.756 -17.492  0.00  0.00    -0.476 OA
ATOM     16  H   UNL     1      27.187 -21.015 -17.814  0.00  0.00    +0.295 HD
ENDBRANCH  14  15
ENDBRANCH  12  14
ENDBRANCH   2  10
BRANCH   3  17
ATOM     17  C   UNL     1      34.730 -22.157 -18.726  0.00  0.00    -0.001 C 
ATOM     18  C   UNL     1      34.293 -21.117 -19.472  0.00  0.00    +0.021 C 
BRANCH  18  19
ATOM     19  C   UNL     1      35.044 -20.548 -20.633  0.00  0.00    +0.232 C 
BRANCH  19  20
ATOM     20  O   UNL     1      34.776 -19.156 -20.711  0.00  0.00    -0.470 OA
BRANCH  20  21
ATOM     21  C   UNL     1      34.775 -18.595 -21.962  0.00  0.00    +0.148 C 
ATOM     22  C   UNL     1      34.568 -17.230 -22.129  0.00  0.00    +0.143 C 
ATOM     23  C   UNL     1      34.572 -16.681 -23.410  0.00  0.00    +0.143 C 
ATOM     24  C   UNL     1      34.986 -19.417 -23.064  0.00  0.00    +0.037 C 
ATOM     25  C   UNL     1      34.784 -17.499 -24.519  0.00  0.00    +0.037 C 
ATOM     26  C   UNL     1      34.991 -18.868 -24.346  0.00  0.00    +0.006 C 
BRANCH  23  27
ATOM     27  O   UNL     1      34.374 -15.345 -23.601  0.00  0.00    -0.505 OA
ATOM     28  H   UNL     1      34.253 -14.779 -22.865  0.00  0.00    +0.292 HD
ENDBRANCH  23  27
BRANCH  22  30
ATOM     29  O   UNL     1      35.226 -16.063 -20.155  0.00  0.00    -0.245 OA
ATOM     30  C   UNL     1      34.348 -16.373 -20.968  0.00  0.00    +0.347 C 
BRANCH  30  31
ATOM     31  O   UNL     1      33.049 -15.956 -20.895  0.00  0.00    -0.441 OA
ATOM     32  C   UNL     1      32.834 -14.562 -20.651  0.00  0.00    +0.256 C 
ENDBRANCH  30  31
ENDBRANCH  22  30
ENDBRANCH  20  21
ENDBRANCH  19  20
ENDBRANCH  18  19
ENDBRANCH   3  17
TORSDOF 10
ENDMDL
MODEL 9
REMARK VINA RESULT:     -10.7      4.036     10.603
REMARK  Name = 447994
REMARK  10 active torsions:
REMARK  status: ('A' for Active; 'I' for Inactive)
REMARK    1  A    between atoms: C_2  and  C_10
REMARK    2  A    between atoms: C_3  and  C_17
REMARK    3  A    between atoms: C_12  and  C_14
REMARK    4  A    between atoms: C_14  and  O_15
REMARK    5  A    between atoms: C_18  and  C_19
REMARK    6  A    between atoms: C_19  and  O_20
REMARK    7  A    between atoms: O_20  and  C_21
REMARK    8  A    between atoms: C_22  and  C_30
REMARK    9  A    between atoms: C_23  and  O_27
REMARK   10  A    between atoms: C_30  and  O_31
REMARK                            x       y       z     vdW  Elec       q    Type
REMARK                         _______ _______ _______ _____ _____    ______ ____
ROOT
ATOM      1  F   UNL     1      35.611 -24.132 -14.142  0.00  0.00    -0.204 F 
ATOM      2  C   UNL     1      34.708 -23.112 -16.091  0.00  0.00    +0.065 C 
ATOM      3  C   UNL     1      36.204 -22.013 -17.638  0.00  0.00    +0.000 C 
ATOM      4  C   UNL     1      34.915 -22.396 -17.270  0.00  0.00    +0.005 C 
ATOM      5  C   UNL     1      35.792 -23.445 -15.278  0.00  0.00    +0.143 C 
ATOM      6  C   UNL     1      37.288 -22.347 -16.825  0.00  0.00    +0.002 C 
ATOM      7  C   UNL     1      37.082 -23.062 -15.645  0.00  0.00    +0.030 C 
ENDROOT
BRANCH   2  10
ATOM      8  O   UNL     1      32.428 -23.338 -16.671  0.00  0.00    -0.353 OA
ATOM      9  N   UNL     1      31.201 -23.757 -16.171  0.00  0.00    -0.070 NA
ATOM     10  C   UNL     1      33.372 -23.506 -15.715  0.00  0.00    +0.179 C 
ATOM     11  C   UNL     1      32.813 -24.028 -14.586  0.00  0.00    +0.069 C 
ATOM     12  C   UNL     1      31.456 -24.165 -14.925  0.00  0.00    +0.198 C 
BRANCH  12  14
ATOM     13  O   UNL     1      29.234 -24.888 -14.492  0.00  0.00    -0.243 OA
ATOM     14  C   UNL     1      30.394 -24.671 -14.106  0.00  0.00    +0.359 C 
BRANCH  14  15
ATOM     15  O   UNL     1      30.735 -24.918 -12.799  0.00  0.00    -0.476 OA
ATOM     16  H   UNL     1      30.931 -24.205 -12.222  0.00  0.00    +0.295 HD
ENDBRANCH  14  15
ENDBRANCH  12  14
ENDBRANCH   2  10
BRANCH   3  17
ATOM     17  C   UNL     1      36.420 -21.267 -18.867  0.00  0.00    -0.001 C 
ATOM     18  C   UNL     1      35.462 -20.890 -19.745  0.00  0.00    +0.021 C 
BRANCH  18  19
ATOM     19  C   UNL     1      35.732 -20.110 -20.991  0.00  0.00    +0.232 C 
BRANCH  19  20
ATOM     20  O   UNL     1      34.543 -19.432 -21.371  0.00  0.00    -0.470 OA
BRANCH  20  21
ATOM     21  C   UNL     1      34.605 -18.660 -22.502  0.00  0.00    +0.148 C 
ATOM     22  C   UNL     1      34.509 -17.275 -22.423  0.00  0.00    +0.143 C 
ATOM     23  C   UNL     1      34.575 -16.509 -23.585  0.00  0.00    +0.143 C 
ATOM     24  C   UNL     1      34.767 -19.288 -23.732  0.00  0.00    +0.037 C 
ATOM     25  C   UNL     1      34.738 -17.132 -24.823  0.00  0.00    +0.037 C 
ATOM     26  C   UNL     1      34.834 -18.522 -24.896  0.00  0.00    +0.006 C 
BRANCH  23  27
ATOM     27  O   UNL     1      34.486 -15.150 -23.536  0.00  0.00    -0.505 OA
ATOM     28  H   UNL     1      33.822 -14.742 -23.015  0.00  0.00    +0.292 HD
ENDBRANCH  23  27
BRANCH  22  30
ATOM     29  O   UNL     1      35.244 -16.483 -20.296  0.00  0.00    -0.245 OA
ATOM     30  C   UNL     1      34.341 -16.622 -21.128  0.00  0.00    +0.347 C 
BRANCH  30  31
ATOM     31  O   UNL     1      33.058 -16.185 -20.954  0.00  0.00    -0.441 OA
ATOM     32  C   UNL     1      32.896 -14.846 -20.473  0.00  0.00    +0.256 C 
ENDBRANCH  30  31
ENDBRANCH  22  30
ENDBRANCH  20  21
ENDBRANCH  19  20
ENDBRANCH  18  19
ENDBRANCH   3  17
TORSDOF 10
ENDMDL
