MODEL 1
REMARK VINA RESULT:      -9.8      0.000      0.000
REMARK  Name = 10038928
REMARK  1 active torsions:
REMARK  status: ('A' for Active; 'I' for Inactive)
REMARK    1  A    between atoms: C_11  and  C_19
REMARK                            x       y       z     vdW  Elec       q    Type
REMARK                         _______ _______ _______ _____ _____    ______ ____
ROOT
ATOM      1  F   UNL     1      29.437 -22.311 -16.788  0.00  0.00    -0.204 F 
ATOM      2  O   UNL     1      33.315 -24.048 -13.288  0.00  0.00    -0.430 OA
ATOM      3  O   UNL     1      34.288 -23.759 -17.247  0.00  0.00    -0.290 OA
ATOM      4  N   UNL     1      35.416 -24.786 -12.746  0.00  0.00    -0.355 NA
ATOM      5  C   UNL     1      34.961 -24.297 -15.056  0.00  0.00    +0.173 C 
ATOM      6  C   UNL     1      32.652 -23.497 -15.573  0.00  0.00    +0.072 C 
ATOM      7  C   UNL     1      33.994 -23.844 -16.064  0.00  0.00    +0.190 C 
ATOM      8  C   UNL     1      34.577 -24.377 -13.725  0.00  0.00    +0.269 C 
ATOM      9  C   UNL     1      32.390 -23.621 -14.208  0.00  0.00    +0.151 C 
ATOM     10  C   UNL     1      36.262 -24.651 -15.408  0.00  0.00    +0.000 C 
ATOM     11  C   UNL     1      37.140 -25.074 -14.418  0.00  0.00    +0.093 C 
ATOM     12  C   UNL     1      31.660 -23.056 -16.451  0.00  0.00    +0.036 C 
ATOM     13  C   UNL     1      36.673 -25.124 -13.115  0.00  0.00    +0.184 C 
ATOM     14  C   UNL     1      31.124 -23.299 -13.717  0.00  0.00    +0.040 C 
ATOM     15  C   UNL     1      30.396 -22.735 -15.954  0.00  0.00    +0.140 C 
ATOM     16  C   UNL     1      30.128 -22.857 -14.590  0.00  0.00    +0.033 C 
ATOM     17  N   UNL     1      37.564 -25.554 -12.100  0.00  0.00    -0.333 N 
ATOM     18  H   UNL     1      37.259 -25.599 -11.166  0.00  0.00    +0.145 HD
ATOM     19  H   UNL     1      38.486 -25.808 -12.330  0.00  0.00    +0.145 HD
ENDROOT
BRANCH  11  22
ATOM     20  O   UNL     1      39.008 -26.541 -14.507  0.00  0.00    -0.270 OA
ATOM     21  N   UNL     1      39.259 -24.493 -15.452  0.00  0.00    -0.325 N 
ATOM     22  C   UNL     1      38.501 -25.445 -14.782  0.00  0.00    +0.246 C 
ATOM     23  H   UNL     1      40.183 -24.698 -15.717  0.00  0.00    +0.145 HD
ATOM     24  H   UNL     1      38.870 -23.612 -15.660  0.00  0.00    +0.145 HD
ENDBRANCH  11  22
TORSDOF 1
ENDMDL
MODEL 2
REMARK VINA RESULT:      -9.7      2.767      4.140
REMARK  Name = 10038928
REMARK  1 active torsions:
REMARK  status: ('A' for Active; 'I' for Inactive)
REMARK    1  A    between atoms: C_11  and  C_19
REMARK                            x       y       z     vdW  Elec       q    Type
REMARK                         _______ _______ _______ _____ _____    ______ ____
ROOT
ATOM      1  F   UNL     1      33.072 -21.121 -20.441  0.00  0.00    -0.204 F 
ATOM      2  O   UNL     1      37.118 -22.482 -16.967  0.00  0.00    -0.430 OA
ATOM      3  O   UNL     1      33.304 -23.595 -16.007  0.00  0.00    -0.290 OA
ATOM      4  N   UNL     1      37.959 -23.435 -15.059  0.00  0.00    -0.355 NA
ATOM      5  C   UNL     1      35.587 -23.579 -15.432  0.00  0.00    +0.173 C 
ATOM      6  C   UNL     1      34.743 -22.519 -17.531  0.00  0.00    +0.072 C 
ATOM      7  C   UNL     1      34.444 -23.261 -16.297  0.00  0.00    +0.190 C 
ATOM      8  C   UNL     1      36.862 -23.177 -15.807  0.00  0.00    +0.269 C 
ATOM      9  C   UNL     1      36.067 -22.171 -17.794  0.00  0.00    +0.151 C 
ATOM     10  C   UNL     1      35.422 -24.278 -14.239  0.00  0.00    +0.000 C 
ATOM     11  C   UNL     1      36.535 -24.556 -13.456  0.00  0.00    +0.093 C 
ATOM     12  C   UNL     1      33.725 -22.167 -18.420  0.00  0.00    +0.036 C 
ATOM     13  C   UNL     1      37.769 -24.116 -13.906  0.00  0.00    +0.184 C 
ATOM     14  C   UNL     1      36.377 -21.466 -18.958  0.00  0.00    +0.040 C 
ATOM     15  C   UNL     1      34.041 -21.463 -19.582  0.00  0.00    +0.140 C 
ATOM     16  C   UNL     1      35.365 -21.112 -19.850  0.00  0.00    +0.033 C 
ATOM     17  N   UNL     1      38.909 -24.396 -13.111  0.00  0.00    -0.333 N 
ATOM     18  H   UNL     1      39.799 -24.096 -13.406  0.00  0.00    +0.145 HD
ATOM     19  H   UNL     1      38.812 -24.889 -12.266  0.00  0.00    +0.145 HD
ENDROOT
BRANCH  11  22
ATOM     20  O   UNL     1      36.895 -26.384 -11.981  0.00  0.00    -0.270 OA
ATOM     21  N   UNL     1      35.545 -24.714 -11.245  0.00  0.00    -0.325 N 
ATOM     22  C   UNL     1      36.366 -25.287 -12.208  0.00  0.00    +0.246 C 
ATOM     23  H   UNL     1      35.401 -25.172 -10.386  0.00  0.00    +0.145 HD
ATOM     24  H   UNL     1      35.107 -23.851 -11.423  0.00  0.00    +0.145 HD
ENDBRANCH  11  22
TORSDOF 1
ENDMDL
MODEL 3
REMARK VINA RESULT:      -9.7      1.551      2.668
REMARK  Name = 10038928
REMARK  1 active torsions:
REMARK  status: ('A' for Active; 'I' for Inactive)
REMARK    1  A    between atoms: C_11  and  C_19
REMARK                            x       y       z     vdW  Elec       q    Type
REMARK                         _______ _______ _______ _____ _____    ______ ____
ROOT
ATOM      1  F   UNL     1      28.309 -23.733 -15.007  0.00  0.00    -0.204 F 
ATOM      2  O   UNL     1      33.583 -23.084 -16.443  0.00  0.00    -0.430 OA
ATOM      3  O   UNL     1      32.771 -24.954 -12.900  0.00  0.00    -0.290 OA
ATOM      4  N   UNL     1      35.843 -23.302 -16.129  0.00  0.00    -0.355 NA
ATOM      5  C   UNL     1      34.386 -24.177 -14.427  0.00  0.00    +0.173 C 
ATOM      6  C   UNL     1      31.937 -23.904 -14.837  0.00  0.00    +0.072 C 
ATOM      7  C   UNL     1      33.011 -24.395 -13.961  0.00  0.00    +0.190 C 
ATOM      8  C   UNL     1      34.604 -23.536 -15.639  0.00  0.00    +0.269 C 
ATOM      9  C   UNL     1      32.288 -23.275 -16.031  0.00  0.00    +0.151 C 
ATOM     10  C   UNL     1      35.481 -24.599 -13.678  0.00  0.00    +0.000 C 
ATOM     11  C   UNL     1      36.763 -24.370 -14.163  0.00  0.00    +0.093 C 
ATOM     12  C   UNL     1      30.595 -24.063 -14.484  0.00  0.00    +0.036 C 
ATOM     13  C   UNL     1      36.889 -23.723 -15.381  0.00  0.00    +0.184 C 
ATOM     14  C   UNL     1      31.287 -22.801 -16.881  0.00  0.00    +0.040 C 
ATOM     15  C   UNL     1      29.599 -23.586 -15.337  0.00  0.00    +0.140 C 
ATOM     16  C   UNL     1      29.944 -22.956 -16.533  0.00  0.00    +0.033 C 
ATOM     17  N   UNL     1      38.194 -23.486 -15.881  0.00  0.00    -0.333 N 
ATOM     18  H   UNL     1      38.314 -23.029 -16.745  0.00  0.00    +0.145 HD
ATOM     19  H   UNL     1      38.979 -23.778 -15.366  0.00  0.00    +0.145 HD
ENDROOT
BRANCH  11  22
ATOM     20  O   UNL     1      38.705 -24.034 -12.836  0.00  0.00    -0.270 OA
ATOM     21  N   UNL     1      38.118 -26.181 -13.280  0.00  0.00    -0.325 N 
ATOM     22  C   UNL     1      37.911 -24.811 -13.383  0.00  0.00    +0.246 C 
ATOM     23  H   UNL     1      38.881 -26.525 -12.764  0.00  0.00    +0.145 HD
ATOM     24  H   UNL     1      37.502 -26.806 -13.726  0.00  0.00    +0.145 HD
ENDBRANCH  11  22
TORSDOF 1
ENDMDL
MODEL 4
REMARK VINA RESULT:      -9.6      4.568      6.029
REMARK  Name = 10038928
REMARK  1 active torsions:
REMARK  status: ('A' for Active; 'I' for Inactive)
REMARK    1  A    between atoms: C_11  and  C_19
REMARK                            x       y       z     vdW  Elec       q    Type
REMARK                         _______ _______ _______ _____ _____    ______ ____
ROOT
ATOM      1  F   UNL     1      36.127 -18.860 -22.539  0.00  0.00    -0.204 F 
ATOM      2  O   UNL     1      32.660 -21.448 -19.136  0.00  0.00    -0.430 OA
ATOM      3  O   UNL     1      36.669 -21.791 -18.422  0.00  0.00    -0.290 OA
ATOM      4  N   UNL     1      32.147 -22.765 -17.331  0.00  0.00    -0.355 NA
ATOM      5  C   UNL     1      34.471 -22.341 -17.785  0.00  0.00    +0.173 C 
ATOM      6  C   UNL     1      34.954 -20.898 -19.766  0.00  0.00    +0.072 C 
ATOM      7  C   UNL     1      35.471 -21.686 -18.638  0.00  0.00    +0.190 C 
ATOM      8  C   UNL     1      33.121 -22.191 -18.074  0.00  0.00    +0.269 C 
ATOM      9  C   UNL     1      33.573 -20.826 -19.950  0.00  0.00    +0.151 C 
ATOM     10  C   UNL     1      34.847 -23.112 -16.688  0.00  0.00    +0.000 C 
ATOM     11  C   UNL     1      33.863 -23.711 -15.911  0.00  0.00    +0.093 C 
ATOM     12  C   UNL     1      35.823 -20.237 -20.637  0.00  0.00    +0.036 C 
ATOM     13  C   UNL     1      32.540 -23.509 -16.272  0.00  0.00    +0.184 C 
ATOM     14  C   UNL     1      33.057 -20.084 -21.014  0.00  0.00    +0.040 C 
ATOM     15  C   UNL     1      35.301 -19.498 -21.698  0.00  0.00    +0.140 C 
ATOM     16  C   UNL     1      33.921 -19.422 -21.887  0.00  0.00    +0.033 C 
ATOM     17  N   UNL     1      31.531 -24.116 -15.483  0.00  0.00    -0.333 N 
ATOM     18  H   UNL     1      30.583 -23.990 -15.715  0.00  0.00    +0.145 HD
ATOM     19  H   UNL     1      31.778 -24.664 -14.704  0.00  0.00    +0.145 HD
ENDROOT
BRANCH  11  22
ATOM     20  O   UNL     1      33.746 -24.396 -13.639  0.00  0.00    -0.270 OA
ATOM     21  N   UNL     1      35.261 -25.451 -14.958  0.00  0.00    -0.325 N 
ATOM     22  C   UNL     1      34.252 -24.518 -14.763  0.00  0.00    +0.246 C 
ATOM     23  H   UNL     1      35.558 -26.019 -14.212  0.00  0.00    +0.145 HD
ATOM     24  H   UNL     1      35.681 -25.544 -15.844  0.00  0.00    +0.145 HD
ENDBRANCH  11  22
TORSDOF 1
ENDMDL
MODEL 5
REMARK VINA RESULT:      -9.6      4.812      6.142
REMARK  Name = 10038928
REMARK  1 active torsions:
REMARK  status: ('A' for Active; 'I' for Inactive)
REMARK    1  A    between atoms: C_11  and  C_19
REMARK                            x       y       z     vdW  Elec       q    Type
REMARK                         _______ _______ _______ _____ _____    ______ ____
ROOT
ATOM      1  F   UNL     1      34.122 -18.751 -23.308  0.00  0.00    -0.204 F 
ATOM      2  O   UNL     1      36.850 -20.661 -18.925  0.00  0.00    -0.430 OA
ATOM      3  O   UNL     1      33.022 -21.962 -19.524  0.00  0.00    -0.290 OA
ATOM      4  N   UNL     1      37.065 -21.927 -17.026  0.00  0.00    -0.355 NA
ATOM      5  C   UNL     1      34.973 -22.026 -18.208  0.00  0.00    +0.173 C 
ATOM      6  C   UNL     1      34.811 -20.622 -20.268  0.00  0.00    +0.072 C 
ATOM      7  C   UNL     1      34.167 -21.572 -19.348  0.00  0.00    +0.190 C 
ATOM      8  C   UNL     1      36.268 -21.551 -18.052  0.00  0.00    +0.269 C 
ATOM      9  C   UNL     1      36.120 -20.221 -20.001  0.00  0.00    +0.151 C 
ATOM     10  C   UNL     1      34.464 -22.925 -17.273  0.00  0.00    +0.000 C 
ATOM     11  C   UNL     1      35.266 -23.325 -16.212  0.00  0.00    +0.093 C 
ATOM     12  C   UNL     1      34.129 -20.130 -21.383  0.00  0.00    +0.036 C 
ATOM     13  C   UNL     1      36.546 -22.801 -16.133  0.00  0.00    +0.184 C 
ATOM     14  C   UNL     1      36.753 -19.319 -20.858  0.00  0.00    +0.040 C 
ATOM     15  C   UNL     1      34.768 -19.229 -22.236  0.00  0.00    +0.140 C 
ATOM     16  C   UNL     1      36.077 -18.824 -21.974  0.00  0.00    +0.033 C 
ATOM     17  N   UNL     1      37.370 -23.205 -15.053  0.00  0.00    -0.333 N 
ATOM     18  H   UNL     1      38.284 -22.850 -14.972  0.00  0.00    +0.145 HD
ATOM     19  H   UNL     1      37.028 -23.840 -14.383  0.00  0.00    +0.145 HD
ENDROOT
BRANCH  11  22
ATOM     20  O   UNL     1      35.247 -25.371 -15.005  0.00  0.00    -0.270 OA
ATOM     21  N   UNL     1      33.591 -23.888 -14.548  0.00  0.00    -0.325 N 
ATOM     22  C   UNL     1      34.739 -24.265 -15.233  0.00  0.00    +0.246 C 
ATOM     23  H   UNL     1      33.198 -24.491 -13.877  0.00  0.00    +0.145 HD
ATOM     24  H   UNL     1      33.170 -23.018 -14.734  0.00  0.00    +0.145 HD
ENDBRANCH  11  22
TORSDOF 1
ENDMDL
MODEL 6
REMARK VINA RESULT:      -9.5      1.972      2.202
REMARK  Name = 10038928
REMARK  1 active torsions:
REMARK  status: ('A' for Active; 'I' for Inactive)
REMARK    1  A    between atoms: C_11  and  C_19
REMARK                            x       y       z     vdW  Elec       q    Type
REMARK                         _______ _______ _______ _____ _____    ______ ____
ROOT
ATOM      1  F   UNL     1      27.798 -24.201 -16.566  0.00  0.00    -0.204 F 
ATOM      2  O   UNL     1      32.602 -24.504 -13.896  0.00  0.00    -0.430 OA
ATOM      3  O   UNL     1      32.557 -22.733 -17.580  0.00  0.00    -0.290 OA
ATOM      4  N   UNL     1      34.855 -24.151 -13.669  0.00  0.00    -0.355 NA
ATOM      5  C   UNL     1      33.801 -23.390 -15.692  0.00  0.00    +0.173 C 
ATOM      6  C   UNL     1      31.344 -23.808 -15.870  0.00  0.00    +0.072 C 
ATOM      7  C   UNL     1      32.567 -23.263 -16.478  0.00  0.00    +0.190 C 
ATOM      8  C   UNL     1      33.759 -24.000 -14.446  0.00  0.00    +0.269 C 
ATOM      9  C   UNL     1      31.434 -24.399 -14.610  0.00  0.00    +0.151 C 
ATOM     10  C   UNL     1      35.018 -22.909 -16.170  0.00  0.00    +0.000 C 
ATOM     11  C   UNL     1      36.157 -23.053 -15.388  0.00  0.00    +0.093 C 
ATOM     12  C   UNL     1      30.120 -23.737 -16.537  0.00  0.00    +0.036 C 
ATOM     13  C   UNL     1      36.024 -23.675 -14.157  0.00  0.00    +0.184 C 
ATOM     14  C   UNL     1      30.288 -24.924 -14.011  0.00  0.00    +0.040 C 
ATOM     15  C   UNL     1      28.977 -24.264 -15.934  0.00  0.00    +0.140 C 
ATOM     16  C   UNL     1      29.061 -24.856 -14.673  0.00  0.00    +0.033 C 
ATOM     17  N   UNL     1      37.182 -23.825 -13.354  0.00  0.00    -0.333 N 
ATOM     18  H   UNL     1      37.118 -24.262 -12.475  0.00  0.00    +0.145 HD
ATOM     19  H   UNL     1      38.051 -23.491 -13.675  0.00  0.00    +0.145 HD
ENDROOT
BRANCH  11  22
ATOM     20  O   UNL     1      38.495 -23.179 -15.792  0.00  0.00    -0.270 OA
ATOM     21  N   UNL     1      37.432 -21.290 -16.464  0.00  0.00    -0.325 N 
ATOM     22  C   UNL     1      37.431 -22.551 -15.883  0.00  0.00    +0.246 C 
ATOM     23  H   UNL     1      38.270 -20.909 -16.813  0.00  0.00    +0.145 HD
ATOM     24  H   UNL     1      36.595 -20.776 -16.526  0.00  0.00    +0.145 HD
ENDBRANCH  11  22
TORSDOF 1
ENDMDL
MODEL 7
REMARK VINA RESULT:      -9.5      3.602      4.978
REMARK  Name = 10038928
REMARK  1 active torsions:
REMARK  status: ('A' for Active; 'I' for Inactive)
REMARK    1  A    between atoms: C_11  and  C_19
REMARK                            x       y       z     vdW  Elec       q    Type
REMARK                         _______ _______ _______ _____ _____    ______ ____
ROOT
ATOM      1  F   UNL     1      37.035 -19.990 -20.941  0.00  0.00    -0.204 F 
ATOM      2  O   UNL     1      33.797 -22.789 -17.481  0.00  0.00    -0.430 OA
ATOM      3  O   UNL     1      37.659 -22.076 -16.349  0.00  0.00    -0.290 OA
ATOM      4  N   UNL     1      33.351 -23.910 -15.532  0.00  0.00    -0.355 NA
ATOM      5  C   UNL     1      35.567 -23.025 -15.834  0.00  0.00    +0.173 C 
ATOM      6  C   UNL     1      35.980 -21.816 -17.980  0.00  0.00    +0.072 C 
ATOM      7  C   UNL     1      36.504 -22.287 -16.690  0.00  0.00    +0.190 C 
ATOM      8  C   UNL     1      34.266 -23.239 -16.268  0.00  0.00    +0.269 C 
ATOM      9  C   UNL     1      34.652 -22.097 -18.301  0.00  0.00    +0.151 C 
ATOM     10  C   UNL     1      35.955 -23.518 -14.590  0.00  0.00    +0.000 C 
ATOM     11  C   UNL     1      35.031 -24.209 -13.817  0.00  0.00    +0.093 C 
ATOM     12  C   UNL     1      36.791 -21.105 -18.867  0.00  0.00    +0.036 C 
ATOM     13  C   UNL     1      33.754 -24.378 -14.328  0.00  0.00    +0.184 C 
ATOM     14  C   UNL     1      34.130 -21.660 -19.521  0.00  0.00    +0.040 C 
ATOM     15  C   UNL     1      36.264 -20.672 -20.084  0.00  0.00    +0.140 C 
ATOM     16  C   UNL     1      34.936 -20.950 -20.410  0.00  0.00    +0.033 C 
ATOM     17  N   UNL     1      32.807 -25.082 -13.544  0.00  0.00    -0.333 N 
ATOM     18  H   UNL     1      31.892 -25.216 -13.882  0.00  0.00    +0.145 HD
ATOM     19  H   UNL     1      33.063 -25.437 -12.663  0.00  0.00    +0.145 HD
ENDROOT
BRANCH  11  22
ATOM     20  O   UNL     1      34.915 -24.368 -11.449  0.00  0.00    -0.270 OA
ATOM     21  N   UNL     1      36.468 -25.651 -12.494  0.00  0.00    -0.325 N 
ATOM     22  C   UNL     1      35.432 -24.726 -12.516  0.00  0.00    +0.246 C 
ATOM     23  H   UNL     1      36.774 -26.027 -11.638  0.00  0.00    +0.145 HD
ATOM     24  H   UNL     1      36.897 -25.929 -13.336  0.00  0.00    +0.145 HD
ENDBRANCH  11  22
TORSDOF 1
ENDMDL
MODEL 8
REMARK VINA RESULT:      -9.5      3.530      5.616
REMARK  Name = 10038928
REMARK  1 active torsions:
REMARK  status: ('A' for Active; 'I' for Inactive)
REMARK    1  A    between atoms: C_11  and  C_19
REMARK                            x       y       z     vdW  Elec       q    Type
REMARK                         _______ _______ _______ _____ _____    ______ ____
ROOT
ATOM      1  F   UNL     1      35.329 -20.208 -21.683  0.00  0.00    -0.204 F 
ATOM      2  O   UNL     1      35.673 -22.716 -16.795  0.00  0.00    -0.430 OA
ATOM      3  O   UNL     1      31.973 -22.280 -18.476  0.00  0.00    -0.290 OA
ATOM      4  N   UNL     1      34.799 -23.776 -14.961  0.00  0.00    -0.355 NA
ATOM      5  C   UNL     1      33.272 -23.064 -16.677  0.00  0.00    +0.173 C 
ATOM      6  C   UNL     1      34.295 -21.916 -18.645  0.00  0.00    +0.072 C 
ATOM      7  C   UNL     1      33.081 -22.409 -17.977  0.00  0.00    +0.190 C 
ATOM      8  C   UNL     1      34.551 -23.185 -16.152  0.00  0.00    +0.269 C 
ATOM      9  C   UNL     1      35.524 -22.099 -18.013  0.00  0.00    +0.151 C 
ATOM     10  C   UNL     1      32.193 -23.569 -15.954  0.00  0.00    +0.000 C 
ATOM     11  C   UNL     1      32.425 -24.181 -14.728  0.00  0.00    +0.093 C 
ATOM     12  C   UNL     1      34.220 -21.278 -19.885  0.00  0.00    +0.036 C 
ATOM     13  C   UNL     1      33.734 -24.258 -14.280  0.00  0.00    +0.184 C 
ATOM     14  C   UNL     1      36.691 -21.640 -18.627  0.00  0.00    +0.040 C 
ATOM     15  C   UNL     1      35.390 -20.822 -20.494  0.00  0.00    +0.140 C 
ATOM     16  C   UNL     1      36.623 -21.002 -19.866  0.00  0.00    +0.033 C 
ATOM     17  N   UNL     1      33.978 -24.881 -13.031  0.00  0.00    -0.333 N 
ATOM     18  H   UNL     1      34.898 -24.951 -12.687  0.00  0.00    +0.145 HD
ATOM     19  H   UNL     1      33.228 -25.244 -12.507  0.00  0.00    +0.145 HD
ENDROOT
BRANCH  11  22
ATOM     20  O   UNL     1      31.128 -24.496 -12.763  0.00  0.00    -0.270 OA
ATOM     21  N   UNL     1      30.399 -25.515 -14.654  0.00  0.00    -0.325 N 
ATOM     22  C   UNL     1      31.301 -24.710 -13.970  0.00  0.00    +0.246 C 
ATOM     23  H   UNL     1      29.623 -25.896 -14.183  0.00  0.00    +0.145 HD
ATOM     24  H   UNL     1      30.536 -25.705 -15.610  0.00  0.00    +0.145 HD
ENDBRANCH  11  22
TORSDOF 1
ENDMDL
MODEL 9
REMARK VINA RESULT:      -9.4      3.795      6.534
REMARK  Name = 10038928
REMARK  1 active torsions:
REMARK  status: ('A' for Active; 'I' for Inactive)
REMARK    1  A    between atoms: C_11  and  C_19
REMARK                            x       y       z     vdW  Elec       q    Type
REMARK                         _______ _______ _______ _____ _____    ______ ____
ROOT
ATOM      1  F   UNL     1      38.281 -22.920 -15.852  0.00  0.00    -0.204 F 
ATOM      2  O   UNL     1      33.374 -24.626 -14.034  0.00  0.00    -0.430 OA
ATOM      3  O   UNL     1      33.503 -22.536 -17.544  0.00  0.00    -0.290 OA
ATOM      4  N   UNL     1      31.096 -24.846 -14.159  0.00  0.00    -0.355 NA
ATOM      5  C   UNL     1      32.206 -23.657 -15.931  0.00  0.00    +0.173 C 
ATOM      6  C   UNL     1      34.688 -23.457 -15.728  0.00  0.00    +0.072 C 
ATOM      7  C   UNL     1      33.468 -23.161 -16.494  0.00  0.00    +0.190 C 
ATOM      8  C   UNL     1      32.220 -24.361 -14.735  0.00  0.00    +0.269 C 
ATOM      9  C   UNL     1      34.568 -24.175 -14.538  0.00  0.00    +0.151 C 
ATOM     10  C   UNL     1      30.989 -23.434 -16.571  0.00  0.00    +0.000 C 
ATOM     11  C   UNL     1      29.822 -23.924 -15.998  0.00  0.00    +0.093 C 
ATOM     12  C   UNL     1      35.938 -23.029 -16.179  0.00  0.00    +0.036 C 
ATOM     13  C   UNL     1      29.928 -24.616 -14.802  0.00  0.00    +0.184 C 
ATOM     14  C   UNL     1      35.711 -24.468 -13.792  0.00  0.00    +0.040 C 
ATOM     15  C   UNL     1      37.077 -23.326 -15.429  0.00  0.00    +0.140 C 
ATOM     16  C   UNL     1      36.963 -24.043 -14.237  0.00  0.00    +0.033 C 
ATOM     17  N   UNL     1      28.741 -25.118 -14.212  0.00  0.00    -0.333 N 
ATOM     18  H   UNL     1      28.786 -25.614 -13.364  0.00  0.00    +0.145 HD
ATOM     19  H   UNL     1      27.873 -24.971 -14.651  0.00  0.00    +0.145 HD
ENDROOT
BRANCH  11  22
ATOM     20  O   UNL     1      27.931 -24.572 -17.283  0.00  0.00    -0.270 OA
ATOM     21  N   UNL     1      28.028 -22.407 -16.611  0.00  0.00    -0.325 N 
ATOM     22  C   UNL     1      28.548 -23.694 -16.665  0.00  0.00    +0.246 C 
ATOM     23  H   UNL     1      27.170 -22.204 -17.047  0.00  0.00    +0.145 HD
ATOM     24  H   UNL     1      28.520 -21.698 -16.136  0.00  0.00    +0.145 HD
ENDBRANCH  11  22
TORSDOF 1
ENDMDL
