MODEL 1
REMARK VINA RESULT:      -8.3      0.000      0.000
REMARK  Name = 2811
REMARK  2 active torsions:
REMARK  status: ('A' for Active; 'I' for Inactive)
REMARK    1  A    between atoms: C_7  and  C_14
REMARK    2  A    between atoms: C_8  and  C_20
REMARK                            x       y       z     vdW  Elec       q    Type
REMARK                         _______ _______ _______ _____ _____    ______ ____
ROOT
ATOM      1  S   UNL     1      32.439 -23.048 -16.898  0.00  0.00    -0.076 S 
ATOM      2  O   UNL     1      36.798 -21.791 -19.002  0.00  0.00    -0.272 OA
ATOM      3  N   UNL     1      34.773 -22.490 -18.080  0.00  0.00    -0.250 N 
ATOM      4  N   UNL     1      37.003 -22.647 -15.907  0.00  0.00    -0.260 NA
ATOM      5  C   UNL     1      34.695 -23.336 -15.688  0.00  0.00    +0.037 C 
ATOM      6  C   UNL     1      34.147 -22.928 -16.898  0.00  0.00    +0.085 C 
ATOM      7  C   UNL     1      36.131 -23.468 -15.432  0.00  0.00    +0.079 C 
ATOM      8  C   UNL     1      32.396 -23.534 -15.268  0.00  0.00    +0.009 C 
ATOM      9  C   UNL     1      33.659 -23.655 -14.742  0.00  0.00    +0.005 C 
ATOM     10  C   UNL     1      36.550 -21.496 -16.663  0.00  0.00    +0.210 C 
ATOM     11  C   UNL     1      36.072 -21.963 -18.019  0.00  0.00    +0.255 C 
ATOM     12  C   UNL     1      34.134 -22.583 -19.395  0.00  0.00    +0.121 C 
ENDROOT
BRANCH   7  14
ATOM     13 CL   UNL     1      36.830 -22.907 -12.476  0.00  0.00    -0.082 Cl
ATOM     14  C   UNL     1      36.607 -24.603 -14.602  0.00  0.00    +0.028 C 
ATOM     15  C   UNL     1      36.944 -24.442 -13.259  0.00  0.00    +0.059 C 
ATOM     16  C   UNL     1      36.711 -25.855 -15.204  0.00  0.00    +0.002 C 
ATOM     17  C   UNL     1      37.387 -25.537 -12.516  0.00  0.00    +0.011 C 
ATOM     18  C   UNL     1      37.154 -26.950 -14.462  0.00  0.00    +0.000 C 
ATOM     19  C   UNL     1      37.492 -26.791 -13.118  0.00  0.00    +0.001 C 
ENDBRANCH   7  14
BRANCH   8  20
ATOM     20  C   UNL     1      31.096 -23.784 -14.610  0.00  0.00    +0.033 C 
ATOM     21  C   UNL     1      30.027 -22.759 -15.004  0.00  0.00    +0.006 C 
ENDBRANCH   8  20
TORSDOF 2
ENDMDL
MODEL 2
REMARK VINA RESULT:      -8.2     15.602     17.560
REMARK  Name = 2811
REMARK  2 active torsions:
REMARK  status: ('A' for Active; 'I' for Inactive)
REMARK    1  A    between atoms: C_7  and  C_14
REMARK    2  A    between atoms: C_8  and  C_20
REMARK                            x       y       z     vdW  Elec       q    Type
REMARK                         _______ _______ _______ _____ _____    ______ ____
ROOT
ATOM      1  S   UNL     1      31.355  -6.002 -22.129  0.00  0.00    -0.076 S 
ATOM      2  O   UNL     1      32.451  -9.680 -18.923  0.00  0.00    -0.272 OA
ATOM      3  N   UNL     1      32.060  -7.924 -20.407  0.00  0.00    -0.250 N 
ATOM      4  N   UNL     1      32.351 -10.582 -22.011  0.00  0.00    -0.260 NA
ATOM      5  C   UNL     1      32.060  -8.354 -22.908  0.00  0.00    +0.037 C 
ATOM      6  C   UNL     1      31.866  -7.595 -21.761  0.00  0.00    +0.085 C 
ATOM      7  C   UNL     1      32.618  -9.708 -22.920  0.00  0.00    +0.079 C 
ATOM      8  C   UNL     1      31.279  -6.330 -23.797  0.00  0.00    +0.009 C 
ATOM      9  C   UNL     1      31.684  -7.611 -24.081  0.00  0.00    +0.005 C 
ATOM     10  C   UNL     1      31.398 -10.247 -20.970  0.00  0.00    +0.210 C 
ATOM     11  C   UNL     1      32.045  -9.271 -20.014  0.00  0.00    +0.255 C 
ATOM     12  C   UNL     1      32.307  -6.914 -19.375  0.00  0.00    +0.121 C 
ENDROOT
BRANCH   7  14
ATOM     13 CL   UNL     1      35.061  -7.896 -23.453  0.00  0.00    -0.082 Cl
ATOM     14  C   UNL     1      33.542 -10.091 -24.017  0.00  0.00    +0.028 C 
ATOM     15  C   UNL     1      34.670  -9.332 -24.328  0.00  0.00    +0.059 C 
ATOM     16  C   UNL     1      33.254 -11.245 -24.743  0.00  0.00    +0.002 C 
ATOM     17  C   UNL     1      35.511  -9.729 -25.368  0.00  0.00    +0.011 C 
ATOM     18  C   UNL     1      34.095 -11.641 -25.783  0.00  0.00    +0.000 C 
ATOM     19  C   UNL     1      35.224 -10.884 -26.095  0.00  0.00    +0.001 C 
ENDBRANCH   7  14
BRANCH   8  20
ATOM     20  C   UNL     1      30.833  -5.275 -24.733  0.00  0.00    +0.033 C 
ATOM     21  C   UNL     1      32.003  -4.565 -25.423  0.00  0.00    +0.006 C 
ENDBRANCH   8  20
TORSDOF 2
ENDMDL
MODEL 3
REMARK VINA RESULT:      -7.8      7.328      9.653
REMARK  Name = 2811
REMARK  2 active torsions:
REMARK  status: ('A' for Active; 'I' for Inactive)
REMARK    1  A    between atoms: C_7  and  C_14
REMARK    2  A    between atoms: C_8  and  C_20
REMARK                            x       y       z     vdW  Elec       q    Type
REMARK                         _______ _______ _______ _____ _____    ______ ____
ROOT
ATOM      1  S   UNL     1      32.753 -14.218 -22.472  0.00  0.00    -0.076 S 
ATOM      2  O   UNL     1      34.978 -16.844 -26.100  0.00  0.00    -0.272 OA
ATOM      3  N   UNL     1      33.831 -15.677 -24.437  0.00  0.00    -0.250 N 
ATOM      4  N   UNL     1      35.532 -17.936 -23.124  0.00  0.00    -0.260 NA
ATOM      5  C   UNL     1      34.001 -16.425 -22.018  0.00  0.00    +0.037 C 
ATOM      6  C   UNL     1      33.631 -15.570 -23.049  0.00  0.00    +0.085 C 
ATOM      7  C   UNL     1      34.647 -17.725 -22.212  0.00  0.00    +0.079 C 
ATOM      8  C   UNL     1      32.947 -14.688 -20.848  0.00  0.00    +0.009 C 
ATOM      9  C   UNL     1      33.622 -15.879 -20.742  0.00  0.00    +0.005 C 
ATOM     10  C   UNL     1      35.973 -16.828 -23.948  0.00  0.00    +0.210 C 
ATOM     11  C   UNL     1      34.873 -16.480 -24.925  0.00  0.00    +0.255 C 
ATOM     12  C   UNL     1      32.974 -15.002 -25.415  0.00  0.00    +0.121 C 
ENDROOT
BRANCH   7  14
ATOM     13 CL   UNL     1      36.897 -19.356 -20.863  0.00  0.00    -0.082 Cl
ATOM     14  C   UNL     1      34.256 -18.855 -21.331  0.00  0.00    +0.028 C 
ATOM     15  C   UNL     1      35.204 -19.644 -20.682  0.00  0.00    +0.059 C 
ATOM     16  C   UNL     1      32.897 -19.115 -21.164  0.00  0.00    +0.002 C 
ATOM     17  C   UNL     1      34.791 -20.696 -19.863  0.00  0.00    +0.011 C 
ATOM     18  C   UNL     1      32.485 -20.166 -20.346  0.00  0.00    +0.000 C 
ATOM     19  C   UNL     1      33.432 -20.957 -19.695  0.00  0.00    +0.001 C 
ENDBRANCH   7  14
BRANCH   8  20
ATOM     20  C   UNL     1      32.395 -13.842 -19.768  0.00  0.00    +0.033 C 
ATOM     21  C   UNL     1      31.926 -12.472 -20.271  0.00  0.00    +0.006 C 
ENDBRANCH   8  20
TORSDOF 2
ENDMDL
MODEL 4
REMARK VINA RESULT:      -7.6     15.657     18.436
REMARK  Name = 2811
REMARK  2 active torsions:
REMARK  status: ('A' for Active; 'I' for Inactive)
REMARK    1  A    between atoms: C_7  and  C_14
REMARK    2  A    between atoms: C_8  and  C_20
REMARK                            x       y       z     vdW  Elec       q    Type
REMARK                         _______ _______ _______ _____ _____    ______ ____
ROOT
ATOM      1  S   UNL     1      32.957 -11.246 -23.098  0.00  0.00    -0.076 S 
ATOM      2  O   UNL     1      31.251  -8.675 -19.162  0.00  0.00    -0.272 OA
ATOM      3  N   UNL     1      31.928  -9.876 -21.043  0.00  0.00    -0.250 N 
ATOM      4  N   UNL     1      32.788  -6.895 -21.360  0.00  0.00    -0.260 NA
ATOM      5  C   UNL     1      33.050  -8.674 -22.977  0.00  0.00    +0.037 C 
ATOM      6  C   UNL     1      32.614  -9.787 -22.268  0.00  0.00    +0.085 C 
ATOM      7  C   UNL     1      32.785  -7.288 -22.587  0.00  0.00    +0.079 C 
ATOM      8  C   UNL     1      33.780 -10.433 -24.345  0.00  0.00    +0.009 C 
ATOM      9  C   UNL     1      33.753  -9.072 -24.168  0.00  0.00    +0.005 C 
ATOM     10  C   UNL     1      33.144  -7.840 -20.318  0.00  0.00    +0.210 C 
ATOM     11  C   UNL     1      32.002  -8.812 -20.131  0.00  0.00    +0.255 C 
ATOM     12  C   UNL     1      31.104 -11.031 -20.679  0.00  0.00    +0.121 C 
ENDROOT
BRANCH   7  14
ATOM     13 CL   UNL     1      30.271  -5.525 -22.249  0.00  0.00    -0.082 Cl
ATOM     14  C   UNL     1      32.485  -6.292 -23.646  0.00  0.00    +0.028 C 
ATOM     15  C   UNL     1      31.373  -5.455 -23.576  0.00  0.00    +0.059 C 
ATOM     16  C   UNL     1      33.355  -6.210 -24.732  0.00  0.00    +0.002 C 
ATOM     17  C   UNL     1      31.130  -4.533 -24.596  0.00  0.00    +0.011 C 
ATOM     18  C   UNL     1      33.112  -5.290 -25.751  0.00  0.00    +0.000 C 
ATOM     19  C   UNL     1      31.999  -4.451 -25.683  0.00  0.00    +0.001 C 
ENDBRANCH   7  14
BRANCH   8  20
ATOM     20  C   UNL     1      34.393 -11.207 -25.446  0.00  0.00    +0.033 C 
ATOM     21  C   UNL     1      35.534 -10.451 -26.135  0.00  0.00    +0.006 C 
ENDBRANCH   8  20
TORSDOF 2
ENDMDL
MODEL 5
REMARK VINA RESULT:      -7.6      2.378      4.903
REMARK  Name = 2811
REMARK  2 active torsions:
REMARK  status: ('A' for Active; 'I' for Inactive)
REMARK    1  A    between atoms: C_7  and  C_14
REMARK    2  A    between atoms: C_8  and  C_20
REMARK                            x       y       z     vdW  Elec       q    Type
REMARK                         _______ _______ _______ _____ _____    ______ ____
ROOT
ATOM      1  S   UNL     1      32.133 -23.407 -13.350  0.00  0.00    -0.076 S 
ATOM      2  O   UNL     1      36.889 -24.932 -13.085  0.00  0.00    -0.272 OA
ATOM      3  N   UNL     1      34.711 -24.103 -13.182  0.00  0.00    -0.250 N 
ATOM      4  N   UNL     1      35.757 -24.592 -16.079  0.00  0.00    -0.260 NA
ATOM      5  C   UNL     1      33.636 -23.626 -15.431  0.00  0.00    +0.037 C 
ATOM      6  C   UNL     1      33.655 -23.765 -14.049  0.00  0.00    +0.085 C 
ATOM      7  C   UNL     1      34.816 -23.738 -16.291  0.00  0.00    +0.079 C 
ATOM      8  C   UNL     1      31.405 -23.173 -14.869  0.00  0.00    +0.009 C 
ATOM      9  C   UNL     1      32.310 -23.311 -15.893  0.00  0.00    +0.005 C 
ATOM     10  C   UNL     1      35.616 -25.540 -14.990  0.00  0.00    +0.210 C 
ATOM     11  C   UNL     1      35.815 -24.811 -13.681  0.00  0.00    +0.255 C 
ATOM     12  C   UNL     1      34.726 -23.723 -11.768  0.00  0.00    +0.121 C 
ENDROOT
BRANCH   7  14
ATOM     13 CL   UNL     1      37.456 -22.168 -16.612  0.00  0.00    -0.082 Cl
ATOM     14  C   UNL     1      34.944 -22.820 -17.451  0.00  0.00    +0.028 C 
ATOM     15  C   UNL     1      36.099 -22.073 -17.675  0.00  0.00    +0.059 C 
ATOM     16  C   UNL     1      33.865 -22.719 -18.328  0.00  0.00    +0.002 C 
ATOM     17  C   UNL     1      36.175 -21.222 -18.778  0.00  0.00    +0.011 C 
ATOM     18  C   UNL     1      33.941 -21.869 -19.431  0.00  0.00    +0.000 C 
ATOM     19  C   UNL     1      35.096 -21.120 -19.656  0.00  0.00    +0.001 C 
ENDBRANCH   7  14
BRANCH   8  20
ATOM     20  C   UNL     1      29.965 -22.844 -14.951  0.00  0.00    +0.033 C 
ATOM     21  C   UNL     1      29.442 -22.837 -16.391  0.00  0.00    +0.006 C 
ENDBRANCH   8  20
TORSDOF 2
ENDMDL
MODEL 6
REMARK VINA RESULT:      -7.5     12.141     14.793
REMARK  Name = 2811
REMARK  2 active torsions:
REMARK  status: ('A' for Active; 'I' for Inactive)
REMARK    1  A    between atoms: C_7  and  C_14
REMARK    2  A    between atoms: C_8  and  C_20
REMARK                            x       y       z     vdW  Elec       q    Type
REMARK                         _______ _______ _______ _____ _____    ______ ____
ROOT
ATOM      1  S   UNL     1      34.368  -9.105 -24.048  0.00  0.00    -0.076 S 
ATOM      2  O   UNL     1      31.041  -9.899 -20.400  0.00  0.00    -0.272 OA
ATOM      3  N   UNL     1      32.685  -9.539 -22.014  0.00  0.00    -0.250 N 
ATOM      4  N   UNL     1      31.598 -12.449 -22.282  0.00  0.00    -0.260 NA
ATOM      5  C   UNL     1      33.398 -11.437 -23.542  0.00  0.00    +0.037 C 
ATOM      6  C   UNL     1      33.364 -10.119 -23.102  0.00  0.00    +0.085 C 
ATOM      7  C   UNL     1      32.746 -12.555 -22.857  0.00  0.00    +0.079 C 
ATOM      8  C   UNL     1      34.770 -10.368 -25.114  0.00  0.00    +0.009 C 
ATOM      9  C   UNL     1      34.197 -11.556 -24.732  0.00  0.00    +0.005 C 
ATOM     10  C   UNL     1      30.876 -11.196 -22.377  0.00  0.00    +0.210 C 
ATOM     11  C   UNL     1      31.551 -10.176 -21.489  0.00  0.00    +0.255 C 
ATOM     12  C   UNL     1      33.128  -8.297 -21.377  0.00  0.00    +0.121 C 
ENDROOT
BRANCH   7  14
ATOM     13 CL   UNL     1      32.691 -14.319 -25.392  0.00  0.00    -0.082 Cl
ATOM     14  C   UNL     1      33.442 -13.866 -22.809  0.00  0.00    +0.028 C 
ATOM     15  C   UNL     1      33.469 -14.726 -23.906  0.00  0.00    +0.059 C 
ATOM     16  C   UNL     1      34.080 -14.225 -21.623  0.00  0.00    +0.002 C 
ATOM     17  C   UNL     1      34.136 -15.949 -23.815  0.00  0.00    +0.011 C 
ATOM     18  C   UNL     1      34.746 -15.447 -21.533  0.00  0.00    +0.000 C 
ATOM     19  C   UNL     1      34.774 -16.309 -22.629  0.00  0.00    +0.001 C 
ENDBRANCH   7  14
BRANCH   8  20
ATOM     20  C   UNL     1      35.657 -10.102 -26.267  0.00  0.00    +0.033 C 
ATOM     21  C   UNL     1      35.537 -11.166 -27.363  0.00  0.00    +0.006 C 
ENDBRANCH   8  20
TORSDOF 2
ENDMDL
MODEL 7
REMARK VINA RESULT:      -7.0      3.094      4.560
REMARK  Name = 2811
REMARK  2 active torsions:
REMARK  status: ('A' for Active; 'I' for Inactive)
REMARK    1  A    between atoms: C_7  and  C_14
REMARK    2  A    between atoms: C_8  and  C_20
REMARK                            x       y       z     vdW  Elec       q    Type
REMARK                         _______ _______ _______ _____ _____    ______ ____
ROOT
ATOM      1  S   UNL     1      32.100 -22.562 -17.015  0.00  0.00    -0.076 S 
ATOM      2  O   UNL     1      30.194 -23.982 -12.615  0.00  0.00    -0.272 OA
ATOM      3  N   UNL     1      31.109 -23.207 -14.615  0.00  0.00    -0.250 N 
ATOM      4  N   UNL     1      33.134 -25.135 -13.234  0.00  0.00    -0.260 NA
ATOM      5  C   UNL     1      33.470 -23.871 -15.269  0.00  0.00    +0.037 C 
ATOM      6  C   UNL     1      32.221 -23.298 -15.473  0.00  0.00    +0.085 C 
ATOM      7  C   UNL     1      33.915 -24.458 -14.003  0.00  0.00    +0.079 C 
ATOM      8  C   UNL     1      33.653 -23.086 -17.471  0.00  0.00    +0.009 C 
ATOM      9  C   UNL     1      34.279 -23.765 -16.454  0.00  0.00    +0.005 C 
ATOM     10  C   UNL     1      31.775 -25.400 -13.667  0.00  0.00    +0.210 C 
ATOM     11  C   UNL     1      30.973 -24.123 -13.561  0.00  0.00    +0.255 C 
ATOM     12  C   UNL     1      30.085 -22.169 -14.754  0.00  0.00    +0.121 C 
ENDROOT
BRANCH   7  14
ATOM     13 CL   UNL     1      36.081 -26.278 -15.241  0.00  0.00    -0.082 Cl
ATOM     14  C   UNL     1      35.322 -24.254 -13.577  0.00  0.00    +0.028 C 
ATOM     15  C   UNL     1      36.364 -25.029 -14.084  0.00  0.00    +0.059 C 
ATOM     16  C   UNL     1      35.585 -23.254 -12.643  0.00  0.00    +0.002 C 
ATOM     17  C   UNL     1      37.673 -24.802 -13.655  0.00  0.00    +0.011 C 
ATOM     18  C   UNL     1      36.893 -23.027 -12.214  0.00  0.00    +0.000 C 
ATOM     19  C   UNL     1      37.937 -23.801 -12.720  0.00  0.00    +0.001 C 
ENDBRANCH   7  14
BRANCH   8  20
ATOM     20  C   UNL     1      34.167 -22.772 -18.821  0.00  0.00    +0.033 C 
ATOM     21  C   UNL     1      33.481 -21.551 -19.444  0.00  0.00    +0.006 C 
ENDBRANCH   8  20
TORSDOF 2
ENDMDL
MODEL 8
REMARK VINA RESULT:      -6.9     14.124     15.696
REMARK  Name = 2811
REMARK  2 active torsions:
REMARK  status: ('A' for Active; 'I' for Inactive)
REMARK    1  A    between atoms: C_7  and  C_14
REMARK    2  A    between atoms: C_8  and  C_20
REMARK                            x       y       z     vdW  Elec       q    Type
REMARK                         _______ _______ _______ _____ _____    ______ ____
ROOT
ATOM      1  S   UNL     1      31.490  -9.064 -22.003  0.00  0.00    -0.076 S 
ATOM      2  O   UNL     1      34.728  -7.260 -25.360  0.00  0.00    -0.272 OA
ATOM      3  N   UNL     1      33.128  -8.096 -23.884  0.00  0.00    -0.250 N 
ATOM      4  N   UNL     1      34.971 -10.426 -24.832  0.00  0.00    -0.260 NA
ATOM      5  C   UNL     1      33.029 -10.586 -23.400  0.00  0.00    +0.037 C 
ATOM      6  C   UNL     1      32.684  -9.253 -23.216  0.00  0.00    +0.085 C 
ATOM      7  C   UNL     1      33.924 -11.072 -24.452  0.00  0.00    +0.079 C 
ATOM      8  C   UNL     1      31.496 -10.724 -21.631  0.00  0.00    +0.009 C 
ATOM      9  C   UNL     1      32.350 -11.424 -22.448  0.00  0.00    +0.005 C 
ATOM     10  C   UNL     1      35.333  -9.202 -24.143  0.00  0.00    +0.210 C 
ATOM     11  C   UNL     1      34.365  -8.113 -24.545  0.00  0.00    +0.255 C 
ATOM     12  C   UNL     1      32.336  -6.866 -23.946  0.00  0.00    +0.121 C 
ENDROOT
BRANCH   7  14
ATOM     13 CL   UNL     1      34.237 -13.674 -22.817  0.00  0.00    -0.082 Cl
ATOM     14  C   UNL     1      33.606 -12.358 -25.123  0.00  0.00    +0.028 C 
ATOM     15  C   UNL     1      33.718 -13.580 -24.461  0.00  0.00    +0.059 C 
ATOM     16  C   UNL     1      33.185 -12.318 -26.450  0.00  0.00    +0.002 C 
ATOM     17  C   UNL     1      33.408 -14.765 -25.131  0.00  0.00    +0.011 C 
ATOM     18  C   UNL     1      32.876 -13.502 -27.120  0.00  0.00    +0.000 C 
ATOM     19  C   UNL     1      32.988 -14.726 -26.460  0.00  0.00    +0.001 C 
ENDBRANCH   7  14
BRANCH   8  20
ATOM     20  C   UNL     1      30.627 -11.238 -20.550  0.00  0.00    +0.033 C 
ATOM     21  C   UNL     1      31.133 -10.856 -19.155  0.00  0.00    +0.006 C 
ENDBRANCH   8  20
TORSDOF 2
ENDMDL
MODEL 9
REMARK VINA RESULT:      -6.9     11.608     14.540
REMARK  Name = 2811
REMARK  2 active torsions:
REMARK  status: ('A' for Active; 'I' for Inactive)
REMARK    1  A    between atoms: C_7  and  C_14
REMARK    2  A    between atoms: C_8  and  C_20
REMARK                            x       y       z     vdW  Elec       q    Type
REMARK                         _______ _______ _______ _____ _____    ______ ____
ROOT
ATOM      1  S   UNL     1      33.004 -14.990 -21.535  0.00  0.00    -0.076 S 
ATOM      2  O   UNL     1      34.439 -16.505 -26.080  0.00  0.00    -0.272 OA
ATOM      3  N   UNL     1      33.892 -15.787 -23.930  0.00  0.00    -0.250 N 
ATOM      4  N   UNL     1      33.412 -13.458 -25.947  0.00  0.00    -0.260 NA
ATOM      5  C   UNL     1      33.177 -13.382 -23.541  0.00  0.00    +0.037 C 
ATOM      6  C   UNL     1      33.390 -14.707 -23.180  0.00  0.00    +0.085 C 
ATOM      7  C   UNL     1      33.537 -12.810 -24.840  0.00  0.00    +0.079 C 
ATOM      8  C   UNL     1      32.449 -13.398 -21.312  0.00  0.00    +0.009 C 
ATOM      9  C   UNL     1      32.600 -12.643 -22.450  0.00  0.00    +0.005 C 
ATOM     10  C   UNL     1      32.819 -14.781 -25.927  0.00  0.00    +0.210 C 
ATOM     11  C   UNL     1      33.814 -15.751 -25.330  0.00  0.00    +0.255 C 
ATOM     12  C   UNL     1      34.529 -16.952 -23.311  0.00  0.00    +0.121 C 
ENDROOT
BRANCH   7  14
ATOM     13 CL   UNL     1      35.235 -12.005 -27.291  0.00  0.00    -0.082 Cl
ATOM     14  C   UNL     1      34.082 -11.431 -24.886  0.00  0.00    +0.028 C 
ATOM     15  C   UNL     1      34.858 -10.981 -25.953  0.00  0.00    +0.059 C 
ATOM     16  C   UNL     1      33.797 -10.578 -23.821  0.00  0.00    +0.002 C 
ATOM     17  C   UNL     1      35.350  -9.675 -25.954  0.00  0.00    +0.011 C 
ATOM     18  C   UNL     1      34.289  -9.273 -23.822  0.00  0.00    +0.000 C 
ATOM     19  C   UNL     1      35.066  -8.821 -24.889  0.00  0.00    +0.001 C 
ENDBRANCH   7  14
BRANCH   8  20
ATOM     20  C   UNL     1      31.907 -12.986 -19.999  0.00  0.00    +0.033 C 
ATOM     21  C   UNL     1      31.563 -11.494 -19.944  0.00  0.00    +0.006 C 
ENDBRANCH   8  20
TORSDOF 2
ENDMDL
