MODEL 1
REMARK VINA RESULT:      -4.9      0.000      0.000
REMARK  Name = 6971050
REMARK  4 active torsions:
REMARK  status: ('A' for Active; 'I' for Inactive)
REMARK    1  A    between atoms: CA_1  and  N_2
REMARK    2  A    between atoms: CA_1  and  C_8
REMARK    3  A    between atoms: CA_1  and  CB_9
REMARK    4  A    between atoms: CB_9  and  OG1_11
REMARK                            x       y       z     vdW  Elec       q    Type
REMARK                         _______ _______ _______ _____ _____    ______ ____
ROOT
ATOM      1  CA  THR A   1      38.798 -25.405 -14.235  0.00  0.00    +0.068 C 
ENDROOT
BRANCH   1   2
ATOM      2  N   THR A   1      38.196 -26.772 -14.347  0.00  0.00    +0.390 N 
ATOM      3  H1  THR A   1      37.191 -26.690 -14.501  0.00  0.00    -0.088 HD
ATOM      4  H2  THR A   1      38.367 -27.291 -13.486  0.00  0.00    -0.088 HD
ATOM      5  H3  THR A   1      38.621 -27.266 -15.132  0.00  0.00    -0.088 HD
ENDBRANCH   1   2
BRANCH   1   8
ATOM      6  O   THR A   1      41.029 -24.549 -14.180  0.00  0.00    -0.248 OA
ATOM      7  OXT THR A   1      40.502 -26.189 -15.675  0.00  0.00    -0.248 OA
ATOM      8  C   THR A   1      40.253 -25.368 -14.744  0.00  0.00    +0.347 C 
ENDBRANCH   1   8
BRANCH   1   9
ATOM      9  CB  THR A   1      37.854 -24.380 -14.882  0.00  0.00    +0.101 C 
ATOM     10  CG2 THR A   1      37.147 -23.476 -13.877  0.00  0.00    +0.030 C 
BRANCH   9  11
ATOM     11  OG1 THR A   1      38.593 -23.566 -15.793  0.00  0.00    -0.386 OA
ATOM     12  HG1 THR A   1      38.256 -22.657 -15.759  0.00  0.00    +0.210 HD
ENDBRANCH   9  11
ENDBRANCH   1   9
TORSDOF 4
ENDMDL
MODEL 2
REMARK VINA RESULT:      -4.7      2.288      3.255
REMARK  Name = 6971050
REMARK  4 active torsions:
REMARK  status: ('A' for Active; 'I' for Inactive)
REMARK    1  A    between atoms: CA_1  and  N_2
REMARK    2  A    between atoms: CA_1  and  C_8
REMARK    3  A    between atoms: CA_1  and  CB_9
REMARK    4  A    between atoms: CB_9  and  OG1_11
REMARK                            x       y       z     vdW  Elec       q    Type
REMARK                         _______ _______ _______ _____ _____    ______ ____
ROOT
ATOM      1  CA  THR A   1      37.657 -26.472 -14.240  0.00  0.00    +0.068 C 
ENDROOT
BRANCH   1   2
ATOM      2  N   THR A   1      36.993 -26.433 -12.897  0.00  0.00    +0.390 N 
ATOM      3  H1  THR A   1      36.940 -25.468 -12.571  0.00  0.00    -0.088 HD
ATOM      4  H2  THR A   1      37.534 -26.987 -12.234  0.00  0.00    -0.088 HD
ATOM      5  H3  THR A   1      36.051 -26.818 -12.974  0.00  0.00    -0.088 HD
ENDBRANCH   1   2
BRANCH   1   8
ATOM      6  O   THR A   1      35.712 -25.644 -15.356  0.00  0.00    -0.248 OA
ATOM      7  OXT THR A   1      36.851 -27.402 -16.259  0.00  0.00    -0.248 OA
ATOM      8  C   THR A   1      36.633 -26.506 -15.392  0.00  0.00    +0.347 C 
ENDBRANCH   1   8
BRANCH   1   9
ATOM      9  CB  THR A   1      38.697 -25.345 -14.324  0.00  0.00    +0.101 C 
ATOM     10  CG2 THR A   1      40.140 -25.840 -14.330  0.00  0.00    +0.030 C 
BRANCH   9  11
ATOM     11  OG1 THR A   1      38.469 -24.578 -15.507  0.00  0.00    -0.386 OA
ATOM     12  HG1 THR A   1      37.546 -24.683 -15.786  0.00  0.00    +0.210 HD
ENDBRANCH   9  11
ENDBRANCH   1   9
TORSDOF 4
ENDMDL
MODEL 3
REMARK VINA RESULT:      -4.7      1.765      2.270
REMARK  Name = 6971050
REMARK  4 active torsions:
REMARK  status: ('A' for Active; 'I' for Inactive)
REMARK    1  A    between atoms: CA_1  and  N_2
REMARK    2  A    between atoms: CA_1  and  C_8
REMARK    3  A    between atoms: CA_1  and  CB_9
REMARK    4  A    between atoms: CB_9  and  OG1_11
REMARK                            x       y       z     vdW  Elec       q    Type
REMARK                         _______ _______ _______ _____ _____    ______ ____
ROOT
ATOM      1  CA  THR A   1      38.756 -25.155 -14.694  0.00  0.00    +0.068 C 
ENDROOT
BRANCH   1   2
ATOM      2  N   THR A   1      38.594 -24.021 -15.661  0.00  0.00    +0.390 N 
ATOM      3  H1  THR A   1      37.622 -23.714 -15.664  0.00  0.00    -0.088 HD
ATOM      4  H2  THR A   1      38.857 -24.332 -16.596  0.00  0.00    -0.088 HD
ATOM      5  H3  THR A   1      39.195 -23.247 -15.378  0.00  0.00    -0.088 HD
ENDBRANCH   1   2
BRANCH   1   8
ATOM      6  O   THR A   1      40.417 -26.866 -14.539  0.00  0.00    -0.248 OA
ATOM      7  OXT THR A   1      41.070 -24.681 -14.574  0.00  0.00    -0.248 OA
ATOM      8  C   THR A   1      40.222 -25.621 -14.587  0.00  0.00    +0.347 C 
ENDBRANCH   1   8
BRANCH   1   9
ATOM      9  CB  THR A   1      38.090 -24.783 -13.360  0.00  0.00    +0.101 C 
ATOM     10  CG2 THR A   1      37.549 -25.983 -12.588  0.00  0.00    +0.030 C 
BRANCH   9  11
ATOM     11  OG1 THR A   1      39.032 -24.094 -12.538  0.00  0.00    -0.386 OA
ATOM     12  HG1 THR A   1      39.197 -23.211 -12.906  0.00  0.00    +0.210 HD
ENDBRANCH   9  11
ENDBRANCH   1   9
TORSDOF 4
ENDMDL
MODEL 4
REMARK VINA RESULT:      -4.7      4.144      4.956
REMARK  Name = 6971050
REMARK  4 active torsions:
REMARK  status: ('A' for Active; 'I' for Inactive)
REMARK    1  A    between atoms: CA_1  and  N_2
REMARK    2  A    between atoms: CA_1  and  C_8
REMARK    3  A    between atoms: CA_1  and  CB_9
REMARK    4  A    between atoms: CB_9  and  OG1_11
REMARK                            x       y       z     vdW  Elec       q    Type
REMARK                         _______ _______ _______ _____ _____    ______ ____
ROOT
ATOM      1  CA  THR A   1      36.131 -24.474 -12.449  0.00  0.00    +0.068 C 
ENDROOT
BRANCH   1   2
ATOM      2  N   THR A   1      34.748 -24.703 -12.978  0.00  0.00    +0.390 N 
ATOM      3  H1  THR A   1      34.242 -25.325 -12.347  0.00  0.00    -0.088 HD
ATOM      4  H2  THR A   1      34.803 -25.128 -13.903  0.00  0.00    -0.088 HD
ATOM      5  H3  THR A   1      34.257 -23.811 -13.041  0.00  0.00    -0.088 HD
ENDBRANCH   1   2
BRANCH   1   8
ATOM      6  O   THR A   1      35.346 -24.831 -10.220  0.00  0.00    -0.248 OA
ATOM      7  OXT THR A   1      36.940 -23.244 -10.598  0.00  0.00    -0.248 OA
ATOM      8  C   THR A   1      36.130 -24.154 -10.940  0.00  0.00    +0.347 C 
ENDBRANCH   1   8
BRANCH   1   9
ATOM      9  CB  THR A   1      37.035 -25.643 -12.868  0.00  0.00    +0.101 C 
ATOM     10  CG2 THR A   1      38.477 -25.232 -13.154  0.00  0.00    +0.030 C 
BRANCH   9  11
ATOM     11  OG1 THR A   1      37.035 -26.633 -11.840  0.00  0.00    -0.386 OA
ATOM     12  HG1 THR A   1      37.160 -26.203 -10.979  0.00  0.00    +0.210 HD
ENDBRANCH   9  11
ENDBRANCH   1   9
TORSDOF 4
ENDMDL
MODEL 5
REMARK VINA RESULT:      -4.5      2.991      3.400
REMARK  Name = 6971050
REMARK  4 active torsions:
REMARK  status: ('A' for Active; 'I' for Inactive)
REMARK    1  A    between atoms: CA_1  and  N_2
REMARK    2  A    between atoms: CA_1  and  C_8
REMARK    3  A    between atoms: CA_1  and  CB_9
REMARK    4  A    between atoms: CB_9  and  OG1_11
REMARK                            x       y       z     vdW  Elec       q    Type
REMARK                         _______ _______ _______ _____ _____    ______ ____
ROOT
ATOM      1  CA  THR A   1      37.040 -25.307 -14.101  0.00  0.00    +0.068 C 
ENDROOT
BRANCH   1   2
ATOM      2  N   THR A   1      37.657 -24.103 -14.746  0.00  0.00    +0.390 N 
ATOM      3  H1  THR A   1      37.466 -23.278 -14.177  0.00  0.00    -0.088 HD
ATOM      4  H2  THR A   1      37.260 -23.975 -15.676  0.00  0.00    -0.088 HD
ATOM      5  H3  THR A   1      38.665 -24.238 -14.821  0.00  0.00    -0.088 HD
ENDBRANCH   1   2
BRANCH   1   8
ATOM      6  O   THR A   1      38.192 -27.303 -14.735  0.00  0.00    -0.248 OA
ATOM      7  OXT THR A   1      36.269 -26.735 -15.821  0.00  0.00    -0.248 OA
ATOM      8  C   THR A   1      37.192 -26.572 -14.970  0.00  0.00    +0.347 C 
ENDBRANCH   1   8
BRANCH   1   9
ATOM      9  CB  THR A   1      37.564 -25.437 -12.663  0.00  0.00    +0.101 C 
ATOM     10  CG2 THR A   1      37.404 -24.166 -11.834  0.00  0.00    +0.030 C 
BRANCH   9  11
ATOM     11  OG1 THR A   1      36.881 -26.504 -12.005  0.00  0.00    -0.386 OA
ATOM     12  HG1 THR A   1      36.980 -27.318 -12.523  0.00  0.00    +0.210 HD
ENDBRANCH   9  11
ENDBRANCH   1   9
TORSDOF 4
ENDMDL
MODEL 6
REMARK VINA RESULT:      -4.5      9.615     10.746
REMARK  Name = 6971050
REMARK  4 active torsions:
REMARK  status: ('A' for Active; 'I' for Inactive)
REMARK    1  A    between atoms: CA_1  and  N_2
REMARK    2  A    between atoms: CA_1  and  C_8
REMARK    3  A    between atoms: CA_1  and  CB_9
REMARK    4  A    between atoms: CB_9  and  OG1_11
REMARK                            x       y       z     vdW  Elec       q    Type
REMARK                         _______ _______ _______ _____ _____    ______ ____
ROOT
ATOM      1  CA  THR A   1      29.375 -23.084 -16.149  0.00  0.00    +0.068 C 
ENDROOT
BRANCH   1   2
ATOM      2  N   THR A   1      30.604 -22.635 -16.880  0.00  0.00    +0.390 N 
ATOM      3  H1  THR A   1      31.355 -23.309 -16.730  0.00  0.00    -0.088 HD
ATOM      4  H2  THR A   1      30.892 -21.721 -16.533  0.00  0.00    -0.088 HD
ATOM      5  H3  THR A   1      30.400 -22.572 -17.878  0.00  0.00    -0.088 HD
ENDBRANCH   1   2
BRANCH   1   8
ATOM      6  O   THR A   1      27.628 -21.714 -17.032  0.00  0.00    -0.248 OA
ATOM      7  OXT THR A   1      27.670 -23.934 -17.549  0.00  0.00    -0.248 OA
ATOM      8  C   THR A   1      28.096 -22.884 -16.986  0.00  0.00    +0.347 C 
ENDBRANCH   1   8
BRANCH   1   9
ATOM      9  CB  THR A   1      29.592 -24.510 -15.620  0.00  0.00    +0.101 C 
ATOM     10  CG2 THR A   1      30.819 -24.652 -14.723  0.00  0.00    +0.030 C 
BRANCH   9  11
ATOM     11  OG1 THR A   1      28.438 -24.924 -14.889  0.00  0.00    -0.386 OA
ATOM     12  HG1 THR A   1      28.242 -25.852 -15.094  0.00  0.00    +0.210 HD
ENDBRANCH   9  11
ENDBRANCH   1   9
TORSDOF 4
ENDMDL
MODEL 7
REMARK VINA RESULT:      -4.5      2.874      3.471
REMARK  Name = 6971050
REMARK  4 active torsions:
REMARK  status: ('A' for Active; 'I' for Inactive)
REMARK    1  A    between atoms: CA_1  and  N_2
REMARK    2  A    between atoms: CA_1  and  C_8
REMARK    3  A    between atoms: CA_1  and  CB_9
REMARK    4  A    between atoms: CB_9  and  OG1_11
REMARK                            x       y       z     vdW  Elec       q    Type
REMARK                         _______ _______ _______ _____ _____    ______ ____
ROOT
ATOM      1  CA  THR A   1      37.369 -25.115 -13.701  0.00  0.00    +0.068 C 
ENDROOT
BRANCH   1   2
ATOM      2  N   THR A   1      36.026 -25.429 -14.287  0.00  0.00    +0.390 N 
ATOM      3  H1  THR A   1      35.574 -26.155 -13.731  0.00  0.00    -0.088 HD
ATOM      4  H2  THR A   1      36.141 -25.757 -15.245  0.00  0.00    -0.088 HD
ATOM      5  H3  THR A   1      35.449 -24.588 -14.281  0.00  0.00    -0.088 HD
ENDBRANCH   1   2
BRANCH   1   8
ATOM      6  O   THR A   1      37.852 -24.507 -11.440  0.00  0.00    -0.248 OA
ATOM      7  OXT THR A   1      37.031 -26.589 -11.883  0.00  0.00    -0.248 OA
ATOM      8  C   THR A   1      37.431 -25.428 -12.192  0.00  0.00    +0.347 C 
ENDBRANCH   1   8
BRANCH   1   9
ATOM      9  CB  THR A   1      38.462 -25.779 -14.551  0.00  0.00    +0.101 C 
ATOM     10  CG2 THR A   1      39.877 -25.532 -14.035  0.00  0.00    +0.030 C 
BRANCH   9  11
ATOM     11  OG1 THR A   1      38.231 -27.187 -14.602  0.00  0.00    -0.386 OA
ATOM     12  HG1 THR A   1      38.280 -27.489 -15.523  0.00  0.00    +0.210 HD
ENDBRANCH   9  11
ENDBRANCH   1   9
TORSDOF 4
ENDMDL
MODEL 8
REMARK VINA RESULT:      -4.5     10.291     10.818
REMARK  Name = 6971050
REMARK  4 active torsions:
REMARK  status: ('A' for Active; 'I' for Inactive)
REMARK    1  A    between atoms: CA_1  and  N_2
REMARK    2  A    between atoms: CA_1  and  C_8
REMARK    3  A    between atoms: CA_1  and  CB_9
REMARK    4  A    between atoms: CB_9  and  OG1_11
REMARK                            x       y       z     vdW  Elec       q    Type
REMARK                         _______ _______ _______ _____ _____    ______ ____
ROOT
ATOM      1  CA  THR A   1      41.584 -14.449 -15.763  0.00  0.00    +0.068 C 
ENDROOT
BRANCH   1   2
ATOM      2  N   THR A   1      40.570 -13.960 -14.774  0.00  0.00    +0.390 N 
ATOM      3  H1  THR A   1      40.137 -14.757 -14.308  0.00  0.00    -0.088 HD
ATOM      4  H2  THR A   1      39.854 -13.420 -15.260  0.00  0.00    -0.088 HD
ATOM      5  H3  THR A   1      41.030 -13.370 -14.081  0.00  0.00    -0.088 HD
ENDBRANCH   1   2
BRANCH   1   8
ATOM      6  O   THR A   1      42.697 -16.540 -16.083  0.00  0.00    -0.248 OA
ATOM      7  OXT THR A   1      40.441 -16.519 -15.753  0.00  0.00    -0.248 OA
ATOM      8  C   THR A   1      41.581 -15.987 -15.884  0.00  0.00    +0.347 C 
ENDBRANCH   1   8
BRANCH   1   9
ATOM      9  CB  THR A   1      41.409 -13.690 -17.087  0.00  0.00    +0.101 C 
ATOM     10  CG2 THR A   1      42.576 -12.767 -17.425  0.00  0.00    +0.030 C 
BRANCH   9  11
ATOM     11  OG1 THR A   1      41.242 -14.627 -18.151  0.00  0.00    -0.386 OA
ATOM     12  HG1 THR A   1      41.248 -14.156 -18.999  0.00  0.00    +0.210 HD
ENDBRANCH   9  11
ENDBRANCH   1   9
TORSDOF 4
ENDMDL
MODEL 9
REMARK VINA RESULT:      -4.5      2.058      2.341
REMARK  Name = 6971050
REMARK  4 active torsions:
REMARK  status: ('A' for Active; 'I' for Inactive)
REMARK    1  A    between atoms: CA_1  and  N_2
REMARK    2  A    between atoms: CA_1  and  C_8
REMARK    3  A    between atoms: CA_1  and  CB_9
REMARK    4  A    between atoms: CB_9  and  OG1_11
REMARK                            x       y       z     vdW  Elec       q    Type
REMARK                         _______ _______ _______ _____ _____    ______ ____
ROOT
ATOM      1  CA  THR A   1      38.158 -25.441 -12.652  0.00  0.00    +0.068 C 
ENDROOT
BRANCH   1   2
ATOM      2  N   THR A   1      36.914 -26.246 -12.880  0.00  0.00    +0.390 N 
ATOM      3  H1  THR A   1      36.166 -25.889 -12.286  0.00  0.00    -0.088 HD
ATOM      4  H2  THR A   1      37.094 -27.222 -12.651  0.00  0.00    -0.088 HD
ATOM      5  H3  THR A   1      36.637 -26.170 -13.858  0.00  0.00    -0.088 HD
ENDBRANCH   1   2
BRANCH   1   8
ATOM      6  O   THR A   1      40.109 -24.770 -13.859  0.00  0.00    -0.248 OA
ATOM      7  OXT THR A   1      38.975 -26.635 -14.523  0.00  0.00    -0.248 OA
ATOM      8  C   THR A   1      39.183 -25.624 -13.790  0.00  0.00    +0.347 C 
ENDBRANCH   1   8
BRANCH   1   9
ATOM      9  CB  THR A   1      37.773 -23.986 -12.348  0.00  0.00    +0.101 C 
ATOM     10  CG2 THR A   1      36.513 -23.849 -11.497  0.00  0.00    +0.030 C 
BRANCH   9  11
ATOM     11  OG1 THR A   1      38.854 -23.341 -11.675  0.00  0.00    -0.386 OA
ATOM     12  HG1 THR A   1      38.995 -23.763 -10.813  0.00  0.00    +0.210 HD
ENDBRANCH   9  11
ENDBRANCH   1   9
TORSDOF 4
ENDMDL
