MODEL 1
REMARK VINA RESULT:      -5.5      0.000      0.000
REMARK  Name = 445375
REMARK  5 active torsions:
REMARK  status: ('A' for Active; 'I' for Inactive)
REMARK    1  A    between atoms: C_1  and  C_4
REMARK    2  A    between atoms: C_1  and  P_8
REMARK    3  A    between atoms: N_3  and  O_6
REMARK    4  A    between atoms: P_8  and  O_10
REMARK    5  A    between atoms: P_8  and  O_12
REMARK                            x       y       z     vdW  Elec       q    Type
REMARK                         _______ _______ _______ _____ _____    ______ ____
ROOT
ATOM      1  C   UNL     1      37.891 -24.852 -13.746  0.00  0.00    +0.202 C 
ENDROOT
BRANCH   1   4
ATOM      2  O   UNL     1      38.978 -26.777 -14.682  0.00  0.00    -0.272 OA
ATOM      3  N   UNL     1      36.858 -26.214 -15.415  0.00  0.00    -0.196 N 
ATOM      4  C   UNL     1      37.988 -26.050 -14.655  0.00  0.00    +0.257 C 
ATOM      5  H   UNL     1      36.092 -25.599 -15.352  0.00  0.00    +0.182 HD
BRANCH   3   6
ATOM      6  O   UNL     1      36.863 -27.311 -16.286  0.00  0.00    -0.295 OA
ATOM      7  H   UNL     1      37.724 -27.368 -16.730  0.00  0.00    +0.241 HD
ENDBRANCH   3   6
ENDBRANCH   1   4
BRANCH   1   8
ATOM      8  P   UNL     1      36.834 -25.105 -12.308  0.00  0.00    +0.346 P 
ATOM      9  O   UNL     1      37.209 -24.271 -11.132  0.00  0.00    -0.258 OA
BRANCH   8  10
ATOM     10  O   UNL     1      36.906 -26.701 -12.096  0.00  0.00    -0.323 OA
ATOM     11  H   UNL     1      36.142 -27.119 -12.524  0.00  0.00    +0.220 HD
ENDBRANCH   8  10
BRANCH   8  12
ATOM     12  O   UNL     1      35.359 -24.861 -12.908  0.00  0.00    -0.323 OA
ATOM     13  H   UNL     1      35.159 -23.912 -12.900  0.00  0.00    +0.220 HD
ENDBRANCH   8  12
ENDBRANCH   1   8
TORSDOF 5
ENDMDL
MODEL 2
REMARK VINA RESULT:      -5.5      1.368      2.188
REMARK  Name = 445375
REMARK  5 active torsions:
REMARK  status: ('A' for Active; 'I' for Inactive)
REMARK    1  A    between atoms: C_1  and  C_4
REMARK    2  A    between atoms: C_1  and  P_8
REMARK    3  A    between atoms: N_3  and  O_6
REMARK    4  A    between atoms: P_8  and  O_10
REMARK    5  A    between atoms: P_8  and  O_12
REMARK                            x       y       z     vdW  Elec       q    Type
REMARK                         _______ _______ _______ _____ _____    ______ ____
ROOT
ATOM      1  C   UNL     1      36.929 -24.547 -13.857  0.00  0.00    +0.202 C 
ENDROOT
BRANCH   1   4
ATOM      2  O   UNL     1      35.469 -25.011 -15.705  0.00  0.00    -0.272 OA
ATOM      3  N   UNL     1      37.206 -26.467 -15.250  0.00  0.00    -0.196 N 
ATOM      4  C   UNL     1      36.441 -25.349 -15.035  0.00  0.00    +0.257 C 
ATOM      5  H   UNL     1      37.977 -26.691 -14.679  0.00  0.00    +0.182 HD
BRANCH   3   6
ATOM      6  O   UNL     1      36.824 -27.269 -16.333  0.00  0.00    -0.295 OA
ATOM      7  H   UNL     1      35.976 -27.698 -16.134  0.00  0.00    +0.241 HD
ENDBRANCH   3   6
ENDBRANCH   1   4
BRANCH   1   8
ATOM      8  P   UNL     1      37.903 -25.496 -12.674  0.00  0.00    +0.346 P 
ATOM      9  O   UNL     1      39.178 -26.024 -13.233  0.00  0.00    -0.258 OA
BRANCH   8  10
ATOM     10  O   UNL     1      36.847 -26.596 -12.154  0.00  0.00    -0.323 OA
ATOM     11  H   UNL     1      36.572 -27.157 -12.896  0.00  0.00    +0.220 HD
ENDBRANCH   8  10
BRANCH   8  12
ATOM     12  O   UNL     1      38.041 -24.476 -11.434  0.00  0.00    -0.323 OA
ATOM     13  H   UNL     1      37.166 -24.128 -11.202  0.00  0.00    +0.220 HD
ENDBRANCH   8  12
ENDBRANCH   1   8
TORSDOF 5
ENDMDL
MODEL 3
REMARK VINA RESULT:      -5.5      2.934      3.971
REMARK  Name = 445375
REMARK  5 active torsions:
REMARK  status: ('A' for Active; 'I' for Inactive)
REMARK    1  A    between atoms: C_1  and  C_4
REMARK    2  A    between atoms: C_1  and  P_8
REMARK    3  A    between atoms: N_3  and  O_6
REMARK    4  A    between atoms: P_8  and  O_10
REMARK    5  A    between atoms: P_8  and  O_12
REMARK                            x       y       z     vdW  Elec       q    Type
REMARK                         _______ _______ _______ _____ _____    ______ ____
ROOT
ATOM      1  C   UNL     1      38.719 -25.999 -14.022  0.00  0.00    +0.202 C 
ENDROOT
BRANCH   1   4
ATOM      2  O   UNL     1      36.780 -26.038 -15.436  0.00  0.00    -0.272 OA
ATOM      3  N   UNL     1      38.024 -24.094 -15.286  0.00  0.00    -0.196 N 
ATOM      4  C   UNL     1      37.730 -25.401 -14.989  0.00  0.00    +0.257 C 
ATOM      5  H   UNL     1      38.802 -23.632 -14.897  0.00  0.00    +0.182 HD
BRANCH   3   6
ATOM      6  O   UNL     1      37.149 -23.459 -16.176  0.00  0.00    -0.295 OA
ATOM      7  H   UNL     1      36.350 -23.999 -16.284  0.00  0.00    +0.241 HD
ENDBRANCH   3   6
ENDBRANCH   1   4
BRANCH   1   8
ATOM      8  P   UNL     1      40.431 -25.920 -14.580  0.00  0.00    +0.346 P 
ATOM      9  O   UNL     1      41.289 -27.012 -14.041  0.00  0.00    -0.258 OA
BRANCH   8  10
ATOM     10  O   UNL     1      40.862 -24.420 -14.181  0.00  0.00    -0.323 OA
ATOM     11  H   UNL     1      40.523 -24.211 -13.296  0.00  0.00    +0.220 HD
ENDBRANCH   8  10
BRANCH   8  12
ATOM     12  O   UNL     1      40.277 -25.866 -16.182  0.00  0.00    -0.323 OA
ATOM     13  H   UNL     1      40.618 -26.688 -16.568  0.00  0.00    +0.220 HD
ENDBRANCH   8  12
ENDBRANCH   1   8
TORSDOF 5
ENDMDL
MODEL 4
REMARK VINA RESULT:      -5.4      7.980      9.187
REMARK  Name = 445375
REMARK  5 active torsions:
REMARK  status: ('A' for Active; 'I' for Inactive)
REMARK    1  A    between atoms: C_1  and  C_4
REMARK    2  A    between atoms: C_1  and  P_8
REMARK    3  A    between atoms: N_3  and  O_6
REMARK    4  A    between atoms: P_8  and  O_10
REMARK    5  A    between atoms: P_8  and  O_12
REMARK                            x       y       z     vdW  Elec       q    Type
REMARK                         _______ _______ _______ _____ _____    ______ ____
ROOT
ATOM      1  C   UNL     1      28.812 -24.422 -15.825  0.00  0.00    +0.202 C 
ENDROOT
BRANCH   1   4
ATOM      2  O   UNL     1      30.246 -23.025 -14.500  0.00  0.00    -0.272 OA
ATOM      3  N   UNL     1      30.048 -25.265 -13.963  0.00  0.00    -0.196 N 
ATOM      4  C   UNL     1      29.778 -24.142 -14.703  0.00  0.00    +0.257 C 
ATOM      5  H   UNL     1      29.644 -26.138 -14.171  0.00  0.00    +0.182 HD
BRANCH   3   6
ATOM      6  O   UNL     1      30.936 -25.092 -12.893  0.00  0.00    -0.295 OA
ATOM      7  H   UNL     1      30.596 -25.556 -12.112  0.00  0.00    +0.241 HD
ENDBRANCH   3   6
ENDBRANCH   1   4
BRANCH   1   8
ATOM      8  P   UNL     1      28.301 -22.954 -16.738  0.00  0.00    +0.346 P 
ATOM      9  O   UNL     1      27.356 -23.238 -17.853  0.00  0.00    -0.258 OA
BRANCH   8  10
ATOM     10  O   UNL     1      29.710 -22.293 -17.156  0.00  0.00    -0.323 OA
ATOM     11  H   UNL     1      29.711 -22.109 -18.108  0.00  0.00    +0.220 HD
ENDBRANCH   8  10
BRANCH   8  12
ATOM     12  O   UNL     1      27.752 -21.988 -15.572  0.00  0.00    -0.323 OA
ATOM     13  H   UNL     1      28.072 -22.303 -14.712  0.00  0.00    +0.220 HD
ENDBRANCH   8  12
ENDBRANCH   1   8
TORSDOF 5
ENDMDL
MODEL 5
REMARK VINA RESULT:      -5.3      2.169      2.742
REMARK  Name = 445375
REMARK  5 active torsions:
REMARK  status: ('A' for Active; 'I' for Inactive)
REMARK    1  A    between atoms: C_1  and  C_4
REMARK    2  A    between atoms: C_1  and  P_8
REMARK    3  A    between atoms: N_3  and  O_6
REMARK    4  A    between atoms: P_8  and  O_10
REMARK    5  A    between atoms: P_8  and  O_12
REMARK                            x       y       z     vdW  Elec       q    Type
REMARK                         _______ _______ _______ _____ _____    ______ ____
ROOT
ATOM      1  C   UNL     1      37.597 -25.144 -13.861  0.00  0.00    +0.202 C 
ENDROOT
BRANCH   1   4
ATOM      2  O   UNL     1      38.548 -27.217 -14.612  0.00  0.00    -0.272 OA
ATOM      3  N   UNL     1      39.491 -25.225 -15.314  0.00  0.00    -0.196 N 
ATOM      4  C   UNL     1      38.584 -25.989 -14.624  0.00  0.00    +0.257 C 
ATOM      5  H   UNL     1      39.473 -24.242 -15.289  0.00  0.00    +0.182 HD
BRANCH   3   6
ATOM      6  O   UNL     1      40.444 -25.934 -16.058  0.00  0.00    -0.295 OA
ATOM      7  H   UNL     1      41.151 -26.241 -15.468  0.00  0.00    +0.241 HD
ENDBRANCH   3   6
ENDBRANCH   1   4
BRANCH   1   8
ATOM      8  P   UNL     1      36.075 -24.798 -14.762  0.00  0.00    +0.346 P 
ATOM      9  O   UNL     1      35.007 -24.183 -13.925  0.00  0.00    -0.258 OA
BRANCH   8  10
ATOM     10  O   UNL     1      35.723 -26.227 -15.419  0.00  0.00    -0.323 OA
ATOM     11  H   UNL     1      34.761 -26.316 -15.504  0.00  0.00    +0.220 HD
ENDBRANCH   8  10
BRANCH   8  12
ATOM     12  O   UNL     1      36.594 -23.917 -16.006  0.00  0.00    -0.323 OA
ATOM     13  H   UNL     1      37.056 -23.131 -15.676  0.00  0.00    +0.220 HD
ENDBRANCH   8  12
ENDBRANCH   1   8
TORSDOF 5
ENDMDL
MODEL 6
REMARK VINA RESULT:      -5.3      1.971      3.626
REMARK  Name = 445375
REMARK  5 active torsions:
REMARK  status: ('A' for Active; 'I' for Inactive)
REMARK    1  A    between atoms: C_1  and  C_4
REMARK    2  A    between atoms: C_1  and  P_8
REMARK    3  A    between atoms: N_3  and  O_6
REMARK    4  A    between atoms: P_8  and  O_10
REMARK    5  A    between atoms: P_8  and  O_12
REMARK                            x       y       z     vdW  Elec       q    Type
REMARK                         _______ _______ _______ _____ _____    ______ ____
ROOT
ATOM      1  C   UNL     1      38.862 -25.206 -13.052  0.00  0.00    +0.202 C 
ENDROOT
BRANCH   1   4
ATOM      2  O   UNL     1      37.028 -26.378 -12.038  0.00  0.00    -0.272 OA
ATOM      3  N   UNL     1      36.604 -24.910 -13.773  0.00  0.00    -0.196 N 
ATOM      4  C   UNL     1      37.411 -25.575 -12.885  0.00  0.00    +0.257 C 
ATOM      5  H   UNL     1      36.965 -24.275 -14.433  0.00  0.00    +0.182 HD
BRANCH   3   6
ATOM      6  O   UNL     1      35.234 -25.191 -13.682  0.00  0.00    -0.295 OA
ATOM      7  H   UNL     1      34.759 -24.396 -13.394  0.00  0.00    +0.241 HD
ENDBRANCH   3   6
ENDBRANCH   1   4
BRANCH   1   8
ATOM      8  P   UNL     1      39.488 -25.430 -14.728  0.00  0.00    +0.346 P 
ATOM      9  O   UNL     1      40.933 -25.787 -14.786  0.00  0.00    -0.258 OA
BRANCH   8  10
ATOM     10  O   UNL     1      39.070 -24.049 -15.446  0.00  0.00    -0.323 OA
ATOM     11  H   UNL     1      39.835 -23.453 -15.469  0.00  0.00    +0.220 HD
ENDBRANCH   8  10
BRANCH   8  12
ATOM     12  O   UNL     1      38.465 -26.512 -15.344  0.00  0.00    -0.323 OA
ATOM     13  H   UNL     1      38.959 -27.292 -15.641  0.00  0.00    +0.220 HD
ENDBRANCH   8  12
ENDBRANCH   1   8
TORSDOF 5
ENDMDL
MODEL 7
REMARK VINA RESULT:      -5.3     11.440     12.356
REMARK  Name = 445375
REMARK  5 active torsions:
REMARK  status: ('A' for Active; 'I' for Inactive)
REMARK    1  A    between atoms: C_1  and  C_4
REMARK    2  A    between atoms: C_1  and  P_8
REMARK    3  A    between atoms: N_3  and  O_6
REMARK    4  A    between atoms: P_8  and  O_10
REMARK    5  A    between atoms: P_8  and  O_12
REMARK                            x       y       z     vdW  Elec       q    Type
REMARK                         _______ _______ _______ _____ _____    ______ ____
ROOT
ATOM      1  C   UNL     1      41.256 -14.575 -16.633  0.00  0.00    +0.202 C 
ENDROOT
BRANCH   1   4
ATOM      2  O   UNL     1      41.175 -15.699 -14.513  0.00  0.00    -0.272 OA
ATOM      3  N   UNL     1      40.933 -13.400 -14.578  0.00  0.00    -0.196 N 
ATOM      4  C   UNL     1      41.119 -14.640 -15.134  0.00  0.00    +0.257 C 
ATOM      5  H   UNL     1      40.896 -12.582 -15.125  0.00  0.00    +0.182 HD
BRANCH   3   6
ATOM      6  O   UNL     1      40.801 -13.369 -13.184  0.00  0.00    -0.295 OA
ATOM      7  H   UNL     1      39.980 -12.910 -12.947  0.00  0.00    +0.241 HD
ENDBRANCH   3   6
ENDBRANCH   1   4
BRANCH   1   8
ATOM      8  P   UNL     1      42.131 -15.977 -17.351  0.00  0.00    +0.346 P 
ATOM      9  O   UNL     1      42.323 -15.874 -18.825  0.00  0.00    -0.258 OA
BRANCH   8  10
ATOM     10  O   UNL     1      41.264 -17.234 -16.837  0.00  0.00    -0.323 OA
ATOM     11  H   UNL     1      40.633 -16.936 -16.163  0.00  0.00    +0.220 HD
ENDBRANCH   8  10
BRANCH   8  12
ATOM     12  O   UNL     1      43.475 -16.046 -16.465  0.00  0.00    -0.323 OA
ATOM     13  H   UNL     1      44.234 -15.780 -17.007  0.00  0.00    +0.220 HD
ENDBRANCH   8  12
ENDBRANCH   1   8
TORSDOF 5
ENDMDL
MODEL 8
REMARK VINA RESULT:      -5.3      2.015      2.079
REMARK  Name = 445375
REMARK  5 active torsions:
REMARK  status: ('A' for Active; 'I' for Inactive)
REMARK    1  A    between atoms: C_1  and  C_4
REMARK    2  A    between atoms: C_1  and  P_8
REMARK    3  A    between atoms: N_3  and  O_6
REMARK    4  A    between atoms: P_8  and  O_10
REMARK    5  A    between atoms: P_8  and  O_12
REMARK                            x       y       z     vdW  Elec       q    Type
REMARK                         _______ _______ _______ _____ _____    ______ ____
ROOT
ATOM      1  C   UNL     1      37.738 -24.301 -14.007  0.00  0.00    +0.202 C 
ENDROOT
BRANCH   1   4
ATOM      2  O   UNL     1      39.257 -26.084 -13.478  0.00  0.00    -0.272 OA
ATOM      3  N   UNL     1      39.402 -25.057 -15.545  0.00  0.00    -0.196 N 
ATOM      4  C   UNL     1      38.875 -25.248 -14.293  0.00  0.00    +0.257 C 
ATOM      5  H   UNL     1      39.055 -24.370 -16.159  0.00  0.00    +0.182 HD
BRANCH   3   6
ATOM      6  O   UNL     1      40.463 -25.902 -15.895  0.00  0.00    -0.295 OA
ATOM      7  H   UNL     1      40.728 -26.425 -15.122  0.00  0.00    +0.241 HD
ENDBRANCH   3   6
ENDBRANCH   1   4
BRANCH   1   8
ATOM      8  P   UNL     1      37.538 -23.900 -12.261  0.00  0.00    +0.346 P 
ATOM      9  O   UNL     1      38.709 -23.197 -11.668  0.00  0.00    -0.258 OA
BRANCH   8  10
ATOM     10  O   UNL     1      37.167 -25.328 -11.613  0.00  0.00    -0.323 OA
ATOM     11  H   UNL     1      36.435 -25.218 -10.985  0.00  0.00    +0.220 HD
ENDBRANCH   8  10
BRANCH   8  12
ATOM     12  O   UNL     1      36.144 -23.093 -12.243  0.00  0.00    -0.323 OA
ATOM     13  H   UNL     1      36.319 -22.143 -12.332  0.00  0.00    +0.220 HD
ENDBRANCH   8  12
ENDBRANCH   1   8
TORSDOF 5
ENDMDL
MODEL 9
REMARK VINA RESULT:      -5.3      2.088      3.882
REMARK  Name = 445375
REMARK  5 active torsions:
REMARK  status: ('A' for Active; 'I' for Inactive)
REMARK    1  A    between atoms: C_1  and  C_4
REMARK    2  A    between atoms: C_1  and  P_8
REMARK    3  A    between atoms: N_3  and  O_6
REMARK    4  A    between atoms: P_8  and  O_10
REMARK    5  A    between atoms: P_8  and  O_12
REMARK                            x       y       z     vdW  Elec       q    Type
REMARK                         _______ _______ _______ _____ _____    ______ ____
ROOT
ATOM      1  C   UNL     1      37.198 -24.605 -14.442  0.00  0.00    +0.202 C 
ENDROOT
BRANCH   1   4
ATOM      2  O   UNL     1      38.927 -24.512 -12.779  0.00  0.00    -0.272 OA
ATOM      3  N   UNL     1      37.023 -23.230 -12.496  0.00  0.00    -0.196 N 
ATOM      4  C   UNL     1      37.824 -24.127 -13.158  0.00  0.00    +0.257 C 
ATOM      5  H   UNL     1      36.145 -22.955 -12.846  0.00  0.00    +0.182 HD
BRANCH   3   6
ATOM      6  O   UNL     1      37.534 -22.730 -11.291  0.00  0.00    -0.295 OA
ATOM      7  H   UNL     1      37.143 -21.860 -11.111  0.00  0.00    +0.241 HD
ENDBRANCH   3   6
ENDBRANCH   1   4
BRANCH   1   8
ATOM      8  P   UNL     1      37.208 -26.396 -14.641  0.00  0.00    +0.346 P 
ATOM      9  O   UNL     1      36.346 -26.881 -15.755  0.00  0.00    -0.258 OA
BRANCH   8  10
ATOM     10  O   UNL     1      36.818 -26.916 -13.166  0.00  0.00    -0.323 OA
ATOM     11  H   UNL     1      37.516 -26.664 -12.541  0.00  0.00    +0.220 HD
ENDBRANCH   8  10
BRANCH   8  12
ATOM     12  O   UNL     1      38.779 -26.728 -14.766  0.00  0.00    -0.323 OA
ATOM     13  H   UNL     1      38.901 -27.685 -14.862  0.00  0.00    +0.220 HD
ENDBRANCH   8  12
ENDBRANCH   1   8
TORSDOF 5
ENDMDL
