MODEL 1
REMARK VINA RESULT:      -5.6      0.000      0.000
REMARK  Name = 5206
REMARK  4 active torsions:
REMARK  status: ('A' for Active; 'I' for Inactive)
REMARK    1  A    between atoms: C_1  and  C_5
REMARK    2  A    between atoms: C_1  and  C_9
REMARK    3  A    between atoms: C_1  and  O_10
REMARK    4  A    between atoms: O_10  and  C_12
REMARK                            x       y       z     vdW  Elec       q    Type
REMARK                         _______ _______ _______ _____ _____    ______ ____
ROOT
ATOM      1  C   UNL     1      34.624 -17.202 -22.646  0.00  0.00    +0.308 C 
ENDROOT
BRANCH   1   5
ATOM      2  F   UNL     1      36.268 -18.536 -23.701  0.00  0.00    -0.167 F 
ATOM      3  F   UNL     1      34.393 -19.497 -23.150  0.00  0.00    -0.167 F 
ATOM      4  F   UNL     1      34.452 -18.108 -24.833  0.00  0.00    -0.167 F 
ATOM      5  C   UNL     1      34.937 -18.341 -23.594  0.00  0.00    +0.431 C 
ENDBRANCH   1   5
BRANCH   1   9
ATOM      6  F   UNL     1      35.012 -16.410 -20.456  0.00  0.00    -0.167 F 
ATOM      7  F   UNL     1      36.164 -18.145 -21.107  0.00  0.00    -0.167 F 
ATOM      8  F   UNL     1      34.037 -18.346 -20.662  0.00  0.00    -0.167 F 
ATOM      9  C   UNL     1      34.966 -17.532 -21.209  0.00  0.00    +0.431 C 
ENDBRANCH   1   9
BRANCH   1  10
ATOM     10  O   UNL     1      35.377 -16.056 -23.031  0.00  0.00    -0.309 OA
BRANCH  10  12
ATOM     11  F   UNL     1      33.262 -15.427 -23.489  0.00  0.00    -0.198 F 
ATOM     12  C   UNL     1      34.537 -14.972 -23.392  0.00  0.00    +0.341 C 
ENDBRANCH  10  12
ENDBRANCH   1  10
TORSDOF 4
ENDMDL
MODEL 2
REMARK VINA RESULT:      -5.6      0.123      1.123
REMARK  Name = 5206
REMARK  4 active torsions:
REMARK  status: ('A' for Active; 'I' for Inactive)
REMARK    1  A    between atoms: C_1  and  C_5
REMARK    2  A    between atoms: C_1  and  C_9
REMARK    3  A    between atoms: C_1  and  O_10
REMARK    4  A    between atoms: O_10  and  C_12
REMARK                            x       y       z     vdW  Elec       q    Type
REMARK                         _______ _______ _______ _____ _____    ______ ____
ROOT
ATOM      1  C   UNL     1      34.650 -17.201 -22.651  0.00  0.00    +0.308 C 
ENDROOT
BRANCH   1   5
ATOM      2  F   UNL     1      34.450 -19.487 -23.224  0.00  0.00    -0.167 F 
ATOM      3  F   UNL     1      34.701 -18.059 -24.850  0.00  0.00    -0.167 F 
ATOM      4  F   UNL     1      36.389 -18.541 -23.553  0.00  0.00    -0.167 F 
ATOM      5  C   UNL     1      35.055 -18.332 -23.574  0.00  0.00    +0.431 C 
ENDBRANCH   1   5
BRANCH   1   9
ATOM      6  F   UNL     1      34.934 -16.379 -20.456  0.00  0.00    -0.167 F 
ATOM      7  F   UNL     1      36.120 -18.119 -21.030  0.00  0.00    -0.167 F 
ATOM      8  F   UNL     1      33.975 -18.322 -20.682  0.00  0.00    -0.167 F 
ATOM      9  C   UNL     1      34.926 -17.511 -21.195  0.00  0.00    +0.431 C 
ENDBRANCH   1   9
BRANCH   1  10
ATOM     10  O   UNL     1      35.380 -16.029 -23.003  0.00  0.00    -0.309 OA
BRANCH  10  12
ATOM     11  F   UNL     1      33.237 -15.408 -23.323  0.00  0.00    -0.198 F 
ATOM     12  C   UNL     1      34.523 -14.984 -23.433  0.00  0.00    +0.341 C 
ENDBRANCH  10  12
ENDBRANCH   1  10
TORSDOF 4
ENDMDL
MODEL 3
REMARK VINA RESULT:      -5.5      1.327      2.264
REMARK  Name = 5206
REMARK  4 active torsions:
REMARK  status: ('A' for Active; 'I' for Inactive)
REMARK    1  A    between atoms: C_1  and  C_5
REMARK    2  A    between atoms: C_1  and  C_9
REMARK    3  A    between atoms: C_1  and  O_10
REMARK    4  A    between atoms: O_10  and  C_12
REMARK                            x       y       z     vdW  Elec       q    Type
REMARK                         _______ _______ _______ _____ _____    ______ ____
ROOT
ATOM      1  C   UNL     1      34.432 -16.823 -23.567  0.00  0.00    +0.308 C 
ENDROOT
BRANCH   1   5
ATOM      2  F   UNL     1      33.325 -16.162 -25.550  0.00  0.00    -0.167 F 
ATOM      3  F   UNL     1      35.412 -16.766 -25.713  0.00  0.00    -0.167 F 
ATOM      4  F   UNL     1      33.868 -18.267 -25.364  0.00  0.00    -0.167 F 
ATOM      5  C   UNL     1      34.254 -17.010 -25.060  0.00  0.00    +0.431 C 
ENDBRANCH   1   5
BRANCH   1   9
ATOM      6  F   UNL     1      35.623 -17.664 -21.710  0.00  0.00    -0.167 F 
ATOM      7  F   UNL     1      36.104 -18.504 -23.666  0.00  0.00    -0.167 F 
ATOM      8  F   UNL     1      34.219 -19.009 -22.690  0.00  0.00    -0.167 F 
ATOM      9  C   UNL     1      35.102 -18.010 -22.908  0.00  0.00    +0.431 C 
ENDBRANCH   1   9
BRANCH   1  10
ATOM     10  O   UNL     1      35.237 -15.671 -23.334  0.00  0.00    -0.309 OA
BRANCH  10  12
ATOM     11  F   UNL     1      34.249 -13.717 -23.867  0.00  0.00    -0.198 F 
ATOM     12  C   UNL     1      34.470 -14.583 -22.845  0.00  0.00    +0.341 C 
ENDBRANCH  10  12
ENDBRANCH   1  10
TORSDOF 4
ENDMDL
MODEL 4
REMARK VINA RESULT:      -5.5      9.546     10.972
REMARK  Name = 5206
REMARK  4 active torsions:
REMARK  status: ('A' for Active; 'I' for Inactive)
REMARK    1  A    between atoms: C_1  and  C_5
REMARK    2  A    between atoms: C_1  and  C_9
REMARK    3  A    between atoms: C_1  and  O_10
REMARK    4  A    between atoms: O_10  and  C_12
REMARK                            x       y       z     vdW  Elec       q    Type
REMARK                         _______ _______ _______ _____ _____    ______ ____
ROOT
ATOM      1  C   UNL     1      29.694 -23.802 -15.785  0.00  0.00    +0.308 C 
ENDROOT
BRANCH   1   5
ATOM      2  F   UNL     1      31.224 -22.419 -16.943  0.00  0.00    -0.167 F 
ATOM      3  F   UNL     1      31.148 -22.242 -14.773  0.00  0.00    -0.167 F 
ATOM      4  F   UNL     1      32.057 -24.001 -15.691  0.00  0.00    -0.167 F 
ATOM      5  C   UNL     1      31.044 -23.115 -15.800  0.00  0.00    +0.431 C 
ENDBRANCH   1   5
BRANCH   1   9
ATOM      6  F   UNL     1      30.220 -24.560 -13.612  0.00  0.00    -0.167 F 
ATOM      7  F   UNL     1      30.235 -26.041 -15.215  0.00  0.00    -0.167 F 
ATOM      8  F   UNL     1      28.343 -25.239 -14.481  0.00  0.00    -0.167 F 
ATOM      9  C   UNL     1      29.624 -24.923 -14.770  0.00  0.00    +0.431 C 
ENDBRANCH   1   9
BRANCH   1  10
ATOM     10  O   UNL     1      28.688 -22.846 -15.463  0.00  0.00    -0.309 OA
BRANCH  10  12
ATOM     11  F   UNL     1      28.129 -23.439 -17.564  0.00  0.00    -0.198 F 
ATOM     12  C   UNL     1      27.886 -22.527 -16.588  0.00  0.00    +0.341 C 
ENDBRANCH  10  12
ENDBRANCH   1  10
TORSDOF 4
ENDMDL
MODEL 5
REMARK VINA RESULT:      -5.5      0.945      2.993
REMARK  Name = 5206
REMARK  4 active torsions:
REMARK  status: ('A' for Active; 'I' for Inactive)
REMARK    1  A    between atoms: C_1  and  C_5
REMARK    2  A    between atoms: C_1  and  C_9
REMARK    3  A    between atoms: C_1  and  O_10
REMARK    4  A    between atoms: O_10  and  C_12
REMARK                            x       y       z     vdW  Elec       q    Type
REMARK                         _______ _______ _______ _____ _____    ______ ____
ROOT
ATOM      1  C   UNL     1      35.052 -16.798 -22.640  0.00  0.00    +0.308 C 
ENDROOT
BRANCH   1   5
ATOM      2  F   UNL     1      35.648 -18.191 -20.823  0.00  0.00    -0.167 F 
ATOM      3  F   UNL     1      35.018 -16.157 -20.368  0.00  0.00    -0.167 F 
ATOM      4  F   UNL     1      33.546 -17.636 -21.008  0.00  0.00    -0.167 F 
ATOM      5  C   UNL     1      34.810 -17.202 -21.200  0.00  0.00    +0.431 C 
ENDBRANCH   1   5
BRANCH   1   9
ATOM      6  F   UNL     1      35.165 -17.616 -24.851  0.00  0.00    -0.167 F 
ATOM      7  F   UNL     1      34.297 -18.934 -23.345  0.00  0.00    -0.167 F 
ATOM      8  F   UNL     1      36.447 -18.563 -23.368  0.00  0.00    -0.167 F 
ATOM      9  C   UNL     1      35.238 -17.990 -23.554  0.00  0.00    +0.431 C 
ENDBRANCH   1   9
BRANCH   1  10
ATOM     10  O   UNL     1      33.935 -16.048 -23.107  0.00  0.00    -0.309 OA
BRANCH  10  12
ATOM     11  F   UNL     1      34.749 -14.078 -22.372  0.00  0.00    -0.198 F 
ATOM     12  C   UNL     1      34.305 -14.729 -23.478  0.00  0.00    +0.341 C 
ENDBRANCH  10  12
ENDBRANCH   1  10
TORSDOF 4
ENDMDL
MODEL 6
REMARK VINA RESULT:      -5.4      2.192      3.221
REMARK  Name = 5206
REMARK  4 active torsions:
REMARK  status: ('A' for Active; 'I' for Inactive)
REMARK    1  A    between atoms: C_1  and  C_5
REMARK    2  A    between atoms: C_1  and  C_9
REMARK    3  A    between atoms: C_1  and  O_10
REMARK    4  A    between atoms: O_10  and  C_12
REMARK                            x       y       z     vdW  Elec       q    Type
REMARK                         _______ _______ _______ _____ _____    ______ ____
ROOT
ATOM      1  C   UNL     1      34.847 -19.238 -22.077  0.00  0.00    +0.308 C 
ENDROOT
BRANCH   1   5
ATOM      2  F   UNL     1      36.663 -19.690 -20.629  0.00  0.00    -0.167 F 
ATOM      3  F   UNL     1      37.031 -18.377 -22.328  0.00  0.00    -0.167 F 
ATOM      4  F   UNL     1      35.867 -17.659 -20.628  0.00  0.00    -0.167 F 
ATOM      5  C   UNL     1      36.109 -18.735 -21.406  0.00  0.00    +0.431 C 
ENDBRANCH   1   5
BRANCH   1   9
ATOM      6  F   UNL     1      33.141 -18.272 -20.761  0.00  0.00    -0.167 F 
ATOM      7  F   UNL     1      34.138 -20.039 -19.959  0.00  0.00    -0.167 F 
ATOM      8  F   UNL     1      32.748 -20.230 -21.630  0.00  0.00    -0.167 F 
ATOM      9  C   UNL     1      33.713 -19.451 -21.096  0.00  0.00    +0.431 C 
ENDBRANCH   1   9
BRANCH   1  10
ATOM     10  O   UNL     1      34.424 -18.285 -23.047  0.00  0.00    -0.309 OA
BRANCH  10  12
ATOM     11  F   UNL     1      34.996 -20.066 -24.305  0.00  0.00    -0.198 F 
ATOM     12  C   UNL     1      34.591 -18.772 -24.369  0.00  0.00    +0.341 C 
ENDBRANCH  10  12
ENDBRANCH   1  10
TORSDOF 4
ENDMDL
MODEL 7
REMARK VINA RESULT:      -5.4      1.804      3.801
REMARK  Name = 5206
REMARK  4 active torsions:
REMARK  status: ('A' for Active; 'I' for Inactive)
REMARK    1  A    between atoms: C_1  and  C_5
REMARK    2  A    between atoms: C_1  and  C_9
REMARK    3  A    between atoms: C_1  and  O_10
REMARK    4  A    between atoms: O_10  and  C_12
REMARK                            x       y       z     vdW  Elec       q    Type
REMARK                         _______ _______ _______ _____ _____    ______ ____
ROOT
ATOM      1  C   UNL     1      34.318 -18.290 -21.963  0.00  0.00    +0.308 C 
ENDROOT
BRANCH   1   5
ATOM      2  F   UNL     1      33.316 -16.376 -21.000  0.00  0.00    -0.167 F 
ATOM      3  F   UNL     1      35.351 -16.861 -20.393  0.00  0.00    -0.167 F 
ATOM      4  F   UNL     1      34.972 -16.048 -22.382  0.00  0.00    -0.167 F 
ATOM      5  C   UNL     1      34.490 -16.881 -21.436  0.00  0.00    +0.431 C 
ENDBRANCH   1   5
BRANCH   1   9
ATOM      6  F   UNL     1      35.008 -19.835 -23.610  0.00  0.00    -0.167 F 
ATOM      7  F   UNL     1      36.492 -18.398 -22.907  0.00  0.00    -0.167 F 
ATOM      8  F   UNL     1      34.860 -17.744 -24.199  0.00  0.00    -0.167 F 
ATOM      9  C   UNL     1      35.180 -18.566 -23.176  0.00  0.00    +0.431 C 
ENDBRANCH   1   9
BRANCH   1  10
ATOM     10  O   UNL     1      34.676 -19.217 -20.942  0.00  0.00    -0.309 OA
BRANCH  10  12
ATOM     11  F   UNL     1      32.466 -19.342 -20.519  0.00  0.00    -0.198 F 
ATOM     12  C   UNL     1      33.601 -20.081 -20.615  0.00  0.00    +0.341 C 
ENDBRANCH  10  12
ENDBRANCH   1  10
TORSDOF 4
ENDMDL
MODEL 8
REMARK VINA RESULT:      -5.4      1.776      3.112
REMARK  Name = 5206
REMARK  4 active torsions:
REMARK  status: ('A' for Active; 'I' for Inactive)
REMARK    1  A    between atoms: C_1  and  C_5
REMARK    2  A    between atoms: C_1  and  C_9
REMARK    3  A    between atoms: C_1  and  O_10
REMARK    4  A    between atoms: O_10  and  C_12
REMARK                            x       y       z     vdW  Elec       q    Type
REMARK                         _______ _______ _______ _____ _____    ______ ____
ROOT
ATOM      1  C   UNL     1      35.484 -17.630 -21.742  0.00  0.00    +0.308 C 
ENDROOT
BRANCH   1   5
ATOM      2  F   UNL     1      35.946 -18.811 -23.738  0.00  0.00    -0.167 F 
ATOM      3  F   UNL     1      34.089 -19.276 -22.699  0.00  0.00    -0.167 F 
ATOM      4  F   UNL     1      34.290 -17.391 -23.779  0.00  0.00    -0.167 F 
ATOM      5  C   UNL     1      34.948 -18.277 -23.002  0.00  0.00    +0.431 C 
ENDBRANCH   1   5
BRANCH   1   9
ATOM      6  F   UNL     1      35.013 -16.034 -20.067  0.00  0.00    -0.167 F 
ATOM      7  F   UNL     1      33.345 -16.702 -21.304  0.00  0.00    -0.167 F 
ATOM      8  F   UNL     1      34.868 -15.382 -22.139  0.00  0.00    -0.167 F 
ATOM      9  C   UNL     1      34.667 -16.430 -21.312  0.00  0.00    +0.431 C 
ENDBRANCH   1   9
BRANCH   1  10
ATOM     10  O   UNL     1      35.466 -18.584 -20.684  0.00  0.00    -0.309 OA
BRANCH  10  12
ATOM     11  F   UNL     1      36.322 -20.664 -20.541  0.00  0.00    -0.198 F 
ATOM     12  C   UNL     1      36.657 -19.353 -20.648  0.00  0.00    +0.341 C 
ENDBRANCH  10  12
ENDBRANCH   1  10
TORSDOF 4
ENDMDL
MODEL 9
REMARK VINA RESULT:      -5.4      2.944      4.478
REMARK  Name = 5206
REMARK  4 active torsions:
REMARK  status: ('A' for Active; 'I' for Inactive)
REMARK    1  A    between atoms: C_1  and  C_5
REMARK    2  A    between atoms: C_1  and  C_9
REMARK    3  A    between atoms: C_1  and  O_10
REMARK    4  A    between atoms: O_10  and  C_12
REMARK                            x       y       z     vdW  Elec       q    Type
REMARK                         _______ _______ _______ _____ _____    ______ ____
ROOT
ATOM      1  C   UNL     1      33.418 -14.145 -21.683  0.00  0.00    +0.308 C 
ENDROOT
BRANCH   1   5
ATOM      2  F   UNL     1      34.662 -15.327 -20.055  0.00  0.00    -0.167 F 
ATOM      3  F   UNL     1      32.535 -15.036 -19.684  0.00  0.00    -0.167 F 
ATOM      4  F   UNL     1      33.191 -16.459 -21.203  0.00  0.00    -0.167 F 
ATOM      5  C   UNL     1      33.453 -15.254 -20.652  0.00  0.00    +0.431 C 
ENDBRANCH   1   5
BRANCH   1   9
ATOM      6  F   UNL     1      34.368 -13.491 -23.743  0.00  0.00    -0.167 F 
ATOM      7  F   UNL     1      33.125 -15.285 -23.744  0.00  0.00    -0.167 F 
ATOM      8  F   UNL     1      35.110 -15.327 -22.838  0.00  0.00    -0.167 F 
ATOM      9  C   UNL     1      34.005 -14.569 -23.013  0.00  0.00    +0.431 C 
ENDBRANCH   1   9
BRANCH   1  10
ATOM     10  O   UNL     1      32.066 -13.752 -21.899  0.00  0.00    -0.309 OA
BRANCH  10  12
ATOM     11  F   UNL     1      31.793 -12.252 -20.239  0.00  0.00    -0.198 F 
ATOM     12  C   UNL     1      31.860 -12.384 -21.589  0.00  0.00    +0.341 C 
ENDBRANCH  10  12
ENDBRANCH   1  10
TORSDOF 4
ENDMDL
