MODEL 1
REMARK VINA RESULT:      -3.2      0.000      0.000
REMARK  Name = 795
REMARK  0 active torsions:
REMARK  status: ('A' for Active; 'I' for Inactive)
REMARK                            x       y       z     vdW  Elec       q    Type
REMARK                         _______ _______ _______ _____ _____    ______ ____
ROOT
ATOM      1  N   UNL     1      37.774 -25.431 -15.203  0.00  0.00    -0.314 N 
ATOM      2  N   UNL     1      35.834 -26.498 -15.038  0.00  0.00    -0.314 N 
ATOM      3  C   UNL     1      36.819 -24.458 -15.103  0.00  0.00    +0.075 C 
ATOM      4  C   UNL     1      37.135 -26.638 -15.159  0.00  0.00    +0.182 C 
ATOM      5  C   UNL     1      35.630 -25.142 -15.002  0.00  0.00    +0.075 C 
ATOM      6  H   UNL     1      38.744 -25.287 -15.290  0.00  0.00    +0.148 HD
ATOM      7  H   UNL     1      35.155 -27.210 -14.983  0.00  0.00    +0.148 HD
ENDROOT
TORSDOF 0
ENDMDL
MODEL 2
REMARK VINA RESULT:      -3.2     11.561     12.435
REMARK  Name = 795
REMARK  0 active torsions:
REMARK  status: ('A' for Active; 'I' for Inactive)
REMARK                            x       y       z     vdW  Elec       q    Type
REMARK                         _______ _______ _______ _____ _____    ______ ____
ROOT
ATOM      1  N   UNL     1      41.676 -13.134 -15.350  0.00  0.00    -0.314 N 
ATOM      2  N   UNL     1      40.555 -15.041 -15.153  0.00  0.00    -0.314 N 
ATOM      3  C   UNL     1      41.961 -13.855 -16.476  0.00  0.00    +0.075 C 
ATOM      4  C   UNL     1      40.828 -13.886 -14.586  0.00  0.00    +0.182 C 
ATOM      5  C   UNL     1      41.257 -15.027 -16.331  0.00  0.00    +0.075 C 
ATOM      6  H   UNL     1      42.019 -12.238 -15.130  0.00  0.00    +0.148 HD
ATOM      7  H   UNL     1      39.972 -15.756 -14.808  0.00  0.00    +0.148 HD
ENDROOT
TORSDOF 0
ENDMDL
MODEL 3
REMARK VINA RESULT:      -3.2      1.550      2.266
REMARK  Name = 795
REMARK  0 active torsions:
REMARK  status: ('A' for Active; 'I' for Inactive)
REMARK                            x       y       z     vdW  Elec       q    Type
REMARK                         _______ _______ _______ _____ _____    ______ ____
ROOT
ATOM      1  N   UNL     1      36.795 -26.947 -13.752  0.00  0.00    -0.314 N 
ATOM      2  N   UNL     1      37.895 -25.716 -15.238  0.00  0.00    -0.314 N 
ATOM      3  C   UNL     1      37.566 -26.081 -13.026  0.00  0.00    +0.075 C 
ATOM      4  C   UNL     1      37.027 -26.690 -15.074  0.00  0.00    +0.182 C 
ATOM      5  C   UNL     1      38.234 -25.333 -13.966  0.00  0.00    +0.075 C 
ATOM      6  H   UNL     1      36.186 -27.629 -13.389  0.00  0.00    +0.148 HD
ATOM      7  H   UNL     1      38.227 -25.344 -16.088  0.00  0.00    +0.148 HD
ENDROOT
TORSDOF 0
ENDMDL
MODEL 4
REMARK VINA RESULT:      -3.2     10.184     10.699
REMARK  Name = 795
REMARK  0 active torsions:
REMARK  status: ('A' for Active; 'I' for Inactive)
REMARK                            x       y       z     vdW  Elec       q    Type
REMARK                         _______ _______ _______ _____ _____    ______ ____
ROOT
ATOM      1  N   UNL     1      35.892 -17.624 -22.951  0.00  0.00    -0.314 N 
ATOM      2  N   UNL     1      35.510 -17.971 -20.791  0.00  0.00    -0.314 N 
ATOM      3  C   UNL     1      35.108 -16.583 -22.537  0.00  0.00    +0.075 C 
ATOM      4  C   UNL     1      36.107 -18.430 -21.869  0.00  0.00    +0.182 C 
ATOM      5  C   UNL     1      34.887 -16.820 -21.201  0.00  0.00    +0.075 C 
ATOM      6  H   UNL     1      36.238 -17.766 -23.861  0.00  0.00    +0.148 HD
ATOM      7  H   UNL     1      35.512 -18.366 -19.888  0.00  0.00    +0.148 HD
ENDROOT
TORSDOF 0
ENDMDL
MODEL 5
REMARK VINA RESULT:      -3.2     10.185     10.737
REMARK  Name = 795
REMARK  0 active torsions:
REMARK  status: ('A' for Active; 'I' for Inactive)
REMARK                            x       y       z     vdW  Elec       q    Type
REMARK                         _______ _______ _______ _____ _____    ______ ____
ROOT
ATOM      1  N   UNL     1      35.478 -17.886 -20.788  0.00  0.00    -0.314 N 
ATOM      2  N   UNL     1      35.940 -17.718 -22.954  0.00  0.00    -0.314 N 
ATOM      3  C   UNL     1      34.858 -16.745 -21.217  0.00  0.00    +0.075 C 
ATOM      4  C   UNL     1      36.115 -18.435 -21.866  0.00  0.00    +0.182 C 
ATOM      5  C   UNL     1      35.158 -16.664 -22.556  0.00  0.00    +0.075 C 
ATOM      6  H   UNL     1      35.468 -18.245 -19.872  0.00  0.00    +0.148 HD
ATOM      7  H   UNL     1      36.293 -17.899 -23.856  0.00  0.00    +0.148 HD
ENDROOT
TORSDOF 0
ENDMDL
MODEL 6
REMARK VINA RESULT:      -3.2      2.539      3.075
REMARK  Name = 795
REMARK  0 active torsions:
REMARK  status: ('A' for Active; 'I' for Inactive)
REMARK                            x       y       z     vdW  Elec       q    Type
REMARK                         _______ _______ _______ _____ _____    ______ ____
ROOT
ATOM      1  N   UNL     1      39.233 -24.770 -15.421  0.00  0.00    -0.314 N 
ATOM      2  N   UNL     1      39.988 -26.083 -13.797  0.00  0.00    -0.314 N 
ATOM      3  C   UNL     1      38.250 -24.794 -14.471  0.00  0.00    +0.075 C 
ATOM      4  C   UNL     1      40.255 -25.558 -14.972  0.00  0.00    +0.182 C 
ATOM      5  C   UNL     1      38.740 -25.611 -13.479  0.00  0.00    +0.075 C 
ATOM      6  H   UNL     1      39.208 -24.277 -16.272  0.00  0.00    +0.148 HD
ATOM      7  H   UNL     1      40.559 -26.682 -13.262  0.00  0.00    +0.148 HD
ENDROOT
TORSDOF 0
ENDMDL
MODEL 7
REMARK VINA RESULT:      -3.2      6.581      6.927
REMARK  Name = 795
REMARK  0 active torsions:
REMARK  status: ('A' for Active; 'I' for Inactive)
REMARK                            x       y       z     vdW  Elec       q    Type
REMARK                         _______ _______ _______ _____ _____    ______ ____
ROOT
ATOM      1  N   UNL     1      34.620 -20.599 -20.153  0.00  0.00    -0.314 N 
ATOM      2  N   UNL     1      32.863 -21.762 -19.449  0.00  0.00    -0.314 N 
ATOM      3  C   UNL     1      35.127 -21.684 -19.494  0.00  0.00    +0.075 C 
ATOM      4  C   UNL     1      33.257 -20.689 -20.099  0.00  0.00    +0.182 C 
ATOM      5  C   UNL     1      34.024 -22.386 -19.070  0.00  0.00    +0.075 C 
ATOM      6  H   UNL     1      35.140 -19.885 -20.585  0.00  0.00    +0.148 HD
ATOM      7  H   UNL     1      31.938 -22.053 -19.275  0.00  0.00    +0.148 HD
ENDROOT
TORSDOF 0
ENDMDL
MODEL 8
REMARK VINA RESULT:      -3.1      7.504      7.913
REMARK  Name = 795
REMARK  0 active torsions:
REMARK  status: ('A' for Active; 'I' for Inactive)
REMARK                            x       y       z     vdW  Elec       q    Type
REMARK                         _______ _______ _______ _____ _____    ______ ____
ROOT
ATOM      1  N   UNL     1      32.700 -20.587 -20.240  0.00  0.00    -0.314 N 
ATOM      2  N   UNL     1      34.808 -21.117 -19.782  0.00  0.00    -0.314 N 
ATOM      3  C   UNL     1      33.470 -19.716 -20.958  0.00  0.00    +0.075 C 
ATOM      4  C   UNL     1      33.547 -21.409 -19.550  0.00  0.00    +0.182 C 
ATOM      5  C   UNL     1      34.767 -20.063 -20.658  0.00  0.00    +0.075 C 
ATOM      6  H   UNL     1      31.717 -20.617 -20.223  0.00  0.00    +0.148 HD
ATOM      7  H   UNL     1      35.605 -21.559 -19.409  0.00  0.00    +0.148 HD
ENDROOT
TORSDOF 0
ENDMDL
MODEL 9
REMARK VINA RESULT:      -3.1     13.109     13.601
REMARK  Name = 795
REMARK  0 active torsions:
REMARK  status: ('A' for Active; 'I' for Inactive)
REMARK                            x       y       z     vdW  Elec       q    Type
REMARK                         _______ _______ _______ _____ _____    ______ ____
ROOT
ATOM      1  N   UNL     1      33.788 -16.057 -25.364  0.00  0.00    -0.314 N 
ATOM      2  N   UNL     1      35.392 -16.700 -23.969  0.00  0.00    -0.314 N 
ATOM      3  C   UNL     1      33.736 -15.190 -24.307  0.00  0.00    +0.075 C 
ATOM      4  C   UNL     1      34.797 -16.944 -25.116  0.00  0.00    +0.182 C 
ATOM      5  C   UNL     1      34.736 -15.608 -23.461  0.00  0.00    +0.075 C 
ATOM      6  H   UNL     1      33.206 -16.043 -26.157  0.00  0.00    +0.148 HD
ATOM      7  H   UNL     1      36.144 -17.192 -23.565  0.00  0.00    +0.148 HD
ENDROOT
TORSDOF 0
ENDMDL
