MODEL 1
REMARK VINA RESULT:      -7.0      0.000      0.000
REMARK  Name = 233240
REMARK  2 active torsions:
REMARK  status: ('A' for Active; 'I' for Inactive)
REMARK    1  A    between atoms: C_5  and  C_13
REMARK    2  A    between atoms: C_13  and  O_14
REMARK                            x       y       z     vdW  Elec       q    Type
REMARK                         _______ _______ _______ _____ _____    ______ ____
ROOT
ATOM      1  N   UNL     1      38.621 -25.396 -13.070  0.00  0.00    -0.309 N 
ATOM      2  N   UNL     1      37.993 -25.391 -15.202  0.00  0.00    -0.309 N 
ATOM      3  C   UNL     1      37.310 -24.997 -13.064  0.00  0.00    +0.059 C 
ATOM      4  C   UNL     1      36.940 -25.001 -14.407  0.00  0.00    +0.059 C 
ATOM      5  C   UNL     1      38.984 -25.620 -14.370  0.00  0.00    +0.246 C 
ATOM      6  C   UNL     1      36.441 -24.642 -12.032  0.00  0.00    +0.016 C 
ATOM      7  C   UNL     1      35.630 -24.633 -14.758  0.00  0.00    +0.016 C 
ATOM      8  C   UNL     1      35.141 -24.280 -12.399  0.00  0.00    +0.001 C 
ATOM      9  C   UNL     1      34.741 -24.274 -13.738  0.00  0.00    +0.001 C 
ATOM     10  H   UNL     1      39.199 -25.503 -12.280  0.00  0.00    +0.149 HD
ATOM     11  H   UNL     1      38.003 -25.479 -16.183  0.00  0.00    +0.149 HD
ENDROOT
BRANCH   5  13
ATOM     12  O   UNL     1      41.188 -26.504 -14.080  0.00  0.00    -0.247 OA
ATOM     13  C   UNL     1      40.272 -26.050 -14.803  0.00  0.00    +0.352 C 
BRANCH  13  14
ATOM     14  O   UNL     1      40.463 -25.931 -16.157  0.00  0.00    -0.478 OA
ATOM     15  H   UNL     1      40.234 -26.637 -16.727  0.00  0.00    +0.295 HD
ENDBRANCH  13  14
ENDBRANCH   5  13
TORSDOF 2
ENDMDL
MODEL 2
REMARK VINA RESULT:      -7.0      6.904      8.342
REMARK  Name = 233240
REMARK  2 active torsions:
REMARK  status: ('A' for Active; 'I' for Inactive)
REMARK    1  A    between atoms: C_5  and  C_13
REMARK    2  A    between atoms: C_13  and  O_14
REMARK                            x       y       z     vdW  Elec       q    Type
REMARK                         _______ _______ _______ _____ _____    ______ ____
ROOT
ATOM      1  N   UNL     1      32.717 -21.755 -18.947  0.00  0.00    -0.309 N 
ATOM      2  N   UNL     1      34.877 -22.163 -18.625  0.00  0.00    -0.309 N 
ATOM      3  C   UNL     1      33.377 -20.965 -19.852  0.00  0.00    +0.059 C 
ATOM      4  C   UNL     1      34.725 -21.238 -19.631  0.00  0.00    +0.059 C 
ATOM      5  C   UNL     1      33.655 -22.451 -18.237  0.00  0.00    +0.246 C 
ATOM      6  C   UNL     1      32.926 -20.063 -20.816  0.00  0.00    +0.016 C 
ATOM      7  C   UNL     1      35.693 -20.581 -20.409  0.00  0.00    +0.016 C 
ATOM      8  C   UNL     1      33.903 -19.419 -21.582  0.00  0.00    +0.001 C 
ATOM      9  C   UNL     1      35.263 -19.671 -21.383  0.00  0.00    +0.001 C 
ATOM     10  H   UNL     1      31.741 -21.811 -18.828  0.00  0.00    +0.149 HD
ATOM     11  H   UNL     1      35.720 -22.529 -18.270  0.00  0.00    +0.149 HD
ENDROOT
BRANCH   5  13
ATOM     12  O   UNL     1      32.253 -23.634 -16.701  0.00  0.00    -0.247 OA
ATOM     13  C   UNL     1      33.376 -23.384 -17.196  0.00  0.00    +0.352 C 
BRANCH  13  14
ATOM     14  O   UNL     1      34.490 -24.042 -16.735  0.00  0.00    -0.478 OA
ATOM     15  H   UNL     1      35.342 -23.696 -16.906  0.00  0.00    +0.295 HD
ENDBRANCH  13  14
ENDBRANCH   5  13
TORSDOF 2
ENDMDL
MODEL 3
REMARK VINA RESULT:      -6.9      9.094     10.329
REMARK  Name = 233240
REMARK  2 active torsions:
REMARK  status: ('A' for Active; 'I' for Inactive)
REMARK    1  A    between atoms: C_5  and  C_13
REMARK    2  A    between atoms: C_13  and  O_14
REMARK                            x       y       z     vdW  Elec       q    Type
REMARK                         _______ _______ _______ _____ _____    ______ ____
ROOT
ATOM      1  N   UNL     1      33.842 -18.661 -21.352  0.00  0.00    -0.309 N 
ATOM      2  N   UNL     1      36.059 -18.817 -21.320  0.00  0.00    -0.309 N 
ATOM      3  C   UNL     1      34.118 -19.806 -20.651  0.00  0.00    +0.059 C 
ATOM      4  C   UNL     1      35.509 -19.882 -20.644  0.00  0.00    +0.059 C 
ATOM      5  C   UNL     1      35.033 -18.105 -21.730  0.00  0.00    +0.246 C 
ATOM      6  C   UNL     1      33.297 -20.754 -20.040  0.00  0.00    +0.016 C 
ATOM      7  C   UNL     1      36.134 -20.960 -19.995  0.00  0.00    +0.016 C 
ATOM      8  C   UNL     1      33.935 -21.820 -19.398  0.00  0.00    +0.001 C 
ATOM      9  C   UNL     1      35.328 -21.923 -19.375  0.00  0.00    +0.001 C 
ATOM     10  H   UNL     1      32.947 -18.301 -21.548  0.00  0.00    +0.149 HD
ATOM     11  H   UNL     1      37.014 -18.628 -21.465  0.00  0.00    +0.149 HD
ENDROOT
BRANCH   5  13
ATOM     12  O   UNL     1      34.877 -15.747 -22.101  0.00  0.00    -0.247 OA
ATOM     13  C   UNL     1      35.179 -16.902 -22.479  0.00  0.00    +0.352 C 
BRANCH  13  14
ATOM     14  O   UNL     1      35.710 -17.095 -23.731  0.00  0.00    -0.478 OA
ATOM     15  H   UNL     1      36.482 -17.615 -23.837  0.00  0.00    +0.295 HD
ENDBRANCH  13  14
ENDBRANCH   5  13
TORSDOF 2
ENDMDL
MODEL 4
REMARK VINA RESULT:      -6.9      9.104     10.294
REMARK  Name = 233240
REMARK  2 active torsions:
REMARK  status: ('A' for Active; 'I' for Inactive)
REMARK    1  A    between atoms: C_5  and  C_13
REMARK    2  A    between atoms: C_13  and  O_14
REMARK                            x       y       z     vdW  Elec       q    Type
REMARK                         _______ _______ _______ _____ _____    ______ ____
ROOT
ATOM      1  N   UNL     1      36.098 -18.832 -21.267  0.00  0.00    -0.309 N 
ATOM      2  N   UNL     1      33.892 -18.571 -21.347  0.00  0.00    -0.309 N 
ATOM      3  C   UNL     1      35.577 -19.917 -20.609  0.00  0.00    +0.059 C 
ATOM      4  C   UNL     1      34.198 -19.730 -20.673  0.00  0.00    +0.059 C 
ATOM      5  C   UNL     1      35.053 -18.058 -21.689  0.00  0.00    +0.246 C 
ATOM      6  C   UNL     1      36.174 -21.011 -19.984  0.00  0.00    +0.016 C 
ATOM      7  C   UNL     1      33.350 -20.683 -20.082  0.00  0.00    +0.016 C 
ATOM      8  C   UNL     1      35.315 -21.949 -19.402  0.00  0.00    +0.001 C 
ATOM      9  C   UNL     1      33.928 -21.789 -19.448  0.00  0.00    +0.001 C 
ATOM     10  H   UNL     1      37.053 -18.644 -21.410  0.00  0.00    +0.149 HD
ATOM     11  H   UNL     1      32.998 -18.204 -21.532  0.00  0.00    +0.149 HD
ENDROOT
BRANCH   5  13
ATOM     12  O   UNL     1      34.863 -15.694 -22.006  0.00  0.00    -0.247 OA
ATOM     13  C   UNL     1      35.173 -16.837 -22.414  0.00  0.00    +0.352 C 
BRANCH  13  14
ATOM     14  O   UNL     1      35.687 -16.997 -23.677  0.00  0.00    -0.478 OA
ATOM     15  H   UNL     1      35.277 -16.576 -24.406  0.00  0.00    +0.295 HD
ENDBRANCH  13  14
ENDBRANCH   5  13
TORSDOF 2
ENDMDL
MODEL 5
REMARK VINA RESULT:      -6.9      7.699      9.162
REMARK  Name = 233240
REMARK  2 active torsions:
REMARK  status: ('A' for Active; 'I' for Inactive)
REMARK    1  A    between atoms: C_5  and  C_13
REMARK    2  A    between atoms: C_13  and  O_14
REMARK                            x       y       z     vdW  Elec       q    Type
REMARK                         _______ _______ _______ _____ _____    ______ ____
ROOT
ATOM      1  N   UNL     1      30.382 -22.746 -16.679  0.00  0.00    -0.309 N 
ATOM      2  N   UNL     1      29.060 -23.945 -15.356  0.00  0.00    -0.309 N 
ATOM      3  C   UNL     1      31.220 -23.358 -15.783  0.00  0.00    +0.059 C 
ATOM      4  C   UNL     1      30.370 -24.101 -14.967  0.00  0.00    +0.059 C 
ATOM      5  C   UNL     1      29.103 -23.127 -16.383  0.00  0.00    +0.246 C 
ATOM      6  C   UNL     1      32.605 -23.328 -15.620  0.00  0.00    +0.016 C 
ATOM      7  C   UNL     1      30.918 -24.864 -13.922  0.00  0.00    +0.016 C 
ATOM      8  C   UNL     1      33.133 -24.093 -14.576  0.00  0.00    +0.001 C 
ATOM      9  C   UNL     1      32.306 -24.848 -13.740  0.00  0.00    +0.001 C 
ATOM     10  H   UNL     1      30.653 -22.140 -17.407  0.00  0.00    +0.149 HD
ATOM     11  H   UNL     1      28.262 -24.356 -14.951  0.00  0.00    +0.149 HD
ENDROOT
BRANCH   5  13
ATOM     12  O   UNL     1      27.422 -21.565 -17.062  0.00  0.00    -0.247 OA
ATOM     13  C   UNL     1      27.935 -22.707 -17.085  0.00  0.00    +0.352 C 
BRANCH  13  14
ATOM     14  O   UNL     1      27.364 -23.700 -17.843  0.00  0.00    -0.478 OA
ATOM     15  H   UNL     1      26.693 -24.240 -17.478  0.00  0.00    +0.295 HD
ENDBRANCH  13  14
ENDBRANCH   5  13
TORSDOF 2
ENDMDL
MODEL 6
REMARK VINA RESULT:      -6.5      1.358      2.250
REMARK  Name = 233240
REMARK  2 active torsions:
REMARK  status: ('A' for Active; 'I' for Inactive)
REMARK    1  A    between atoms: C_5  and  C_13
REMARK    2  A    between atoms: C_13  and  O_14
REMARK                            x       y       z     vdW  Elec       q    Type
REMARK                         _______ _______ _______ _____ _____    ______ ____
ROOT
ATOM      1  N   UNL     1      38.295 -23.814 -15.758  0.00  0.00    -0.309 N 
ATOM      2  N   UNL     1      37.884 -25.336 -14.192  0.00  0.00    -0.309 N 
ATOM      3  C   UNL     1      36.971 -23.662 -15.438  0.00  0.00    +0.059 C 
ATOM      4  C   UNL     1      36.738 -24.623 -14.458  0.00  0.00    +0.059 C 
ATOM      5  C   UNL     1      38.797 -24.826 -14.987  0.00  0.00    +0.246 C 
ATOM      6  C   UNL     1      35.986 -22.792 -15.907  0.00  0.00    +0.016 C 
ATOM      7  C   UNL     1      35.453 -24.738 -13.902  0.00  0.00    +0.016 C 
ATOM      8  C   UNL     1      34.713 -22.919 -15.342  0.00  0.00    +0.001 C 
ATOM      9  C   UNL     1      34.449 -23.875 -14.358  0.00  0.00    +0.001 C 
ATOM     10  H   UNL     1      38.796 -23.289 -16.423  0.00  0.00    +0.149 HD
ATOM     11  H   UNL     1      37.996 -26.071 -13.546  0.00  0.00    +0.149 HD
ENDROOT
BRANCH   5  13
ATOM     12  O   UNL     1      40.638 -26.085 -15.855  0.00  0.00    -0.247 OA
ATOM     13  C   UNL     1      40.143 -25.295 -15.019  0.00  0.00    +0.352 C 
BRANCH  13  14
ATOM     14  O   UNL     1      40.923 -24.793 -14.006  0.00  0.00    -0.478 OA
ATOM     15  H   UNL     1      40.973 -23.869 -13.868  0.00  0.00    +0.295 HD
ENDBRANCH  13  14
ENDBRANCH   5  13
TORSDOF 2
ENDMDL
MODEL 7
REMARK VINA RESULT:      -6.5     13.654     14.916
REMARK  Name = 233240
REMARK  2 active torsions:
REMARK  status: ('A' for Active; 'I' for Inactive)
REMARK    1  A    between atoms: C_5  and  C_13
REMARK    2  A    between atoms: C_13  and  O_14
REMARK                            x       y       z     vdW  Elec       q    Type
REMARK                         _______ _______ _______ _____ _____    ______ ____
ROOT
ATOM      1  N   UNL     1      33.699 -14.981 -24.723  0.00  0.00    -0.309 N 
ATOM      2  N   UNL     1      34.541 -14.769 -22.677  0.00  0.00    -0.309 N 
ATOM      3  C   UNL     1      34.216 -16.211 -24.411  0.00  0.00    +0.059 C 
ATOM      4  C   UNL     1      34.737 -16.054 -23.129  0.00  0.00    +0.059 C 
ATOM      5  C   UNL     1      33.917 -14.153 -23.656  0.00  0.00    +0.246 C 
ATOM      6  C   UNL     1      34.273 -17.412 -25.119  0.00  0.00    +0.016 C 
ATOM      7  C   UNL     1      35.353 -17.149 -22.501  0.00  0.00    +0.016 C 
ATOM      8  C   UNL     1      34.889 -18.492 -24.478  0.00  0.00    +0.001 C 
ATOM      9  C   UNL     1      35.421 -18.364 -23.192  0.00  0.00    +0.001 C 
ATOM     10  H   UNL     1      33.250 -14.735 -25.564  0.00  0.00    +0.149 HD
ATOM     11  H   UNL     1      34.811 -14.392 -21.809  0.00  0.00    +0.149 HD
ENDROOT
BRANCH   5  13
ATOM     12  O   UNL     1      32.544 -12.321 -22.959  0.00  0.00    -0.247 OA
ATOM     13  C   UNL     1      33.527 -12.784 -23.582  0.00  0.00    +0.352 C 
BRANCH  13  14
ATOM     14  O   UNL     1      34.352 -11.940 -24.284  0.00  0.00    -0.478 OA
ATOM     15  H   UNL     1      34.090 -11.057 -24.446  0.00  0.00    +0.295 HD
ENDBRANCH  13  14
ENDBRANCH   5  13
TORSDOF 2
ENDMDL
MODEL 8
REMARK VINA RESULT:      -6.5     12.822     14.078
REMARK  Name = 233240
REMARK  2 active torsions:
REMARK  status: ('A' for Active; 'I' for Inactive)
REMARK    1  A    between atoms: C_5  and  C_13
REMARK    2  A    between atoms: C_13  and  O_14
REMARK                            x       y       z     vdW  Elec       q    Type
REMARK                         _______ _______ _______ _____ _____    ______ ____
ROOT
ATOM      1  N   UNL     1      34.327 -17.104 -24.923  0.00  0.00    -0.309 N 
ATOM      2  N   UNL     1      34.027 -15.464 -23.454  0.00  0.00    -0.309 N 
ATOM      3  C   UNL     1      34.750 -17.608 -23.721  0.00  0.00    +0.059 C 
ATOM      4  C   UNL     1      34.553 -16.565 -22.819  0.00  0.00    +0.059 C 
ATOM      5  C   UNL     1      33.904 -15.820 -24.713  0.00  0.00    +0.246 C 
ATOM      6  C   UNL     1      35.273 -18.849 -23.355  0.00  0.00    +0.016 C 
ATOM      7  C   UNL     1      34.891 -16.754 -21.468  0.00  0.00    +0.016 C 
ATOM      8  C   UNL     1      35.603 -19.020 -22.007  0.00  0.00    +0.001 C 
ATOM      9  C   UNL     1      35.418 -17.992 -21.079  0.00  0.00    +0.001 C 
ATOM     10  H   UNL     1      34.327 -17.580 -25.785  0.00  0.00    +0.149 HD
ATOM     11  H   UNL     1      33.793 -14.596 -23.052  0.00  0.00    +0.149 HD
ENDROOT
BRANCH   5  13
ATOM     12  O   UNL     1      33.444 -15.120 -26.954  0.00  0.00    -0.247 OA
ATOM     13  C   UNL     1      33.388 -14.948 -25.715  0.00  0.00    +0.352 C 
BRANCH  13  14
ATOM     14  O   UNL     1      32.779 -13.827 -25.206  0.00  0.00    -0.478 OA
ATOM     15  H   UNL     1      32.064 -13.913 -24.608  0.00  0.00    +0.295 HD
ENDBRANCH  13  14
ENDBRANCH   5  13
TORSDOF 2
ENDMDL
MODEL 9
REMARK VINA RESULT:      -6.5     13.645     14.813
REMARK  Name = 233240
REMARK  2 active torsions:
REMARK  status: ('A' for Active; 'I' for Inactive)
REMARK    1  A    between atoms: C_5  and  C_13
REMARK    2  A    between atoms: C_13  and  O_14
REMARK                            x       y       z     vdW  Elec       q    Type
REMARK                         _______ _______ _______ _____ _____    ______ ____
ROOT
ATOM      1  N   UNL     1      34.545 -14.838 -22.630  0.00  0.00    -0.309 N 
ATOM      2  N   UNL     1      33.696 -14.907 -24.683  0.00  0.00    -0.309 N 
ATOM      3  C   UNL     1      34.756 -16.119 -23.070  0.00  0.00    +0.059 C 
ATOM      4  C   UNL     1      34.217 -16.137 -24.354  0.00  0.00    +0.059 C 
ATOM      5  C   UNL     1      33.908 -14.153 -23.628  0.00  0.00    +0.246 C 
ATOM      6  C   UNL     1      35.354 -17.230 -22.474  0.00  0.00    +0.016 C 
ATOM      7  C   UNL     1      34.269 -17.326 -25.102  0.00  0.00    +0.016 C 
ATOM      8  C   UNL     1      35.398 -18.403 -23.233  0.00  0.00    +0.001 C 
ATOM      9  C   UNL     1      34.865 -18.453 -24.524  0.00  0.00    +0.001 C 
ATOM     10  H   UNL     1      34.804 -14.475 -21.752  0.00  0.00    +0.149 HD
ATOM     11  H   UNL     1      33.257 -14.648 -25.525  0.00  0.00    +0.149 HD
ENDROOT
BRANCH   5  13
ATOM     12  O   UNL     1      32.543 -12.320 -22.920  0.00  0.00    -0.247 OA
ATOM     13  C   UNL     1      33.511 -12.786 -23.565  0.00  0.00    +0.352 C 
BRANCH  13  14
ATOM     14  O   UNL     1      34.308 -11.947 -24.304  0.00  0.00    -0.478 OA
ATOM     15  H   UNL     1      34.539 -12.175 -25.182  0.00  0.00    +0.295 HD
ENDBRANCH  13  14
ENDBRANCH   5  13
TORSDOF 2
ENDMDL
