MODEL 1
REMARK VINA RESULT:      -6.0      0.000      0.000
REMARK  Name = 4629337
REMARK  11 active torsions:
REMARK  status: ('A' for Active; 'I' for Inactive)
REMARK    1  A    between atoms: C_1  and  C_2
REMARK    2  A    between atoms: C_1  and  C_8
REMARK    3  A    between atoms: C_2  and  C_3
REMARK    4  A    between atoms: C_3  and  C_4
REMARK    5  A    between atoms: C_4  and  C_5
REMARK    6  A    between atoms: C_5  and  C_6
REMARK    7  A    between atoms: C_8  and  C_9
REMARK    8  A    between atoms: C_9  and  C_10
REMARK    9  A    between atoms: C_10  and  O_11
REMARK   10  A    between atoms: O_11  and  C_12
REMARK   11  A    between atoms: C_12  and  O_13
REMARK                            x       y       z     vdW  Elec       q    Type
REMARK                         _______ _______ _______ _____ _____    ______ ____
ROOT
ATOM      1  C   UNL     1      35.236 -16.965 -22.911  0.00  0.00    +0.000 C 
ENDROOT
BRANCH   1   2
ATOM      2  C   UNL     1      35.156 -17.508 -21.482  0.00  0.00    +0.000 C 
BRANCH   2   3
ATOM      3  C   UNL     1      36.027 -18.746 -21.252  0.00  0.00    +0.000 C 
BRANCH   3   4
ATOM      4  C   UNL     1      35.249 -19.945 -20.706  0.00  0.00    +0.000 C 
BRANCH   4   5
ATOM      5  C   UNL     1      33.757 -19.831 -21.029  0.00  0.00    +0.000 C 
BRANCH   5   6
ATOM      6  C   UNL     1      32.905 -20.555 -19.986  0.00  0.00    +0.000 C 
ATOM      7  C   UNL     1      33.668 -21.701 -19.344  0.00  0.00    +0.000 C 
ENDBRANCH   5   6
ENDBRANCH   4   5
ENDBRANCH   3   4
ENDBRANCH   2   3
ENDBRANCH   1   2
BRANCH   1   8
ATOM      8  C   UNL     1      35.162 -18.097 -23.938  0.00  0.00    +0.003 C 
BRANCH   8   9
ATOM      9  C   UNL     1      34.355 -17.678 -25.170  0.00  0.00    +0.032 C 
BRANCH   9  10
ATOM     10  C   UNL     1      34.040 -16.187 -25.172  0.00  0.00    +0.145 C 
BRANCH  10  11
ATOM     11  O   UNL     1      33.685 -15.768 -26.482  0.00  0.00    -0.327 OA
BRANCH  11  12
ATOM     12  C   UNL     1      33.237 -14.416 -26.515  0.00  0.00    +0.290 C 
BRANCH  12  13
ATOM     13  O   UNL     1      33.708 -13.702 -27.648  0.00  0.00    -0.356 OA
ATOM     14  H   UNL     1      32.954 -13.403 -28.178  0.00  0.00    +0.213 HD
ENDBRANCH  12  13
ENDBRANCH  11  12
ENDBRANCH  10  11
ENDBRANCH   9  10
ENDBRANCH   8   9
ENDBRANCH   1   8
TORSDOF 11
ENDMDL
MODEL 2
REMARK VINA RESULT:      -5.7      1.637      2.047
REMARK  Name = 4629337
REMARK  11 active torsions:
REMARK  status: ('A' for Active; 'I' for Inactive)
REMARK    1  A    between atoms: C_1  and  C_2
REMARK    2  A    between atoms: C_1  and  C_8
REMARK    3  A    between atoms: C_2  and  C_3
REMARK    4  A    between atoms: C_3  and  C_4
REMARK    5  A    between atoms: C_4  and  C_5
REMARK    6  A    between atoms: C_5  and  C_6
REMARK    7  A    between atoms: C_8  and  C_9
REMARK    8  A    between atoms: C_9  and  C_10
REMARK    9  A    between atoms: C_10  and  O_11
REMARK   10  A    between atoms: O_11  and  C_12
REMARK   11  A    between atoms: C_12  and  O_13
REMARK                            x       y       z     vdW  Elec       q    Type
REMARK                         _______ _______ _______ _____ _____    ______ ____
ROOT
ATOM      1  C   UNL     1      34.809 -19.125 -23.865  0.00  0.00    +0.000 C 
ENDROOT
BRANCH   1   2
ATOM      2  C   UNL     1      35.671 -18.350 -22.867  0.00  0.00    +0.000 C 
BRANCH   2   3
ATOM      3  C   UNL     1      35.148 -18.418 -21.429  0.00  0.00    +0.000 C 
BRANCH   3   4
ATOM      4  C   UNL     1      34.929 -19.848 -20.929  0.00  0.00    +0.000 C 
BRANCH   4   5
ATOM      5  C   UNL     1      33.465 -20.084 -20.549  0.00  0.00    +0.000 C 
BRANCH   5   6
ATOM      6  C   UNL     1      33.323 -21.265 -19.589  0.00  0.00    +0.000 C 
ATOM      7  C   UNL     1      34.670 -21.893 -19.277  0.00  0.00    +0.000 C 
ENDBRANCH   5   6
ENDBRANCH   4   5
ENDBRANCH   3   4
ENDBRANCH   2   3
ENDBRANCH   1   2
BRANCH   1   8
ATOM      8  C   UNL     1      34.473 -18.269 -25.089  0.00  0.00    +0.003 C 
BRANCH   8   9
ATOM      9  C   UNL     1      34.827 -16.798 -24.852  0.00  0.00    +0.032 C 
BRANCH   9  10
ATOM     10  C   UNL     1      33.789 -15.853 -25.445  0.00  0.00    +0.145 C 
BRANCH  10  11
ATOM     11  O   UNL     1      33.249 -15.025 -24.425  0.00  0.00    -0.327 OA
BRANCH  11  12
ATOM     12  C   UNL     1      34.080 -14.980 -23.268  0.00  0.00    +0.290 C 
BRANCH  12  13
ATOM     13  O   UNL     1      34.510 -13.666 -22.945  0.00  0.00    -0.356 OA
ATOM     14  H   UNL     1      34.731 -13.188 -23.759  0.00  0.00    +0.213 HD
ENDBRANCH  12  13
ENDBRANCH  11  12
ENDBRANCH  10  11
ENDBRANCH   9  10
ENDBRANCH   8   9
ENDBRANCH   1   8
TORSDOF 11
ENDMDL
MODEL 3
REMARK VINA RESULT:      -5.7      1.986      2.627
REMARK  Name = 4629337
REMARK  11 active torsions:
REMARK  status: ('A' for Active; 'I' for Inactive)
REMARK    1  A    between atoms: C_1  and  C_2
REMARK    2  A    between atoms: C_1  and  C_8
REMARK    3  A    between atoms: C_2  and  C_3
REMARK    4  A    between atoms: C_3  and  C_4
REMARK    5  A    between atoms: C_4  and  C_5
REMARK    6  A    between atoms: C_5  and  C_6
REMARK    7  A    between atoms: C_8  and  C_9
REMARK    8  A    between atoms: C_9  and  C_10
REMARK    9  A    between atoms: C_10  and  O_11
REMARK   10  A    between atoms: O_11  and  C_12
REMARK   11  A    between atoms: C_12  and  O_13
REMARK                            x       y       z     vdW  Elec       q    Type
REMARK                         _______ _______ _______ _____ _____    ______ ____
ROOT
ATOM      1  C   UNL     1      34.450 -15.429 -20.879  0.00  0.00    +0.000 C 
ENDROOT
BRANCH   1   2
ATOM      2  C   UNL     1      34.953 -16.873 -20.922  0.00  0.00    +0.000 C 
BRANCH   2   3
ATOM      3  C   UNL     1      34.896 -17.497 -22.319  0.00  0.00    +0.000 C 
BRANCH   3   4
ATOM      4  C   UNL     1      34.600 -18.998 -22.304  0.00  0.00    +0.000 C 
BRANCH   4   5
ATOM      5  C   UNL     1      35.245 -19.677 -21.093  0.00  0.00    +0.000 C 
BRANCH   5   6
ATOM      6  C   UNL     1      34.219 -20.482 -20.295  0.00  0.00    +0.000 C 
ATOM      7  C   UNL     1      32.801 -20.023 -20.590  0.00  0.00    +0.000 C 
ENDBRANCH   5   6
ENDBRANCH   4   5
ENDBRANCH   3   4
ENDBRANCH   2   3
ENDBRANCH   1   2
BRANCH   1   8
ATOM      8  C   UNL     1      32.955 -15.353 -21.199  0.00  0.00    +0.003 C 
BRANCH   8   9
ATOM      9  C   UNL     1      32.644 -14.179 -22.130  0.00  0.00    +0.032 C 
BRANCH   9  10
ATOM     10  C   UNL     1      33.594 -14.120 -23.320  0.00  0.00    +0.145 C 
BRANCH  10  11
ATOM     11  O   UNL     1      32.919 -14.533 -24.500  0.00  0.00    -0.327 OA
BRANCH  11  12
ATOM     12  C   UNL     1      33.664 -15.497 -25.239  0.00  0.00    +0.290 C 
BRANCH  12  13
ATOM     13  O   UNL     1      33.602 -15.290 -26.643  0.00  0.00    -0.356 OA
ATOM     14  H   UNL     1      32.844 -14.722 -26.852  0.00  0.00    +0.213 HD
ENDBRANCH  12  13
ENDBRANCH  11  12
ENDBRANCH  10  11
ENDBRANCH   9  10
ENDBRANCH   8   9
ENDBRANCH   1   8
TORSDOF 11
ENDMDL
MODEL 4
REMARK VINA RESULT:      -5.7      4.242      6.977
REMARK  Name = 4629337
REMARK  11 active torsions:
REMARK  status: ('A' for Active; 'I' for Inactive)
REMARK    1  A    between atoms: C_1  and  C_2
REMARK    2  A    between atoms: C_1  and  C_8
REMARK    3  A    between atoms: C_2  and  C_3
REMARK    4  A    between atoms: C_3  and  C_4
REMARK    5  A    between atoms: C_4  and  C_5
REMARK    6  A    between atoms: C_5  and  C_6
REMARK    7  A    between atoms: C_8  and  C_9
REMARK    8  A    between atoms: C_9  and  C_10
REMARK    9  A    between atoms: C_10  and  O_11
REMARK   10  A    between atoms: O_11  and  C_12
REMARK   11  A    between atoms: C_12  and  O_13
REMARK                            x       y       z     vdW  Elec       q    Type
REMARK                         _______ _______ _______ _____ _____    ______ ____
ROOT
ATOM      1  C   UNL     1      34.601 -19.391 -22.483  0.00  0.00    +0.000 C 
ENDROOT
BRANCH   1   2
ATOM      2  C   UNL     1      35.393 -18.618 -23.540  0.00  0.00    +0.000 C 
BRANCH   2   3
ATOM      3  C   UNL     1      34.553 -18.217 -24.757  0.00  0.00    +0.000 C 
BRANCH   3   4
ATOM      4  C   UNL     1      34.310 -16.709 -24.858  0.00  0.00    +0.000 C 
BRANCH   4   5
ATOM      5  C   UNL     1      34.976 -15.962 -23.699  0.00  0.00    +0.000 C 
BRANCH   5   6
ATOM      6  C   UNL     1      33.946 -15.201 -22.864  0.00  0.00    +0.000 C 
ATOM      7  C   UNL     1      33.695 -15.886 -21.531  0.00  0.00    +0.000 C 
ENDBRANCH   5   6
ENDBRANCH   4   5
ENDBRANCH   3   4
ENDBRANCH   2   3
ENDBRANCH   1   2
BRANCH   1   8
ATOM      8  C   UNL     1      35.327 -19.388 -21.135  0.00  0.00    +0.003 C 
BRANCH   8   9
ATOM      9  C   UNL     1      34.811 -20.505 -20.224  0.00  0.00    +0.032 C 
BRANCH   9  10
ATOM     10  C   UNL     1      33.292 -20.620 -20.256  0.00  0.00    +0.145 C 
BRANCH  10  11
ATOM     11  O   UNL     1      32.889 -21.868 -19.711  0.00  0.00    -0.327 OA
BRANCH  11  12
ATOM     12  C   UNL     1      33.928 -22.492 -18.962  0.00  0.00    +0.290 C 
BRANCH  12  13
ATOM     13  O   UNL     1      33.637 -23.841 -18.624  0.00  0.00    -0.356 OA
ATOM     14  H   UNL     1      32.867 -23.867 -18.035  0.00  0.00    +0.213 HD
ENDBRANCH  12  13
ENDBRANCH  11  12
ENDBRANCH  10  11
ENDBRANCH   9  10
ENDBRANCH   8   9
ENDBRANCH   1   8
TORSDOF 11
ENDMDL
MODEL 5
REMARK VINA RESULT:      -5.7      1.257      2.215
REMARK  Name = 4629337
REMARK  11 active torsions:
REMARK  status: ('A' for Active; 'I' for Inactive)
REMARK    1  A    between atoms: C_1  and  C_2
REMARK    2  A    between atoms: C_1  and  C_8
REMARK    3  A    between atoms: C_2  and  C_3
REMARK    4  A    between atoms: C_3  and  C_4
REMARK    5  A    between atoms: C_4  and  C_5
REMARK    6  A    between atoms: C_5  and  C_6
REMARK    7  A    between atoms: C_8  and  C_9
REMARK    8  A    between atoms: C_9  and  C_10
REMARK    9  A    between atoms: C_10  and  O_11
REMARK   10  A    between atoms: O_11  and  C_12
REMARK   11  A    between atoms: C_12  and  O_13
REMARK                            x       y       z     vdW  Elec       q    Type
REMARK                         _______ _______ _______ _____ _____    ______ ____
ROOT
ATOM      1  C   UNL     1      35.082 -18.932 -21.661  0.00  0.00    +0.000 C 
ENDROOT
BRANCH   1   2
ATOM      2  C   UNL     1      33.703 -19.208 -21.058  0.00  0.00    +0.000 C 
BRANCH   2   3
ATOM      3  C   UNL     1      33.637 -20.515 -20.263  0.00  0.00    +0.000 C 
BRANCH   3   4
ATOM      4  C   UNL     1      35.013 -21.067 -19.885  0.00  0.00    +0.000 C 
BRANCH   4   5
ATOM      5  C   UNL     1      34.901 -22.133 -18.791  0.00  0.00    +0.000 C 
BRANCH   5   6
ATOM      6  C   UNL     1      33.442 -22.498 -18.518  0.00  0.00    +0.000 C 
ATOM      7  C   UNL     1      33.293 -23.250 -17.206  0.00  0.00    +0.000 C 
ENDBRANCH   5   6
ENDBRANCH   4   5
ENDBRANCH   3   4
ENDBRANCH   2   3
ENDBRANCH   1   2
BRANCH   1   8
ATOM      8  C   UNL     1      35.053 -19.049 -23.187  0.00  0.00    +0.003 C 
BRANCH   8   9
ATOM      9  C   UNL     1      35.041 -17.668 -23.850  0.00  0.00    +0.032 C 
BRANCH   9  10
ATOM     10  C   UNL     1      34.303 -17.676 -25.183  0.00  0.00    +0.145 C 
BRANCH  10  11
ATOM     11  O   UNL     1      34.587 -16.483 -25.901  0.00  0.00    -0.327 OA
BRANCH  11  12
ATOM     12  C   UNL     1      33.550 -15.515 -25.772  0.00  0.00    +0.290 C 
BRANCH  12  13
ATOM     13  O   UNL     1      32.446 -15.765 -26.631  0.00  0.00    -0.356 OA
ATOM     14  H   UNL     1      31.911 -16.486 -26.266  0.00  0.00    +0.213 HD
ENDBRANCH  12  13
ENDBRANCH  11  12
ENDBRANCH  10  11
ENDBRANCH   9  10
ENDBRANCH   8   9
ENDBRANCH   1   8
TORSDOF 11
ENDMDL
MODEL 6
REMARK VINA RESULT:      -5.7      4.450      7.245
REMARK  Name = 4629337
REMARK  11 active torsions:
REMARK  status: ('A' for Active; 'I' for Inactive)
REMARK    1  A    between atoms: C_1  and  C_2
REMARK    2  A    between atoms: C_1  and  C_8
REMARK    3  A    between atoms: C_2  and  C_3
REMARK    4  A    between atoms: C_3  and  C_4
REMARK    5  A    between atoms: C_4  and  C_5
REMARK    6  A    between atoms: C_5  and  C_6
REMARK    7  A    between atoms: C_8  and  C_9
REMARK    8  A    between atoms: C_9  and  C_10
REMARK    9  A    between atoms: C_10  and  O_11
REMARK   10  A    between atoms: O_11  and  C_12
REMARK   11  A    between atoms: C_12  and  O_13
REMARK                            x       y       z     vdW  Elec       q    Type
REMARK                         _______ _______ _______ _____ _____    ______ ____
ROOT
ATOM      1  C   UNL     1      34.986 -18.549 -21.334  0.00  0.00    +0.000 C 
ENDROOT
BRANCH   1   2
ATOM      2  C   UNL     1      35.533 -18.296 -22.740  0.00  0.00    +0.000 C 
BRANCH   2   3
ATOM      3  C   UNL     1      34.931 -19.220 -23.803  0.00  0.00    +0.000 C 
BRANCH   3   4
ATOM      4  C   UNL     1      34.322 -18.468 -24.988  0.00  0.00    +0.000 C 
BRANCH   4   5
ATOM      5  C   UNL     1      34.908 -17.059 -25.111  0.00  0.00    +0.000 C 
BRANCH   5   6
ATOM      6  C   UNL     1      33.806 -16.004 -25.198  0.00  0.00    +0.000 C 
ATOM      7  C   UNL     1      33.718 -15.185 -23.921  0.00  0.00    +0.000 C 
ENDBRANCH   5   6
ENDBRANCH   4   5
ENDBRANCH   3   4
ENDBRANCH   2   3
ENDBRANCH   1   2
BRANCH   1   8
ATOM      8  C   UNL     1      33.821 -19.541 -21.364  0.00  0.00    +0.003 C 
BRANCH   8   9
ATOM      9  C   UNL     1      33.887 -20.512 -20.181  0.00  0.00    +0.032 C 
BRANCH   9  10
ATOM     10  C   UNL     1      35.289 -21.073 -19.975  0.00  0.00    +0.145 C 
BRANCH  10  11
ATOM     11  O   UNL     1      35.214 -22.344 -19.346  0.00  0.00    -0.327 OA
BRANCH  11  12
ATOM     12  C   UNL     1      33.910 -22.623 -18.843  0.00  0.00    +0.290 C 
BRANCH  12  13
ATOM     13  O   UNL     1      33.708 -23.999 -18.555  0.00  0.00    -0.356 OA
ATOM     14  H   UNL     1      34.479 -24.346 -18.081  0.00  0.00    +0.213 HD
ENDBRANCH  12  13
ENDBRANCH  11  12
ENDBRANCH  10  11
ENDBRANCH   9  10
ENDBRANCH   8   9
ENDBRANCH   1   8
TORSDOF 11
ENDMDL
MODEL 7
REMARK VINA RESULT:      -5.7      1.670      2.933
REMARK  Name = 4629337
REMARK  11 active torsions:
REMARK  status: ('A' for Active; 'I' for Inactive)
REMARK    1  A    between atoms: C_1  and  C_2
REMARK    2  A    between atoms: C_1  and  C_8
REMARK    3  A    between atoms: C_2  and  C_3
REMARK    4  A    between atoms: C_3  and  C_4
REMARK    5  A    between atoms: C_4  and  C_5
REMARK    6  A    between atoms: C_5  and  C_6
REMARK    7  A    between atoms: C_8  and  C_9
REMARK    8  A    between atoms: C_9  and  C_10
REMARK    9  A    between atoms: C_10  and  O_11
REMARK   10  A    between atoms: O_11  and  C_12
REMARK   11  A    between atoms: C_12  and  O_13
REMARK                            x       y       z     vdW  Elec       q    Type
REMARK                         _______ _______ _______ _____ _____    ______ ____
ROOT
ATOM      1  C   UNL     1      34.630 -19.083 -24.182  0.00  0.00    +0.000 C 
ENDROOT
BRANCH   1   2
ATOM      2  C   UNL     1      35.751 -18.594 -23.262  0.00  0.00    +0.000 C 
BRANCH   2   3
ATOM      3  C   UNL     1      35.594 -19.061 -21.811  0.00  0.00    +0.000 C 
BRANCH   3   4
ATOM      4  C   UNL     1      34.547 -18.269 -21.026  0.00  0.00    +0.000 C 
BRANCH   4   5
ATOM      5  C   UNL     1      34.888 -16.776 -20.998  0.00  0.00    +0.000 C 
BRANCH   5   6
ATOM      6  C   UNL     1      33.666 -15.920 -21.332  0.00  0.00    +0.000 C 
ATOM      7  C   UNL     1      34.053 -14.471 -21.578  0.00  0.00    +0.000 C 
ENDBRANCH   5   6
ENDBRANCH   4   5
ENDBRANCH   3   4
ENDBRANCH   2   3
ENDBRANCH   1   2
BRANCH   1   8
ATOM      8  C   UNL     1      34.332 -18.061 -25.282  0.00  0.00    +0.003 C 
BRANCH   8   9
ATOM      9  C   UNL     1      34.766 -16.653 -24.865  0.00  0.00    +0.032 C 
BRANCH   9  10
ATOM     10  C   UNL     1      33.678 -15.616 -25.118  0.00  0.00    +0.145 C 
BRANCH  10  11
ATOM     11  O   UNL     1      33.530 -15.402 -26.515  0.00  0.00    -0.327 OA
BRANCH  11  12
ATOM     12  C   UNL     1      33.146 -14.063 -26.818  0.00  0.00    +0.290 C 
BRANCH  12  13
ATOM     13  O   UNL     1      33.953 -13.468 -27.825  0.00  0.00    -0.356 OA
ATOM     14  H   UNL     1      34.739 -13.075 -27.417  0.00  0.00    +0.213 HD
ENDBRANCH  12  13
ENDBRANCH  11  12
ENDBRANCH  10  11
ENDBRANCH   9  10
ENDBRANCH   8   9
ENDBRANCH   1   8
TORSDOF 11
ENDMDL
MODEL 8
REMARK VINA RESULT:      -5.7      7.035      9.869
REMARK  Name = 4629337
REMARK  11 active torsions:
REMARK  status: ('A' for Active; 'I' for Inactive)
REMARK    1  A    between atoms: C_1  and  C_2
REMARK    2  A    between atoms: C_1  and  C_8
REMARK    3  A    between atoms: C_2  and  C_3
REMARK    4  A    between atoms: C_3  and  C_4
REMARK    5  A    between atoms: C_4  and  C_5
REMARK    6  A    between atoms: C_5  and  C_6
REMARK    7  A    between atoms: C_8  and  C_9
REMARK    8  A    between atoms: C_9  and  C_10
REMARK    9  A    between atoms: C_10  and  O_11
REMARK   10  A    between atoms: O_11  and  C_12
REMARK   11  A    between atoms: C_12  and  O_13
REMARK                            x       y       z     vdW  Elec       q    Type
REMARK                         _______ _______ _______ _____ _____    ______ ____
ROOT
ATOM      1  C   UNL     1      31.009 -22.849 -15.414  0.00  0.00    +0.000 C 
ENDROOT
BRANCH   1   2
ATOM      2  C   UNL     1      32.013 -23.886 -15.921  0.00  0.00    +0.000 C 
BRANCH   2   3
ATOM      3  C   UNL     1      33.461 -23.568 -15.539  0.00  0.00    +0.000 C 
BRANCH   3   4
ATOM      4  C   UNL     1      34.307 -23.074 -16.715  0.00  0.00    +0.000 C 
BRANCH   4   5
ATOM      5  C   UNL     1      33.478 -23.001 -18.001  0.00  0.00    +0.000 C 
BRANCH   5   6
ATOM      6  C   UNL     1      34.185 -22.171 -19.072  0.00  0.00    +0.000 C 
ATOM      7  C   UNL     1      33.265 -21.107 -19.648  0.00  0.00    +0.000 C 
ENDBRANCH   5   6
ENDBRANCH   4   5
ENDBRANCH   3   4
ENDBRANCH   2   3
ENDBRANCH   1   2
BRANCH   1   8
ATOM      8  C   UNL     1      29.819 -22.717 -16.370  0.00  0.00    +0.003 C 
BRANCH   8   9
ATOM      9  C   UNL     1      28.564 -23.373 -15.787  0.00  0.00    +0.032 C 
BRANCH   9  10
ATOM     10  C   UNL     1      27.338 -22.476 -15.906  0.00  0.00    +0.145 C 
BRANCH  10  11
ATOM     11  O   UNL     1      27.480 -21.607 -17.022  0.00  0.00    -0.327 OA
BRANCH  11  12
ATOM     12  C   UNL     1      26.253 -21.426 -17.725  0.00  0.00    +0.290 C 
BRANCH  12  13
ATOM     13  O   UNL     1      25.971 -20.063 -18.008  0.00  0.00    -0.356 OA
ATOM     14  H   UNL     1      25.014 -19.947 -18.110  0.00  0.00    +0.213 HD
ENDBRANCH  12  13
ENDBRANCH  11  12
ENDBRANCH  10  11
ENDBRANCH   9  10
ENDBRANCH   8   9
ENDBRANCH   1   8
TORSDOF 11
ENDMDL
MODEL 9
REMARK VINA RESULT:      -5.7      6.614     10.130
REMARK  Name = 4629337
REMARK  11 active torsions:
REMARK  status: ('A' for Active; 'I' for Inactive)
REMARK    1  A    between atoms: C_1  and  C_2
REMARK    2  A    between atoms: C_1  and  C_8
REMARK    3  A    between atoms: C_2  and  C_3
REMARK    4  A    between atoms: C_3  and  C_4
REMARK    5  A    between atoms: C_4  and  C_5
REMARK    6  A    between atoms: C_5  and  C_6
REMARK    7  A    between atoms: C_8  and  C_9
REMARK    8  A    between atoms: C_9  and  C_10
REMARK    9  A    between atoms: C_10  and  O_11
REMARK   10  A    between atoms: O_11  and  C_12
REMARK   11  A    between atoms: C_12  and  O_13
REMARK                            x       y       z     vdW  Elec       q    Type
REMARK                         _______ _______ _______ _____ _____    ______ ____
ROOT
ATOM      1  C   UNL     1      33.288 -23.040 -17.826  0.00  0.00    +0.000 C 
ENDROOT
BRANCH   1   2
ATOM      2  C   UNL     1      33.643 -22.074 -18.958  0.00  0.00    +0.000 C 
BRANCH   2   3
ATOM      3  C   UNL     1      35.149 -21.968 -19.219  0.00  0.00    +0.000 C 
BRANCH   3   4
ATOM      4  C   UNL     1      35.520 -20.851 -20.195  0.00  0.00    +0.000 C 
BRANCH   4   5
ATOM      5  C   UNL     1      34.287 -20.040 -20.605  0.00  0.00    +0.000 C 
BRANCH   5   6
ATOM      6  C   UNL     1      34.671 -18.850 -21.484  0.00  0.00    +0.000 C 
ATOM      7  C   UNL     1      34.757 -19.245 -22.949  0.00  0.00    +0.000 C 
ENDBRANCH   5   6
ENDBRANCH   4   5
ENDBRANCH   3   4
ENDBRANCH   2   3
ENDBRANCH   1   2
BRANCH   1   8
ATOM      8  C   UNL     1      34.399 -23.091 -16.773  0.00  0.00    +0.003 C 
BRANCH   8   9
ATOM      9  C   UNL     1      33.863 -23.571 -15.422  0.00  0.00    +0.032 C 
BRANCH   9  10
ATOM     10  C   UNL     1      34.800 -24.569 -14.752  0.00  0.00    +0.145 C 
BRANCH  10  11
ATOM     11  O   UNL     1      35.692 -25.116 -15.713  0.00  0.00    -0.327 OA
BRANCH  11  12
ATOM     12  C   UNL     1      36.402 -26.244 -15.210  0.00  0.00    +0.290 C 
BRANCH  12  13
ATOM     13  O   UNL     1      36.761 -27.172 -16.224  0.00  0.00    -0.356 OA
ATOM     14  H   UNL     1      35.984 -27.372 -16.768  0.00  0.00    +0.213 HD
ENDBRANCH  12  13
ENDBRANCH  11  12
ENDBRANCH  10  11
ENDBRANCH   9  10
ENDBRANCH   8   9
ENDBRANCH   1   8
TORSDOF 11
ENDMDL
