MODEL 1
REMARK VINA RESULT:      -8.5      0.000      0.000
REMARK  Name = 65628
REMARK  10 active torsions:
REMARK  status: ('A' for Active; 'I' for Inactive)
REMARK    1  A    between atoms: C_4  and  C_18
REMARK    2  A    between atoms: C_6  and  N_11
REMARK    3  A    between atoms: N_11  and  C_12
REMARK    4  A    between atoms: N_11  and  C_15
REMARK    5  A    between atoms: C_12  and  C_14
REMARK    6  A    between atoms: C_15  and  C_17
REMARK    7  A    between atoms: C_18  and  C_19
REMARK    8  A    between atoms: C_19  and  C_20
REMARK    9  A    between atoms: C_20  and  C_22
REMARK   10  A    between atoms: C_22  and  O_23
REMARK                            x       y       z     vdW  Elec       q    Type
REMARK                         _______ _______ _______ _____ _____    ______ ____
ROOT
ATOM      1  N   UNL     1      34.261 -22.760 -17.561  0.00  0.00    -0.262 N 
ATOM      2  N   UNL     1      32.451 -21.995 -18.602  0.00  0.00    -0.394 NA
ATOM      3  C   UNL     1      34.728 -21.927 -18.546  0.00  0.00    +0.079 C 
ATOM      4  C   UNL     1      32.896 -22.767 -17.635  0.00  0.00    +0.163 C 
ATOM      5  C   UNL     1      33.580 -21.463 -19.182  0.00  0.00    +0.129 C 
ATOM      6  C   UNL     1      34.992 -20.182 -20.658  0.00  0.00    +0.032 C 
ATOM      7  C   UNL     1      33.707 -20.572 -20.260  0.00  0.00    +0.101 C 
ATOM      8  C   UNL     1      36.018 -21.553 -18.926  0.00  0.00    +0.018 C 
ATOM      9  C   UNL     1      36.125 -20.665 -20.001  0.00  0.00    +0.012 C 
ATOM     10  C   UNL     1      35.070 -23.495 -16.617  0.00  0.00    +0.119 C 
ENDROOT
BRANCH   6  11
ATOM     11  N   UNL     1      35.141 -19.285 -21.740  0.00  0.00    -0.308 N 
BRANCH  11  12
ATOM     12  C   UNL     1      34.545 -19.584 -23.024  0.00  0.00    +0.108 C 
BRANCH  12  14
ATOM     13 CL   UNL     1      34.151 -17.953 -25.181  0.00  0.00    -0.112 Cl
ATOM     14  C   UNL     1      35.278 -18.866 -24.147  0.00  0.00    +0.116 C 
ENDBRANCH  12  14
ENDBRANCH  11  12
BRANCH  11  15
ATOM     15  C   UNL     1      35.878 -18.051 -21.570  0.00  0.00    +0.108 C 
BRANCH  15  17
ATOM     16 CL   UNL     1      34.695 -15.709 -22.329  0.00  0.00    -0.112 Cl
ATOM     17  C   UNL     1      34.972 -16.938 -21.069  0.00  0.00    +0.116 C 
ENDBRANCH  15  17
ENDBRANCH  11  15
ENDBRANCH   6  11
BRANCH   4  18
ATOM     18  C   UNL     1      32.063 -23.565 -16.713  0.00  0.00    +0.076 C 
BRANCH  18  19
ATOM     19  C   UNL     1      30.801 -22.804 -16.247  0.00  0.00    +0.021 C 
BRANCH  19  20
ATOM     20  C   UNL     1      29.572 -23.699 -16.088  0.00  0.00    +0.110 C 
BRANCH  20  22
ATOM     21  O   UNL     1      27.699 -23.982 -17.620  0.00  0.00    -0.250 OA
ATOM     22  C   UNL     1      28.397 -23.253 -16.929  0.00  0.00    +0.314 C 
BRANCH  22  23
ATOM     23  O   UNL     1      28.208 -21.909 -16.845  0.00  0.00    -0.480 OA
ATOM     24  H   UNL     1      27.479 -21.568 -16.365  0.00  0.00    +0.295 HD
ENDBRANCH  22  23
ENDBRANCH  20  22
ENDBRANCH  19  20
ENDBRANCH  18  19
ENDBRANCH   4  18
TORSDOF 10
ENDMDL
MODEL 2
REMARK VINA RESULT:      -8.5      0.083      1.831
REMARK  Name = 65628
REMARK  10 active torsions:
REMARK  status: ('A' for Active; 'I' for Inactive)
REMARK    1  A    between atoms: C_4  and  C_18
REMARK    2  A    between atoms: C_6  and  N_11
REMARK    3  A    between atoms: N_11  and  C_12
REMARK    4  A    between atoms: N_11  and  C_15
REMARK    5  A    between atoms: C_12  and  C_14
REMARK    6  A    between atoms: C_15  and  C_17
REMARK    7  A    between atoms: C_18  and  C_19
REMARK    8  A    between atoms: C_19  and  C_20
REMARK    9  A    between atoms: C_20  and  C_22
REMARK   10  A    between atoms: C_22  and  O_23
REMARK                            x       y       z     vdW  Elec       q    Type
REMARK                         _______ _______ _______ _____ _____    ______ ____
ROOT
ATOM      1  N   UNL     1      34.215 -22.779 -17.554  0.00  0.00    -0.262 N 
ATOM      2  N   UNL     1      32.410 -22.007 -18.596  0.00  0.00    -0.394 NA
ATOM      3  C   UNL     1      34.687 -21.939 -18.530  0.00  0.00    +0.079 C 
ATOM      4  C   UNL     1      32.850 -22.786 -17.634  0.00  0.00    +0.163 C 
ATOM      5  C   UNL     1      33.541 -21.470 -19.167  0.00  0.00    +0.129 C 
ATOM      6  C   UNL     1      34.960 -20.176 -20.626  0.00  0.00    +0.032 C 
ATOM      7  C   UNL     1      33.673 -20.570 -20.237  0.00  0.00    +0.101 C 
ATOM      8  C   UNL     1      35.978 -21.561 -18.900  0.00  0.00    +0.018 C 
ATOM      9  C   UNL     1      36.091 -20.664 -19.967  0.00  0.00    +0.012 C 
ATOM     10  C   UNL     1      35.020 -23.522 -16.611  0.00  0.00    +0.119 C 
ENDROOT
BRANCH   6  11
ATOM     11  N   UNL     1      35.114 -19.271 -21.700  0.00  0.00    -0.308 N 
BRANCH  11  12
ATOM     12  C   UNL     1      35.865 -18.046 -21.521  0.00  0.00    +0.108 C 
BRANCH  12  14
ATOM     13 CL   UNL     1      34.677 -15.700 -22.264  0.00  0.00    -0.112 Cl
ATOM     14  C   UNL     1      34.972 -16.928 -21.008  0.00  0.00    +0.116 C 
ENDBRANCH  12  14
ENDBRANCH  11  12
BRANCH  11  15
ATOM     15  C   UNL     1      34.536 -19.566 -22.994  0.00  0.00    +0.108 C 
BRANCH  15  17
ATOM     16 CL   UNL     1      34.163 -17.991 -25.195  0.00  0.00    -0.112 Cl
ATOM     17  C   UNL     1      35.284 -18.845 -24.104  0.00  0.00    +0.116 C 
ENDBRANCH  15  17
ENDBRANCH  11  15
ENDBRANCH   6  11
BRANCH   4  18
ATOM     18  C   UNL     1      32.013 -23.592 -16.722  0.00  0.00    +0.076 C 
BRANCH  18  19
ATOM     19  C   UNL     1      30.824 -22.790 -16.147  0.00  0.00    +0.021 C 
BRANCH  19  20
ATOM     20  C   UNL     1      29.530 -23.598 -16.057  0.00  0.00    +0.110 C 
BRANCH  20  22
ATOM     21  O   UNL     1      28.075 -21.834 -16.900  0.00  0.00    -0.250 OA
ATOM     22  C   UNL     1      28.403 -23.012 -16.879  0.00  0.00    +0.314 C 
BRANCH  22  23
ATOM     23  O   UNL     1      27.760 -23.972 -17.596  0.00  0.00    -0.480 OA
ATOM     24  H   UNL     1      27.052 -23.737 -18.163  0.00  0.00    +0.295 HD
ENDBRANCH  22  23
ENDBRANCH  20  22
ENDBRANCH  19  20
ENDBRANCH  18  19
ENDBRANCH   4  18
TORSDOF 10
ENDMDL
MODEL 3
REMARK VINA RESULT:      -8.2      4.998      8.006
REMARK  Name = 65628
REMARK  10 active torsions:
REMARK  status: ('A' for Active; 'I' for Inactive)
REMARK    1  A    between atoms: C_4  and  C_18
REMARK    2  A    between atoms: C_6  and  N_11
REMARK    3  A    between atoms: N_11  and  C_12
REMARK    4  A    between atoms: N_11  and  C_15
REMARK    5  A    between atoms: C_12  and  C_14
REMARK    6  A    between atoms: C_15  and  C_17
REMARK    7  A    between atoms: C_18  and  C_19
REMARK    8  A    between atoms: C_19  and  C_20
REMARK    9  A    between atoms: C_20  and  C_22
REMARK   10  A    between atoms: C_22  and  O_23
REMARK                            x       y       z     vdW  Elec       q    Type
REMARK                         _______ _______ _______ _____ _____    ______ ____
ROOT
ATOM      1  N   UNL     1      34.570 -17.033 -24.118  0.00  0.00    -0.262 N 
ATOM      2  N   UNL     1      35.031 -16.100 -22.154  0.00  0.00    -0.394 NA
ATOM      3  C   UNL     1      34.079 -15.755 -24.195  0.00  0.00    +0.079 C 
ATOM      4  C   UNL     1      35.129 -17.191 -22.881  0.00  0.00    +0.163 C 
ATOM      5  C   UNL     1      34.378 -15.193 -22.957  0.00  0.00    +0.129 C 
ATOM      6  C   UNL     1      33.341 -13.149 -23.705  0.00  0.00    +0.032 C 
ATOM      7  C   UNL     1      34.005 -13.863 -22.700  0.00  0.00    +0.101 C 
ATOM      8  C   UNL     1      33.417 -15.063 -25.210  0.00  0.00    +0.018 C 
ATOM      9  C   UNL     1      33.053 -13.740 -24.937  0.00  0.00    +0.012 C 
ATOM     10  C   UNL     1      34.506 -18.031 -25.161  0.00  0.00    +0.119 C 
ENDROOT
BRANCH   6  11
ATOM     11  N   UNL     1      32.956 -11.810 -23.466  0.00  0.00    -0.308 N 
BRANCH  11  12
ATOM     12  C   UNL     1      33.313 -10.769 -24.407  0.00  0.00    +0.108 C 
BRANCH  12  14
ATOM     13 CL   UNL     1      35.577 -10.373 -25.885  0.00  0.00    -0.112 Cl
ATOM     14  C   UNL     1      34.786 -10.409 -24.290  0.00  0.00    +0.116 C 
ENDBRANCH  12  14
ENDBRANCH  11  12
BRANCH  11  15
ATOM     15  C   UNL     1      32.190 -11.468 -22.287  0.00  0.00    +0.108 C 
BRANCH  15  17
ATOM     16 CL   UNL     1      32.378  -8.901 -21.373  0.00  0.00    -0.112 Cl
ATOM     17  C   UNL     1      31.565 -10.089 -22.422  0.00  0.00    +0.116 C 
ENDBRANCH  15  17
ENDBRANCH  11  15
ENDBRANCH   6  11
BRANCH   4  18
ATOM     18  C   UNL     1      35.757 -18.460 -22.458  0.00  0.00    +0.076 C 
BRANCH  18  19
ATOM     19  C   UNL     1      35.230 -18.952 -21.091  0.00  0.00    +0.021 C 
BRANCH  19  20
ATOM     20  C   UNL     1      33.835 -19.574 -21.163  0.00  0.00    +0.110 C 
BRANCH  20  22
ATOM     21  O   UNL     1      32.507 -20.762 -19.501  0.00  0.00    -0.250 OA
ATOM     22  C   UNL     1      33.576 -20.586 -20.069  0.00  0.00    +0.314 C 
BRANCH  22  23
ATOM     23  O   UNL     1      34.701 -21.284 -19.762  0.00  0.00    -0.480 OA
ATOM     24  H   UNL     1      35.021 -21.939 -20.352  0.00  0.00    +0.295 HD
ENDBRANCH  22  23
ENDBRANCH  20  22
ENDBRANCH  19  20
ENDBRANCH  18  19
ENDBRANCH   4  18
TORSDOF 10
ENDMDL
MODEL 4
REMARK VINA RESULT:      -8.2      4.274      7.058
REMARK  Name = 65628
REMARK  10 active torsions:
REMARK  status: ('A' for Active; 'I' for Inactive)
REMARK    1  A    between atoms: C_4  and  C_18
REMARK    2  A    between atoms: C_6  and  N_11
REMARK    3  A    between atoms: N_11  and  C_12
REMARK    4  A    between atoms: N_11  and  C_15
REMARK    5  A    between atoms: C_12  and  C_14
REMARK    6  A    between atoms: C_15  and  C_17
REMARK    7  A    between atoms: C_18  and  C_19
REMARK    8  A    between atoms: C_19  and  C_20
REMARK    9  A    between atoms: C_20  and  C_22
REMARK   10  A    between atoms: C_22  and  O_23
REMARK                            x       y       z     vdW  Elec       q    Type
REMARK                         _______ _______ _______ _____ _____    ______ ____
ROOT
ATOM      1  N   UNL     1      34.892 -18.097 -23.134  0.00  0.00    -0.262 N 
ATOM      2  N   UNL     1      35.064 -16.817 -21.325  0.00  0.00    -0.394 NA
ATOM      3  C   UNL     1      34.531 -16.837 -23.540  0.00  0.00    +0.079 C 
ATOM      4  C   UNL     1      35.202 -18.033 -21.804  0.00  0.00    +0.163 C 
ATOM      5  C   UNL     1      34.645 -16.057 -22.393  0.00  0.00    +0.129 C 
ATOM      6  C   UNL     1      33.932 -14.155 -23.693  0.00  0.00    +0.032 C 
ATOM      7  C   UNL     1      34.342 -14.687 -22.464  0.00  0.00    +0.101 C 
ATOM      8  C   UNL     1      34.123 -16.329 -24.775  0.00  0.00    +0.018 C 
ATOM      9  C   UNL     1      33.826 -14.964 -24.826  0.00  0.00    +0.012 C 
ATOM     10  C   UNL     1      34.936 -19.277 -23.967  0.00  0.00    +0.119 C 
ENDROOT
BRANCH   6  11
ATOM     11  N   UNL     1      33.623 -12.779 -23.785  0.00  0.00    -0.308 N 
BRANCH  11  12
ATOM     12  C   UNL     1      33.174 -12.052 -22.617  0.00  0.00    +0.108 C 
BRANCH  12  14
ATOM     13 CL   UNL     1      31.157 -11.487 -20.861  0.00  0.00    -0.112 Cl
ATOM     14  C   UNL     1      31.710 -12.342 -22.323  0.00  0.00    +0.116 C 
ENDBRANCH  12  14
ENDBRANCH  11  12
BRANCH  11  15
ATOM     15  C   UNL     1      33.767 -12.080 -25.045  0.00  0.00    +0.108 C 
BRANCH  15  17
ATOM     16 CL   UNL     1      35.634 -10.376 -26.079  0.00  0.00    -0.112 Cl
ATOM     17  C   UNL     1      34.398 -10.713 -24.841  0.00  0.00    +0.116 C 
ENDBRANCH  15  17
ENDBRANCH  11  15
ENDBRANCH   6  11
BRANCH   4  18
ATOM     18  C   UNL     1      35.636 -19.220 -21.040  0.00  0.00    +0.076 C 
BRANCH  18  19
ATOM     19  C   UNL     1      34.449 -20.110 -20.607  0.00  0.00    +0.021 C 
BRANCH  19  20
ATOM     20  C   UNL     1      34.856 -21.270 -19.698  0.00  0.00    +0.110 C 
BRANCH  20  22
ATOM     21  O   UNL     1      32.600 -21.805 -18.947  0.00  0.00    -0.250 OA
ATOM     22  C   UNL     1      33.700 -22.175 -19.333  0.00  0.00    +0.314 C 
BRANCH  22  23
ATOM     23  O   UNL     1      34.035 -23.486 -19.465  0.00  0.00    -0.480 OA
ATOM     24  H   UNL     1      33.803 -24.098 -18.795  0.00  0.00    +0.295 HD
ENDBRANCH  22  23
ENDBRANCH  20  22
ENDBRANCH  19  20
ENDBRANCH  18  19
ENDBRANCH   4  18
TORSDOF 10
ENDMDL
MODEL 5
REMARK VINA RESULT:      -8.1      1.610      2.272
REMARK  Name = 65628
REMARK  10 active torsions:
REMARK  status: ('A' for Active; 'I' for Inactive)
REMARK    1  A    between atoms: C_4  and  C_18
REMARK    2  A    between atoms: C_6  and  N_11
REMARK    3  A    between atoms: N_11  and  C_12
REMARK    4  A    between atoms: N_11  and  C_15
REMARK    5  A    between atoms: C_12  and  C_14
REMARK    6  A    between atoms: C_15  and  C_17
REMARK    7  A    between atoms: C_18  and  C_19
REMARK    8  A    between atoms: C_19  and  C_20
REMARK    9  A    between atoms: C_20  and  C_22
REMARK   10  A    between atoms: C_22  and  O_23
REMARK                            x       y       z     vdW  Elec       q    Type
REMARK                         _______ _______ _______ _____ _____    ______ ____
ROOT
ATOM      1  N   UNL     1      35.363 -21.364 -19.158  0.00  0.00    -0.262 N 
ATOM      2  N   UNL     1      33.338 -21.090 -20.030  0.00  0.00    -0.394 NA
ATOM      3  C   UNL     1      35.502 -20.383 -20.106  0.00  0.00    +0.079 C 
ATOM      4  C   UNL     1      34.053 -21.754 -19.150  0.00  0.00    +0.163 C 
ATOM      5  C   UNL     1      34.224 -20.230 -20.637  0.00  0.00    +0.129 C 
ATOM      6  C   UNL     1      35.103 -18.525 -22.097  0.00  0.00    +0.032 C 
ATOM      7  C   UNL     1      34.013 -19.284 -21.653  0.00  0.00    +0.101 C 
ATOM      8  C   UNL     1      36.603 -19.639 -20.534  0.00  0.00    +0.018 C 
ATOM      9  C   UNL     1      36.374 -18.701 -21.546  0.00  0.00    +0.012 C 
ATOM     10  C   UNL     1      36.417 -21.889 -18.319  0.00  0.00    +0.119 C 
ENDROOT
BRANCH   6  11
ATOM     11  N   UNL     1      34.911 -17.567 -23.119  0.00  0.00    -0.308 N 
BRANCH  11  12
ATOM     12  C   UNL     1      34.497 -17.983 -24.442  0.00  0.00    +0.108 C 
BRANCH  12  14
ATOM     13 CL   UNL     1      33.345 -15.911 -25.800  0.00  0.00    -0.112 Cl
ATOM     14  C   UNL     1      34.788 -16.901 -25.470  0.00  0.00    +0.116 C 
ENDBRANCH  12  14
ENDBRANCH  11  12
BRANCH  11  15
ATOM     15  C   UNL     1      35.112 -16.159 -22.848  0.00  0.00    +0.108 C 
BRANCH  15  17
ATOM     16 CL   UNL     1      34.474 -15.345 -20.319  0.00  0.00    -0.112 Cl
ATOM     17  C   UNL     1      33.975 -15.596 -22.011  0.00  0.00    +0.116 C 
ENDBRANCH  15  17
ENDBRANCH  11  15
ENDBRANCH   6  11
BRANCH   4  18
ATOM     18  C   UNL     1      33.551 -22.803 -18.239  0.00  0.00    +0.076 C 
BRANCH  18  19
ATOM     19  C   UNL     1      32.167 -22.456 -17.645  0.00  0.00    +0.021 C 
BRANCH  19  20
ATOM     20  C   UNL     1      31.812 -23.277 -16.405  0.00  0.00    +0.110 C 
BRANCH  20  22
ATOM     21  O   UNL     1      29.821 -23.762 -15.088  0.00  0.00    -0.250 OA
ATOM     22  C   UNL     1      30.346 -23.204 -16.041  0.00  0.00    +0.314 C 
BRANCH  22  23
ATOM     23  O   UNL     1      29.651 -22.446 -16.930  0.00  0.00    -0.480 OA
ATOM     24  H   UNL     1      29.927 -22.402 -17.825  0.00  0.00    +0.295 HD
ENDBRANCH  22  23
ENDBRANCH  20  22
ENDBRANCH  19  20
ENDBRANCH  18  19
ENDBRANCH   4  18
TORSDOF 10
ENDMDL
MODEL 6
REMARK VINA RESULT:      -8.0      1.615      2.812
REMARK  Name = 65628
REMARK  10 active torsions:
REMARK  status: ('A' for Active; 'I' for Inactive)
REMARK    1  A    between atoms: C_4  and  C_18
REMARK    2  A    between atoms: C_6  and  N_11
REMARK    3  A    between atoms: N_11  and  C_12
REMARK    4  A    between atoms: N_11  and  C_15
REMARK    5  A    between atoms: C_12  and  C_14
REMARK    6  A    between atoms: C_15  and  C_17
REMARK    7  A    between atoms: C_18  and  C_19
REMARK    8  A    between atoms: C_19  and  C_20
REMARK    9  A    between atoms: C_20  and  C_22
REMARK   10  A    between atoms: C_22  and  O_23
REMARK                            x       y       z     vdW  Elec       q    Type
REMARK                         _______ _______ _______ _____ _____    ______ ____
ROOT
ATOM      1  N   UNL     1      35.302 -21.366 -19.184  0.00  0.00    -0.262 N 
ATOM      2  N   UNL     1      33.271 -21.056 -20.034  0.00  0.00    -0.394 NA
ATOM      3  C   UNL     1      35.443 -20.371 -20.118  0.00  0.00    +0.079 C 
ATOM      4  C   UNL     1      33.987 -21.741 -19.171  0.00  0.00    +0.163 C 
ATOM      5  C   UNL     1      34.162 -20.196 -20.635  0.00  0.00    +0.129 C 
ATOM      6  C   UNL     1      35.047 -18.478 -22.076  0.00  0.00    +0.032 C 
ATOM      7  C   UNL     1      33.952 -19.231 -21.634  0.00  0.00    +0.101 C 
ATOM      8  C   UNL     1      36.548 -19.633 -20.544  0.00  0.00    +0.018 C 
ATOM      9  C   UNL     1      36.321 -18.677 -21.539  0.00  0.00    +0.012 C 
ATOM     10  C   UNL     1      36.356 -21.915 -18.363  0.00  0.00    +0.119 C 
ENDROOT
BRANCH   6  11
ATOM     11  N   UNL     1      34.857 -17.502 -23.080  0.00  0.00    -0.308 N 
BRANCH  11  12
ATOM     12  C   UNL     1      35.022 -16.097 -22.773  0.00  0.00    +0.108 C 
BRANCH  12  14
ATOM     13 CL   UNL     1      32.769 -14.650 -22.227  0.00  0.00    -0.112 Cl
ATOM     14  C   UNL     1      34.102 -15.674 -21.638  0.00  0.00    +0.116 C 
ENDBRANCH  12  14
ENDBRANCH  11  12
BRANCH  11  15
ATOM     15  C   UNL     1      34.511 -17.898 -24.429  0.00  0.00    +0.108 C 
BRANCH  15  17
ATOM     16 CL   UNL     1      33.324 -15.873 -25.826  0.00  0.00    -0.112 Cl
ATOM     17  C   UNL     1      34.802 -16.780 -25.418  0.00  0.00    +0.116 C 
ENDBRANCH  15  17
ENDBRANCH  11  15
ENDBRANCH   6  11
BRANCH   4  18
ATOM     18  C   UNL     1      33.481 -22.799 -18.273  0.00  0.00    +0.076 C 
BRANCH  18  19
ATOM     19  C   UNL     1      32.141 -22.417 -17.606  0.00  0.00    +0.021 C 
BRANCH  19  20
ATOM     20  C   UNL     1      31.769 -23.313 -16.425  0.00  0.00    +0.110 C 
BRANCH  20  22
ATOM     21  O   UNL     1      29.726 -24.080 -15.340  0.00  0.00    -0.250 OA
ATOM     22  C   UNL     1      30.282 -23.349 -16.148  0.00  0.00    +0.314 C 
BRANCH  22  23
ATOM     23  O   UNL     1      29.609 -22.469 -16.935  0.00  0.00    -0.480 OA
ATOM     24  H   UNL     1      29.945 -22.246 -17.782  0.00  0.00    +0.295 HD
ENDBRANCH  22  23
ENDBRANCH  20  22
ENDBRANCH  19  20
ENDBRANCH  18  19
ENDBRANCH   4  18
TORSDOF 10
ENDMDL
MODEL 7
REMARK VINA RESULT:      -7.9      1.636      1.843
REMARK  Name = 65628
REMARK  10 active torsions:
REMARK  status: ('A' for Active; 'I' for Inactive)
REMARK    1  A    between atoms: C_4  and  C_18
REMARK    2  A    between atoms: C_6  and  N_11
REMARK    3  A    between atoms: N_11  and  C_12
REMARK    4  A    between atoms: N_11  and  C_15
REMARK    5  A    between atoms: C_12  and  C_14
REMARK    6  A    between atoms: C_15  and  C_17
REMARK    7  A    between atoms: C_18  and  C_19
REMARK    8  A    between atoms: C_19  and  C_20
REMARK    9  A    between atoms: C_20  and  C_22
REMARK   10  A    between atoms: C_22  and  O_23
REMARK                            x       y       z     vdW  Elec       q    Type
REMARK                         _______ _______ _______ _____ _____    ______ ____
ROOT
ATOM      1  N   UNL     1      34.450 -22.756 -17.481  0.00  0.00    -0.262 N 
ATOM      2  N   UNL     1      32.591 -22.175 -18.551  0.00  0.00    -0.394 NA
ATOM      3  C   UNL     1      34.852 -21.909 -18.482  0.00  0.00    +0.079 C 
ATOM      4  C   UNL     1      33.092 -22.883 -17.564  0.00  0.00    +0.163 C 
ATOM      5  C   UNL     1      33.674 -21.561 -19.136  0.00  0.00    +0.129 C 
ATOM      6  C   UNL     1      34.982 -20.196 -20.632  0.00  0.00    +0.032 C 
ATOM      7  C   UNL     1      33.732 -20.686 -20.234  0.00  0.00    +0.101 C 
ATOM      8  C   UNL     1      36.108 -21.434 -18.862  0.00  0.00    +0.018 C 
ATOM      9  C   UNL     1      36.148 -20.564 -19.957  0.00  0.00    +0.012 C 
ATOM     10  C   UNL     1      35.312 -23.398 -16.515  0.00  0.00    +0.119 C 
ENDROOT
BRANCH   6  11
ATOM     11  N   UNL     1      35.063 -19.314 -21.734  0.00  0.00    -0.308 N 
BRANCH  11  12
ATOM     12  C   UNL     1      34.374 -19.624 -22.969  0.00  0.00    +0.108 C 
BRANCH  12  14
ATOM     13 CL   UNL     1      34.203 -17.794 -24.992  0.00  0.00    -0.112 Cl
ATOM     14  C   UNL     1      35.130 -19.073 -24.168  0.00  0.00    +0.116 C 
ENDBRANCH  12  14
ENDBRANCH  11  12
BRANCH  11  15
ATOM     15  C   UNL     1      35.821 -18.085 -21.633  0.00  0.00    +0.108 C 
BRANCH  15  17
ATOM     16 CL   UNL     1      34.706 -15.650 -22.170  0.00  0.00    -0.112 Cl
ATOM     17  C   UNL     1      34.985 -16.977 -21.014  0.00  0.00    +0.116 C 
ENDBRANCH  15  17
ENDBRANCH  11  15
ENDBRANCH   6  11
BRANCH   4  18
ATOM     18  C   UNL     1      32.323 -23.730 -16.628  0.00  0.00    +0.076 C 
BRANCH  18  19
ATOM     19  C   UNL     1      31.054 -23.024 -16.100  0.00  0.00    +0.021 C 
BRANCH  19  20
ATOM     20  C   UNL     1      30.960 -22.999 -14.574  0.00  0.00    +0.110 C 
BRANCH  20  22
ATOM     21  O   UNL     1      31.770 -24.821 -13.173  0.00  0.00    -0.250 OA
ATOM     22  C   UNL     1      30.940 -24.380 -13.956  0.00  0.00    +0.314 C 
BRANCH  22  23
ATOM     23  O   UNL     1      29.878 -25.106 -14.395  0.00  0.00    -0.480 OA
ATOM     24  H   UNL     1      29.006 -24.801 -14.238  0.00  0.00    +0.295 HD
ENDBRANCH  22  23
ENDBRANCH  20  22
ENDBRANCH  19  20
ENDBRANCH  18  19
ENDBRANCH   4  18
TORSDOF 10
ENDMDL
MODEL 8
REMARK VINA RESULT:      -7.9      7.128     10.678
REMARK  Name = 65628
REMARK  10 active torsions:
REMARK  status: ('A' for Active; 'I' for Inactive)
REMARK    1  A    between atoms: C_4  and  C_18
REMARK    2  A    between atoms: C_6  and  N_11
REMARK    3  A    between atoms: N_11  and  C_12
REMARK    4  A    between atoms: N_11  and  C_15
REMARK    5  A    between atoms: C_12  and  C_14
REMARK    6  A    between atoms: C_15  and  C_17
REMARK    7  A    between atoms: C_18  and  C_19
REMARK    8  A    between atoms: C_19  and  C_20
REMARK    9  A    between atoms: C_20  and  C_22
REMARK   10  A    between atoms: C_22  and  O_23
REMARK                            x       y       z     vdW  Elec       q    Type
REMARK                         _______ _______ _______ _____ _____    ______ ____
ROOT
ATOM      1  N   UNL     1      31.850 -11.793 -21.959  0.00  0.00    -0.262 N 
ATOM      2  N   UNL     1      33.335 -11.749 -23.612  0.00  0.00    -0.394 NA
ATOM      3  C   UNL     1      32.419 -13.041 -21.975  0.00  0.00    +0.079 C 
ATOM      4  C   UNL     1      32.430 -11.059 -22.955  0.00  0.00    +0.163 C 
ATOM      5  C   UNL     1      33.341 -12.989 -23.016  0.00  0.00    +0.129 C 
ATOM      6  C   UNL     1      33.919 -15.280 -22.534  0.00  0.00    +0.032 C 
ATOM      7  C   UNL     1      34.111 -14.128 -23.306  0.00  0.00    +0.101 C 
ATOM      8  C   UNL     1      32.209 -14.178 -21.193  0.00  0.00    +0.018 C 
ATOM      9  C   UNL     1      32.984 -15.302 -21.496  0.00  0.00    +0.012 C 
ATOM     10  C   UNL     1      30.822 -11.340 -21.050  0.00  0.00    +0.119 C 
ENDROOT
BRANCH   6  11
ATOM     11  N   UNL     1      34.684 -16.436 -22.809  0.00  0.00    -0.308 N 
BRANCH  11  12
ATOM     12  C   UNL     1      35.301 -16.611 -24.107  0.00  0.00    +0.108 C 
BRANCH  12  14
ATOM     13 CL   UNL     1      34.236 -18.994 -24.915  0.00  0.00    -0.112 Cl
ATOM     14  C   UNL     1      34.324 -17.224 -25.098  0.00  0.00    +0.116 C 
ENDBRANCH  12  14
ENDBRANCH  11  12
BRANCH  11  15
ATOM     15  C   UNL     1      34.871 -17.449 -21.792  0.00  0.00    +0.108 C 
BRANCH  15  17
ATOM     16 CL   UNL     1      36.430 -19.429 -20.739  0.00  0.00    -0.112 Cl
ATOM     17  C   UNL     1      36.164 -18.216 -22.016  0.00  0.00    +0.116 C 
ENDBRANCH  15  17
ENDBRANCH  11  15
ENDBRANCH   6  11
BRANCH   4  18
ATOM     18  C   UNL     1      32.050  -9.656 -23.221  0.00  0.00    +0.076 C 
BRANCH  18  19
ATOM     19  C   UNL     1      32.937  -8.648 -22.455  0.00  0.00    +0.021 C 
BRANCH  19  20
ATOM     20  C   UNL     1      32.146  -7.698 -21.558  0.00  0.00    +0.110 C 
BRANCH  20  22
ATOM     21  O   UNL     1      32.945  -6.700 -19.483  0.00  0.00    -0.250 OA
ATOM     22  C   UNL     1      32.627  -7.693 -20.124  0.00  0.00    +0.314 C 
BRANCH  22  23
ATOM     23  O   UNL     1      32.689  -8.952 -19.616  0.00  0.00    -0.480 OA
ATOM     24  H   UNL     1      33.505  -9.291 -19.303  0.00  0.00    +0.295 HD
ENDBRANCH  22  23
ENDBRANCH  20  22
ENDBRANCH  19  20
ENDBRANCH  18  19
ENDBRANCH   4  18
TORSDOF 10
ENDMDL
MODEL 9
REMARK VINA RESULT:      -7.9      3.689      4.830
REMARK  Name = 65628
REMARK  10 active torsions:
REMARK  status: ('A' for Active; 'I' for Inactive)
REMARK    1  A    between atoms: C_4  and  C_18
REMARK    2  A    between atoms: C_6  and  N_11
REMARK    3  A    between atoms: N_11  and  C_12
REMARK    4  A    between atoms: N_11  and  C_15
REMARK    5  A    between atoms: C_12  and  C_14
REMARK    6  A    between atoms: C_15  and  C_17
REMARK    7  A    between atoms: C_18  and  C_19
REMARK    8  A    between atoms: C_19  and  C_20
REMARK    9  A    between atoms: C_20  and  C_22
REMARK   10  A    between atoms: C_22  and  O_23
REMARK                            x       y       z     vdW  Elec       q    Type
REMARK                         _______ _______ _______ _____ _____    ______ ____
ROOT
ATOM      1  N   UNL     1      34.948 -21.438 -19.245  0.00  0.00    -0.262 N 
ATOM      2  N   UNL     1      36.843 -20.354 -19.665  0.00  0.00    -0.394 NA
ATOM      3  C   UNL     1      34.634 -20.507 -20.202  0.00  0.00    +0.079 C 
ATOM      4  C   UNL     1      36.278 -21.307 -18.958  0.00  0.00    +0.163 C 
ATOM      5  C   UNL     1      35.833 -19.842 -20.446  0.00  0.00    +0.129 C 
ATOM      6  C   UNL     1      34.674 -18.478 -22.061  0.00  0.00    +0.032 C 
ATOM      7  C   UNL     1      35.861 -18.806 -21.395  0.00  0.00    +0.101 C 
ATOM      8  C   UNL     1      33.440 -20.196 -20.854  0.00  0.00    +0.018 C 
ATOM      9  C   UNL     1      33.486 -19.162 -21.794  0.00  0.00    +0.012 C 
ATOM     10  C   UNL     1      34.034 -22.386 -18.651  0.00  0.00    +0.119 C 
ENDROOT
BRANCH   6  11
ATOM     11  N   UNL     1      34.681 -17.439 -23.020  0.00  0.00    -0.308 N 
BRANCH  11  12
ATOM     12  C   UNL     1      34.478 -17.737 -24.422  0.00  0.00    +0.108 C 
BRANCH  12  14
ATOM     13 CL   UNL     1      33.390 -15.698 -25.880  0.00  0.00    -0.112 Cl
ATOM     14  C   UNL     1      34.843 -16.544 -25.291  0.00  0.00    +0.116 C 
ENDBRANCH  12  14
ENDBRANCH  11  12
BRANCH  11  15
ATOM     15  C   UNL     1      34.875 -16.065 -22.607  0.00  0.00    +0.108 C 
BRANCH  15  17
ATOM     16 CL   UNL     1      33.443 -15.336 -20.398  0.00  0.00    -0.112 Cl
ATOM     17  C   UNL     1      33.562 -15.434 -22.173  0.00  0.00    +0.116 C 
ENDBRANCH  15  17
ENDBRANCH  11  15
ENDBRANCH   6  11
BRANCH   4  18
ATOM     18  C   UNL     1      36.955 -22.163 -17.961  0.00  0.00    +0.076 C 
BRANCH  18  19
ATOM     19  C   UNL     1      36.842 -21.600 -16.526  0.00  0.00    +0.021 C 
BRANCH  19  20
ATOM     20  C   UNL     1      36.153 -22.553 -15.549  0.00  0.00    +0.110 C 
BRANCH  20  22
ATOM     21  O   UNL     1      37.880 -23.383 -14.045  0.00  0.00    -0.250 OA
ATOM     22  C   UNL     1      37.091 -23.582 -14.958  0.00  0.00    +0.314 C 
BRANCH  22  23
ATOM     23  O   UNL     1      36.972 -24.781 -15.586  0.00  0.00    -0.480 OA
ATOM     24  H   UNL     1      37.561 -25.007 -16.279  0.00  0.00    +0.295 HD
ENDBRANCH  22  23
ENDBRANCH  20  22
ENDBRANCH  19  20
ENDBRANCH  18  19
ENDBRANCH   4  18
TORSDOF 10
ENDMDL
