MODEL 1
REMARK VINA RESULT:      -7.6      0.000      0.000
REMARK  Name = 447249
REMARK  11 active torsions:
REMARK  status: ('A' for Active; 'I' for Inactive)
REMARK    1  A    between atoms: C_3  and  C_6
REMARK    2  A    between atoms: C_4  and  C_18
REMARK    3  A    between atoms: C_5  and  O_10
REMARK    4  A    between atoms: O_10  and  C_11
REMARK    5  A    between atoms: C_11  and  P_12
REMARK    6  A    between atoms: P_12  and  O_14
REMARK    7  A    between atoms: P_12  and  O_16
REMARK    8  A    between atoms: C_18  and  CA_19
REMARK    9  A    between atoms: CA_19  and  N_20
REMARK   10  A    between atoms: CA_19  and  C_25
REMARK   11  A    between atoms: C_25  and  O_26
REMARK                            x       y       z     vdW  Elec       q    Type
REMARK                         _______ _______ _______ _____ _____    ______ ____
ROOT
ATOM      1  O   UNL     1      33.489 -23.518 -16.367  0.00  0.00    -0.355 OA
ATOM      2  N   UNL     1      34.842 -23.714 -16.624  0.00  0.00    -0.040 NA
ATOM      3  C   UNL     1      33.303 -23.852 -15.099  0.00  0.00    +0.153 A 
ATOM      4  C   UNL     1      34.381 -24.255 -14.460  0.00  0.00    +0.065 A 
ATOM      5  C   UNL     1      35.353 -24.154 -15.471  0.00  0.00    +0.260 A 
ENDROOT
BRANCH   3   6
ATOM      6  C   UNL     1      31.835 -23.695 -14.635  0.00  0.00    +0.054 C 
ATOM      7  C   UNL     1      31.255 -25.074 -14.255  0.00  0.00    +0.008 C 
ATOM      8  C   UNL     1      30.989 -23.078 -15.770  0.00  0.00    +0.008 C 
ATOM      9  C   UNL     1      31.679 -22.779 -13.401  0.00  0.00    +0.008 C 
ENDBRANCH   3   6
BRANCH   5  10
ATOM     10  O   UNL     1      36.662 -24.434 -15.412  0.00  0.00    -0.445 OA
BRANCH  10  11
ATOM     11  C   UNL     1      36.900 -25.837 -15.255  0.00  0.00    +0.321 C 
BRANCH  11  12
ATOM     12  P   UNL     1      38.302 -25.952 -14.157  0.00  0.00    +0.381 P 
ATOM     13  O   UNL     1      39.475 -26.703 -14.713  0.00  0.00    -0.254 OA
BRANCH  12  14
ATOM     14  O   UNL     1      37.665 -26.577 -12.810  0.00  0.00    -0.321 OA
ATOM     15  H   UNL     1      37.627 -27.543 -12.888  0.00  0.00    +0.220 HD
ENDBRANCH  12  14
BRANCH  12  16
ATOM     16  O   UNL     1      38.596 -24.415 -13.751  0.00  0.00    -0.321 OA
ATOM     17  H   UNL     1      38.467 -24.302 -12.797  0.00  0.00    +0.220 HD
ENDBRANCH  12  16
ENDBRANCH  11  12
ENDBRANCH  10  11
ENDBRANCH   5  10
BRANCH   4  18
ATOM     18  C   UNL     1      34.557 -24.698 -13.068  0.00  0.00    +0.023 C 
BRANCH  18  19
ATOM     19  CA  UNL     1      35.230 -23.655 -12.143  0.00  0.00    +0.040 C 
BRANCH  19  20
ATOM     20  N   UNL     1      36.305 -22.956 -12.853  0.00  0.00    +0.389 N 
ATOM     21  H1  UNL     1      36.455 -22.042 -12.427  0.00  0.00    -0.088 HD
ATOM     22  H2  UNL     1      36.044 -22.836 -13.831  0.00  0.00    -0.088 HD
ATOM     23  H3  UNL     1      37.163 -23.504 -12.795  0.00  0.00    -0.088 HD
ENDBRANCH  19  20
BRANCH  19  25
ATOM     24  OXT UNL     1      35.254 -24.874 -10.029  0.00  0.00    -0.253 OA
ATOM     25  C   UNL     1      35.868 -24.330 -10.939  0.00  0.00    +0.293 C 
BRANCH  25  26
ATOM     26  O   UNL     1      37.225 -24.294 -10.989  0.00  0.00    -0.482 OA
ATOM     27  H   UNL     1      37.663 -24.245 -11.816  0.00  0.00    +0.295 HD
ENDBRANCH  25  26
ENDBRANCH  19  25
ENDBRANCH  18  19
ENDBRANCH   4  18
TORSDOF 11
ENDMDL
MODEL 2
REMARK VINA RESULT:      -7.2      3.027      5.670
REMARK  Name = 447249
REMARK  11 active torsions:
REMARK  status: ('A' for Active; 'I' for Inactive)
REMARK    1  A    between atoms: C_3  and  C_6
REMARK    2  A    between atoms: C_4  and  C_18
REMARK    3  A    between atoms: C_5  and  O_10
REMARK    4  A    between atoms: O_10  and  C_11
REMARK    5  A    between atoms: C_11  and  P_12
REMARK    6  A    between atoms: P_12  and  O_14
REMARK    7  A    between atoms: P_12  and  O_16
REMARK    8  A    between atoms: C_18  and  CA_19
REMARK    9  A    between atoms: CA_19  and  N_20
REMARK   10  A    between atoms: CA_19  and  C_25
REMARK   11  A    between atoms: C_25  and  O_26
REMARK                            x       y       z     vdW  Elec       q    Type
REMARK                         _______ _______ _______ _____ _____    ______ ____
ROOT
ATOM      1  O   UNL     1      38.482 -23.265 -15.700  0.00  0.00    -0.355 OA
ATOM      2  N   UNL     1      37.654 -22.387 -16.389  0.00  0.00    -0.040 NA
ATOM      3  C   UNL     1      37.682 -24.147 -15.119  0.00  0.00    +0.153 A 
ATOM      4  C   UNL     1      36.396 -23.967 -15.336  0.00  0.00    +0.065 A 
ATOM      5  C   UNL     1      36.414 -22.825 -16.157  0.00  0.00    +0.260 A 
ENDROOT
BRANCH   3   6
ATOM      6  C   UNL     1      38.442 -25.215 -14.298  0.00  0.00    +0.054 C 
ATOM      7  C   UNL     1      38.404 -24.849 -12.798  0.00  0.00    +0.008 C 
ATOM      8  C   UNL     1      39.911 -25.292 -14.769  0.00  0.00    +0.008 C 
ATOM      9  C   UNL     1      37.845 -26.633 -14.436  0.00  0.00    +0.008 C 
ENDBRANCH   3   6
BRANCH   5  10
ATOM     10  O   UNL     1      35.384 -22.164 -16.702  0.00  0.00    -0.445 OA
BRANCH  10  11
ATOM     11  C   UNL     1      35.451 -22.159 -18.133  0.00  0.00    +0.321 C 
BRANCH  11  12
ATOM     12  P   UNL     1      33.798 -22.549 -18.679  0.00  0.00    +0.381 P 
ATOM     13  O   UNL     1      33.074 -21.418 -19.347  0.00  0.00    -0.254 OA
BRANCH  12  14
ATOM     14  O   UNL     1      33.093 -23.116 -17.340  0.00  0.00    -0.321 OA
ATOM     15  H   UNL     1      32.138 -23.203 -17.489  0.00  0.00    +0.220 HD
ENDBRANCH  12  14
BRANCH  12  16
ATOM     16  O   UNL     1      33.996 -23.873 -19.585  0.00  0.00    -0.321 OA
ATOM     17  H   UNL     1      33.936 -23.635 -20.522  0.00  0.00    +0.220 HD
ENDBRANCH  12  16
ENDBRANCH  11  12
ENDBRANCH  10  11
ENDBRANCH   5  10
BRANCH   4  18
ATOM     18  C   UNL     1      35.230 -24.731 -14.864  0.00  0.00    +0.023 C 
BRANCH  18  19
ATOM     19  CA  UNL     1      34.472 -24.081 -13.681  0.00  0.00    +0.040 C 
BRANCH  19  20
ATOM     20  N   UNL     1      34.791 -24.769 -12.427  0.00  0.00    +0.389 N 
ATOM     21  H1  UNL     1      33.943 -25.184 -12.041  0.00  0.00    -0.088 HD
ATOM     22  H2  UNL     1      35.176 -24.100 -11.760  0.00  0.00    -0.088 HD
ATOM     23  H3  UNL     1      35.477 -25.503 -12.607  0.00  0.00    -0.088 HD
ENDBRANCH  19  20
BRANCH  19  25
ATOM     24  OXT UNL     1      32.303 -23.516 -14.645  0.00  0.00    -0.253 OA
ATOM     25  C   UNL     1      32.969 -24.195 -13.873  0.00  0.00    +0.293 C 
BRANCH  25  26
ATOM     26  O   UNL     1      32.425 -25.172 -13.102  0.00  0.00    -0.482 OA
ATOM     27  H   UNL     1      32.684 -25.260 -12.205  0.00  0.00    +0.295 HD
ENDBRANCH  25  26
ENDBRANCH  19  25
ENDBRANCH  18  19
ENDBRANCH   4  18
TORSDOF 11
ENDMDL
MODEL 3
REMARK VINA RESULT:      -7.0      2.155      4.268
REMARK  Name = 447249
REMARK  11 active torsions:
REMARK  status: ('A' for Active; 'I' for Inactive)
REMARK    1  A    between atoms: C_3  and  C_6
REMARK    2  A    between atoms: C_4  and  C_18
REMARK    3  A    between atoms: C_5  and  O_10
REMARK    4  A    between atoms: O_10  and  C_11
REMARK    5  A    between atoms: C_11  and  P_12
REMARK    6  A    between atoms: P_12  and  O_14
REMARK    7  A    between atoms: P_12  and  O_16
REMARK    8  A    between atoms: C_18  and  CA_19
REMARK    9  A    between atoms: CA_19  and  N_20
REMARK   10  A    between atoms: CA_19  and  C_25
REMARK   11  A    between atoms: C_25  and  O_26
REMARK                            x       y       z     vdW  Elec       q    Type
REMARK                         _______ _______ _______ _____ _____    ______ ____
ROOT
ATOM      1  O   UNL     1      33.383 -24.143 -13.521  0.00  0.00    -0.355 OA
ATOM      2  N   UNL     1      34.746 -24.263 -13.763  0.00  0.00    -0.040 NA
ATOM      3  C   UNL     1      32.809 -23.998 -14.706  0.00  0.00    +0.153 A 
ATOM      4  C   UNL     1      33.633 -24.006 -15.733  0.00  0.00    +0.065 A 
ATOM      5  C   UNL     1      34.871 -24.178 -15.090  0.00  0.00    +0.260 A 
ENDROOT
BRANCH   3   6
ATOM      6  C   UNL     1      31.271 -23.847 -14.627  0.00  0.00    +0.054 C 
ATOM      7  C   UNL     1      30.832 -22.560 -15.358  0.00  0.00    +0.008 C 
ATOM      8  C   UNL     1      30.826 -23.775 -13.150  0.00  0.00    +0.008 C 
ATOM      9  C   UNL     1      30.508 -25.023 -15.276  0.00  0.00    +0.008 C 
ENDBRANCH   3   6
BRANCH   5  10
ATOM     10  O   UNL     1      36.095 -24.262 -15.629  0.00  0.00    -0.445 OA
BRANCH  10  11
ATOM     11  C   UNL     1      37.077 -24.655 -14.663  0.00  0.00    +0.321 C 
BRANCH  11  12
ATOM     12  P   UNL     1      37.181 -26.430 -14.799  0.00  0.00    +0.381 P 
ATOM     13  O   UNL     1      36.473 -27.012 -15.986  0.00  0.00    -0.254 OA
BRANCH  12  14
ATOM     14  O   UNL     1      36.645 -26.942 -13.364  0.00  0.00    -0.321 OA
ATOM     15  H   UNL     1      37.228 -27.641 -13.030  0.00  0.00    +0.220 HD
ENDBRANCH  12  14
BRANCH  12  16
ATOM     16  O   UNL     1      38.769 -26.726 -14.730  0.00  0.00    -0.321 OA
ATOM     17  H   UNL     1      39.245 -26.065 -15.255  0.00  0.00    +0.220 HD
ENDBRANCH  12  16
ENDBRANCH  11  12
ENDBRANCH  10  11
ENDBRANCH   5  10
BRANCH   4  18
ATOM     18  C   UNL     1      33.365 -23.872 -17.174  0.00  0.00    +0.023 C 
BRANCH  18  19
ATOM     19  CA  UNL     1      33.659 -22.467 -17.754  0.00  0.00    +0.040 C 
BRANCH  19  20
ATOM     20  N   UNL     1      32.618 -22.078 -18.709  0.00  0.00    +0.389 N 
ATOM     21  H1  UNL     1      31.860 -21.610 -18.214  0.00  0.00    -0.088 HD
ATOM     22  H2  UNL     1      32.256 -22.910 -19.176  0.00  0.00    -0.088 HD
ATOM     23  H3  UNL     1      33.013 -21.444 -19.404  0.00  0.00    -0.088 HD
ENDBRANCH  19  20
BRANCH  19  25
ATOM     24  OXT UNL     1      35.090 -22.603 -19.726  0.00  0.00    -0.253 OA
ATOM     25  C   UNL     1      34.975 -22.460 -18.515  0.00  0.00    +0.293 C 
BRANCH  25  26
ATOM     26  O   UNL     1      36.039 -22.245 -17.699  0.00  0.00    -0.482 OA
ATOM     27  H   UNL     1      36.351 -22.932 -17.144  0.00  0.00    +0.295 HD
ENDBRANCH  25  26
ENDBRANCH  19  25
ENDBRANCH  18  19
ENDBRANCH   4  18
TORSDOF 11
ENDMDL
MODEL 4
REMARK VINA RESULT:      -7.0      3.952      7.120
REMARK  Name = 447249
REMARK  11 active torsions:
REMARK  status: ('A' for Active; 'I' for Inactive)
REMARK    1  A    between atoms: C_3  and  C_6
REMARK    2  A    between atoms: C_4  and  C_18
REMARK    3  A    between atoms: C_5  and  O_10
REMARK    4  A    between atoms: O_10  and  C_11
REMARK    5  A    between atoms: C_11  and  P_12
REMARK    6  A    between atoms: P_12  and  O_14
REMARK    7  A    between atoms: P_12  and  O_16
REMARK    8  A    between atoms: C_18  and  CA_19
REMARK    9  A    between atoms: CA_19  and  N_20
REMARK   10  A    between atoms: CA_19  and  C_25
REMARK   11  A    between atoms: C_25  and  O_26
REMARK                            x       y       z     vdW  Elec       q    Type
REMARK                         _______ _______ _______ _____ _____    ______ ____
ROOT
ATOM      1  O   UNL     1      33.231 -23.695 -13.160  0.00  0.00    -0.355 OA
ATOM      2  N   UNL     1      31.940 -23.304 -13.497  0.00  0.00    -0.040 NA
ATOM      3  C   UNL     1      33.863 -23.905 -14.305  0.00  0.00    +0.153 A 
ATOM      4  C   UNL     1      33.144 -23.701 -15.389  0.00  0.00    +0.065 A 
ATOM      5  C   UNL     1      31.912 -23.316 -14.832  0.00  0.00    +0.260 A 
ENDROOT
BRANCH   3   6
ATOM      6  C   UNL     1      35.333 -24.353 -14.120  0.00  0.00    +0.054 C 
ATOM      7  C   UNL     1      35.594 -24.691 -12.636  0.00  0.00    +0.008 C 
ATOM      8  C   UNL     1      36.286 -23.221 -14.563  0.00  0.00    +0.008 C 
ATOM      9  C   UNL     1      35.699 -25.606 -14.945  0.00  0.00    +0.008 C 
ENDBRANCH   3   6
BRANCH   5  10
ATOM     10  O   UNL     1      30.775 -22.977 -15.456  0.00  0.00    -0.445 OA
BRANCH  10  11
ATOM     11  C   UNL     1      29.818 -24.043 -15.434  0.00  0.00    +0.321 C 
BRANCH  11  12
ATOM     12  P   UNL     1      28.472 -23.481 -16.462  0.00  0.00    +0.381 P 
ATOM     13  O   UNL     1      27.895 -24.527 -17.368  0.00  0.00    -0.254 OA
BRANCH  12  14
ATOM     14  O   UNL     1      29.095 -22.193 -17.212  0.00  0.00    -0.321 OA
ATOM     15  H   UNL     1      29.935 -21.948 -16.792  0.00  0.00    +0.220 HD
ENDBRANCH  12  14
BRANCH  12  16
ATOM     16  O   UNL     1      27.433 -22.831 -15.407  0.00  0.00    -0.321 OA
ATOM     17  H   UNL     1      27.635 -21.890 -15.293  0.00  0.00    +0.220 HD
ENDBRANCH  12  16
ENDBRANCH  11  12
ENDBRANCH  10  11
ENDBRANCH   5  10
BRANCH   4  18
ATOM     18  C   UNL     1      33.500 -23.831 -16.811  0.00  0.00    +0.023 C 
BRANCH  18  19
ATOM     19  CA  UNL     1      33.427 -22.510 -17.615  0.00  0.00    +0.040 C 
BRANCH  19  20
ATOM     20  N   UNL     1      32.054 -22.251 -18.054  0.00  0.00    +0.389 N 
ATOM     21  H1  UNL     1      31.436 -22.974 -17.686  0.00  0.00    -0.088 HD
ATOM     22  H2  UNL     1      32.016 -22.258 -19.074  0.00  0.00    -0.088 HD
ATOM     23  H3  UNL     1      31.753 -21.339 -17.710  0.00  0.00    -0.088 HD
ENDBRANCH  19  20
BRANCH  19  25
ATOM     24  OXT UNL     1      35.109 -21.758 -19.215  0.00  0.00    -0.253 OA
ATOM     25  C   UNL     1      34.280 -22.592 -18.870  0.00  0.00    +0.293 C 
BRANCH  25  26
ATOM     26  O   UNL     1      34.046 -23.727 -19.577  0.00  0.00    -0.482 OA
ATOM     27  H   UNL     1      34.747 -24.325 -19.750  0.00  0.00    +0.295 HD
ENDBRANCH  25  26
ENDBRANCH  19  25
ENDBRANCH  18  19
ENDBRANCH   4  18
TORSDOF 11
ENDMDL
MODEL 5
REMARK VINA RESULT:      -7.0      3.216      4.535
REMARK  Name = 447249
REMARK  11 active torsions:
REMARK  status: ('A' for Active; 'I' for Inactive)
REMARK    1  A    between atoms: C_3  and  C_6
REMARK    2  A    between atoms: C_4  and  C_18
REMARK    3  A    between atoms: C_5  and  O_10
REMARK    4  A    between atoms: O_10  and  C_11
REMARK    5  A    between atoms: C_11  and  P_12
REMARK    6  A    between atoms: P_12  and  O_14
REMARK    7  A    between atoms: P_12  and  O_16
REMARK    8  A    between atoms: C_18  and  CA_19
REMARK    9  A    between atoms: CA_19  and  N_20
REMARK   10  A    between atoms: CA_19  and  C_25
REMARK   11  A    between atoms: C_25  and  O_26
REMARK                            x       y       z     vdW  Elec       q    Type
REMARK                         _______ _______ _______ _____ _____    ______ ____
ROOT
ATOM      1  O   UNL     1      31.366 -22.623 -17.235  0.00  0.00    -0.355 OA
ATOM      2  N   UNL     1      32.359 -22.446 -18.192  0.00  0.00    -0.040 NA
ATOM      3  C   UNL     1      31.956 -23.192 -16.194  0.00  0.00    +0.153 A 
ATOM      4  C   UNL     1      33.244 -23.423 -16.335  0.00  0.00    +0.065 A 
ATOM      5  C   UNL     1      33.470 -22.931 -17.633  0.00  0.00    +0.260 A 
ENDROOT
BRANCH   3   6
ATOM      6  C   UNL     1      30.988 -23.466 -15.018  0.00  0.00    +0.054 C 
ATOM      7  C   UNL     1      29.640 -22.759 -15.272  0.00  0.00    +0.008 C 
ATOM      8  C   UNL     1      31.601 -22.942 -13.701  0.00  0.00    +0.008 C 
ATOM      9  C   UNL     1      30.685 -24.967 -14.814  0.00  0.00    +0.008 C 
ENDBRANCH   3   6
BRANCH   5  10
ATOM     10  O   UNL     1      34.612 -22.896 -18.333  0.00  0.00    -0.445 OA
BRANCH  10  11
ATOM     11  C   UNL     1      34.537 -21.979 -19.431  0.00  0.00    +0.321 C 
BRANCH  11  12
ATOM     12  P   UNL     1      36.102 -21.123 -19.431  0.00  0.00    +0.381 P 
ATOM     13  O   UNL     1      36.754 -21.006 -18.086  0.00  0.00    -0.254 OA
BRANCH  12  14
ATOM     14  O   UNL     1      35.752 -19.717 -20.147  0.00  0.00    -0.321 OA
ATOM     15  H   UNL     1      36.070 -19.733 -21.064  0.00  0.00    +0.220 HD
ENDBRANCH  12  14
BRANCH  12  16
ATOM     16  O   UNL     1      36.966 -21.906 -20.551  0.00  0.00    -0.321 OA
ATOM     17  H   UNL     1      37.845 -22.110 -20.197  0.00  0.00    +0.220 HD
ENDBRANCH  12  16
ENDBRANCH  11  12
ENDBRANCH  10  11
ENDBRANCH   5  10
BRANCH   4  18
ATOM     18  C   UNL     1      34.214 -24.029 -15.409  0.00  0.00    +0.023 C 
BRANCH  18  19
ATOM     19  CA  UNL     1      35.319 -23.065 -14.915  0.00  0.00    +0.040 C 
BRANCH  19  20
ATOM     20  N   UNL     1      36.434 -23.032 -15.865  0.00  0.00    +0.389 N 
ATOM     21  H1  UNL     1      37.316 -23.007 -15.355  0.00  0.00    -0.088 HD
ATOM     22  H2  UNL     1      36.358 -22.200 -16.451  0.00  0.00    -0.088 HD
ATOM     23  H3  UNL     1      36.404 -23.864 -16.454  0.00  0.00    -0.088 HD
ENDBRANCH  19  20
BRANCH  19  25
ATOM     24  OXT UNL     1      37.037 -23.928 -13.412  0.00  0.00    -0.253 OA
ATOM     25  C   UNL     1      35.891 -23.532 -13.586  0.00  0.00    +0.293 C 
BRANCH  25  26
ATOM     26  O   UNL     1      34.987 -23.437 -12.577  0.00  0.00    -0.482 OA
ATOM     27  H   UNL     1      34.452 -24.174 -12.356  0.00  0.00    +0.295 HD
ENDBRANCH  25  26
ENDBRANCH  19  25
ENDBRANCH  18  19
ENDBRANCH   4  18
TORSDOF 11
ENDMDL
MODEL 6
REMARK VINA RESULT:      -7.0     11.871     14.160
REMARK  Name = 447249
REMARK  11 active torsions:
REMARK  status: ('A' for Active; 'I' for Inactive)
REMARK    1  A    between atoms: C_3  and  C_6
REMARK    2  A    between atoms: C_4  and  C_18
REMARK    3  A    between atoms: C_5  and  O_10
REMARK    4  A    between atoms: O_10  and  C_11
REMARK    5  A    between atoms: C_11  and  P_12
REMARK    6  A    between atoms: P_12  and  O_14
REMARK    7  A    between atoms: P_12  and  O_16
REMARK    8  A    between atoms: C_18  and  CA_19
REMARK    9  A    between atoms: CA_19  and  N_20
REMARK   10  A    between atoms: CA_19  and  C_25
REMARK   11  A    between atoms: C_25  and  O_26
REMARK                            x       y       z     vdW  Elec       q    Type
REMARK                         _______ _______ _______ _____ _____    ______ ____
ROOT
ATOM      1  O   UNL     1      34.771 -18.433 -24.197  0.00  0.00    -0.355 OA
ATOM      2  N   UNL     1      34.576 -17.823 -25.431  0.00  0.00    -0.040 NA
ATOM      3  C   UNL     1      34.772 -17.458 -23.300  0.00  0.00    +0.153 A 
ATOM      4  C   UNL     1      34.600 -16.247 -23.786  0.00  0.00    +0.065 A 
ATOM      5  C   UNL     1      34.478 -16.519 -25.161  0.00  0.00    +0.260 A 
ENDROOT
BRANCH   3   6
ATOM      6  C   UNL     1      34.980 -17.961 -21.851  0.00  0.00    +0.054 C 
ATOM      7  C   UNL     1      36.326 -18.708 -21.743  0.00  0.00    +0.008 C 
ATOM      8  C   UNL     1      33.831 -18.914 -21.456  0.00  0.00    +0.008 C 
ATOM      9  C   UNL     1      35.005 -16.822 -20.807  0.00  0.00    +0.008 C 
ENDBRANCH   3   6
BRANCH   5  10
ATOM     10  O   UNL     1      34.284 -15.663 -26.174  0.00  0.00    -0.445 OA
BRANCH  10  11
ATOM     11  C   UNL     1      32.959 -15.118 -26.164  0.00  0.00    +0.321 C 
BRANCH  11  12
ATOM     12  P   UNL     1      33.122 -13.485 -26.865  0.00  0.00    +0.381 P 
ATOM     13  O   UNL     1      33.497 -12.415 -25.884  0.00  0.00    -0.254 OA
BRANCH  12  14
ATOM     14  O   UNL     1      31.707 -13.263 -27.613  0.00  0.00    -0.321 OA
ATOM     15  H   UNL     1      31.080 -12.846 -27.001  0.00  0.00    +0.220 HD
ENDBRANCH  12  14
BRANCH  12  16
ATOM     16  O   UNL     1      34.160 -13.696 -28.087  0.00  0.00    -0.321 OA
ATOM     17  H   UNL     1      33.710 -13.518 -28.927  0.00  0.00    +0.220 HD
ENDBRANCH  12  16
ENDBRANCH  11  12
ENDBRANCH  10  11
ENDBRANCH   5  10
BRANCH   4  18
ATOM     18  C   UNL     1      34.546 -14.943 -23.107  0.00  0.00    +0.023 C 
BRANCH  18  19
ATOM     19  CA  UNL     1      33.124 -14.345 -22.977  0.00  0.00    +0.040 C 
BRANCH  19  20
ATOM     20  N   UNL     1      33.166 -12.886 -23.105  0.00  0.00    +0.389 N 
ATOM     21  H1  UNL     1      33.801 -12.501 -22.408  0.00  0.00    -0.088 HD
ATOM     22  H2  UNL     1      32.230 -12.505 -22.961  0.00  0.00    -0.088 HD
ATOM     23  H3  UNL     1      33.493 -12.637 -24.038  0.00  0.00    -0.088 HD
ENDBRANCH  19  20
BRANCH  19  25
ATOM     24  OXT UNL     1      31.975 -15.693 -21.297  0.00  0.00    -0.253 OA
ATOM     25  C   UNL     1      32.533 -14.647 -21.609  0.00  0.00    +0.293 C 
BRANCH  25  26
ATOM     26  O   UNL     1      32.714 -13.625 -20.734  0.00  0.00    -0.482 OA
ATOM     27  H   UNL     1      33.581 -13.339 -20.519  0.00  0.00    +0.295 HD
ENDBRANCH  25  26
ENDBRANCH  19  25
ENDBRANCH  18  19
ENDBRANCH   4  18
TORSDOF 11
ENDMDL
MODEL 7
REMARK VINA RESULT:      -6.9      2.920      4.897
REMARK  Name = 447249
REMARK  11 active torsions:
REMARK  status: ('A' for Active; 'I' for Inactive)
REMARK    1  A    between atoms: C_3  and  C_6
REMARK    2  A    between atoms: C_4  and  C_18
REMARK    3  A    between atoms: C_5  and  O_10
REMARK    4  A    between atoms: O_10  and  C_11
REMARK    5  A    between atoms: C_11  and  P_12
REMARK    6  A    between atoms: P_12  and  O_14
REMARK    7  A    between atoms: P_12  and  O_16
REMARK    8  A    between atoms: C_18  and  CA_19
REMARK    9  A    between atoms: CA_19  and  N_20
REMARK   10  A    between atoms: CA_19  and  C_25
REMARK   11  A    between atoms: C_25  and  O_26
REMARK                            x       y       z     vdW  Elec       q    Type
REMARK                         _______ _______ _______ _____ _____    ______ ____
ROOT
ATOM      1  O   UNL     1      36.222 -22.331 -17.346  0.00  0.00    -0.355 OA
ATOM      2  N   UNL     1      36.497 -22.696 -16.034  0.00  0.00    -0.040 NA
ATOM      3  C   UNL     1      34.946 -22.625 -17.550  0.00  0.00    +0.153 A 
ATOM      4  C   UNL     1      34.319 -23.151 -16.519  0.00  0.00    +0.065 A 
ATOM      5  C   UNL     1      35.348 -23.183 -15.560  0.00  0.00    +0.260 A 
ENDROOT
BRANCH   3   6
ATOM      6  C   UNL     1      34.460 -22.281 -18.978  0.00  0.00    +0.054 C 
ATOM      7  C   UNL     1      34.191 -23.580 -19.768  0.00  0.00    +0.008 C 
ATOM      8  C   UNL     1      35.534 -21.448 -19.712  0.00  0.00    +0.008 C 
ATOM      9  C   UNL     1      33.154 -21.457 -18.997  0.00  0.00    +0.008 C 
ENDBRANCH   3   6
BRANCH   5  10
ATOM     10  O   UNL     1      35.306 -23.623 -14.295  0.00  0.00    -0.445 OA
BRANCH  10  11
ATOM     11  C   UNL     1      36.592 -23.563 -13.667  0.00  0.00    +0.321 C 
BRANCH  11  12
ATOM     12  P   UNL     1      36.272 -23.797 -11.928  0.00  0.00    +0.381 P 
ATOM     13  O   UNL     1      37.128 -22.972 -11.014  0.00  0.00    -0.254 OA
BRANCH  12  14
ATOM     14  O   UNL     1      36.413 -25.396 -11.740  0.00  0.00    -0.321 OA
ATOM     15  H   UNL     1      35.537 -25.808 -11.804  0.00  0.00    +0.220 HD
ENDBRANCH  12  14
BRANCH  12  16
ATOM     16  O   UNL     1      34.680 -23.546 -11.795  0.00  0.00    -0.321 OA
ATOM     17  H   UNL     1      34.391 -23.775 -10.899  0.00  0.00    +0.220 HD
ENDBRANCH  12  16
ENDBRANCH  11  12
ENDBRANCH  10  11
ENDBRANCH   5  10
BRANCH   4  18
ATOM     18  C   UNL     1      32.925 -23.597 -16.374  0.00  0.00    +0.023 C 
BRANCH  18  19
ATOM     19  CA  UNL     1      32.076 -22.744 -15.400  0.00  0.00    +0.040 C 
BRANCH  19  20
ATOM     20  N   UNL     1      32.328 -23.143 -14.013  0.00  0.00    +0.389 N 
ATOM     21  H1  UNL     1      31.456 -23.449 -13.583  0.00  0.00    -0.088 HD
ATOM     22  H2  UNL     1      32.703 -22.349 -13.494  0.00  0.00    -0.088 HD
ATOM     23  H3  UNL     1      33.003 -23.908 -13.997  0.00  0.00    -0.088 HD
ENDBRANCH  19  20
BRANCH  19  25
ATOM     24  OXT UNL     1      29.784 -23.349 -14.820  0.00  0.00    -0.253 OA
ATOM     25  C   UNL     1      30.591 -22.952 -15.652  0.00  0.00    +0.293 C 
BRANCH  25  26
ATOM     26  O   UNL     1      30.233 -22.617 -16.919  0.00  0.00    -0.482 OA
ATOM     27  H   UNL     1      30.304 -23.248 -17.608  0.00  0.00    +0.295 HD
ENDBRANCH  25  26
ENDBRANCH  19  25
ENDBRANCH  18  19
ENDBRANCH   4  18
TORSDOF 11
ENDMDL
MODEL 8
REMARK VINA RESULT:      -6.8      3.146      4.562
REMARK  Name = 447249
REMARK  11 active torsions:
REMARK  status: ('A' for Active; 'I' for Inactive)
REMARK    1  A    between atoms: C_3  and  C_6
REMARK    2  A    between atoms: C_4  and  C_18
REMARK    3  A    between atoms: C_5  and  O_10
REMARK    4  A    between atoms: O_10  and  C_11
REMARK    5  A    between atoms: C_11  and  P_12
REMARK    6  A    between atoms: P_12  and  O_14
REMARK    7  A    between atoms: P_12  and  O_16
REMARK    8  A    between atoms: C_18  and  CA_19
REMARK    9  A    between atoms: CA_19  and  N_20
REMARK   10  A    between atoms: CA_19  and  C_25
REMARK   11  A    between atoms: C_25  and  O_26
REMARK                            x       y       z     vdW  Elec       q    Type
REMARK                         _______ _______ _______ _____ _____    ______ ____
ROOT
ATOM      1  O   UNL     1      31.571 -22.977 -17.193  0.00  0.00    -0.355 OA
ATOM      2  N   UNL     1      32.580 -22.789 -18.130  0.00  0.00    -0.040 NA
ATOM      3  C   UNL     1      32.177 -23.186 -16.034  0.00  0.00    +0.153 A 
ATOM      4  C   UNL     1      33.493 -23.162 -16.077  0.00  0.00    +0.065 A 
ATOM      5  C   UNL     1      33.718 -22.904 -17.441  0.00  0.00    +0.260 A 
ENDROOT
BRANCH   3   6
ATOM      6  C   UNL     1      31.194 -23.418 -14.862  0.00  0.00    +0.054 C 
ATOM      7  C   UNL     1      31.017 -24.932 -14.618  0.00  0.00    +0.008 C 
ATOM      8  C   UNL     1      29.823 -22.789 -15.195  0.00  0.00    +0.008 C 
ATOM      9  C   UNL     1      31.670 -22.794 -13.532  0.00  0.00    +0.008 C 
ENDBRANCH   3   6
BRANCH   5  10
ATOM     10  O   UNL     1      34.882 -22.768 -18.090  0.00  0.00    -0.445 OA
BRANCH  10  11
ATOM     11  C   UNL     1      34.707 -22.169 -19.379  0.00  0.00    +0.321 C 
BRANCH  11  12
ATOM     12  P   UNL     1      36.083 -21.050 -19.564  0.00  0.00    +0.381 P 
ATOM     13  O   UNL     1      35.738 -19.722 -20.169  0.00  0.00    -0.254 OA
BRANCH  12  14
ATOM     14  O   UNL     1      37.158 -21.923 -20.397  0.00  0.00    -0.321 OA
ATOM     15  H   UNL     1      38.056 -21.649 -20.153  0.00  0.00    +0.220 HD
ENDBRANCH  12  14
BRANCH  12  16
ATOM     16  O   UNL     1      36.725 -20.986 -18.081  0.00  0.00    -0.321 OA
ATOM     17  H   UNL     1      37.418 -20.309 -18.058  0.00  0.00    +0.220 HD
ENDBRANCH  12  16
ENDBRANCH  11  12
ENDBRANCH  10  11
ENDBRANCH   5  10
BRANCH   4  18
ATOM     18  C   UNL     1      34.487 -23.349 -15.008  0.00  0.00    +0.023 C 
BRANCH  18  19
ATOM     19  CA  UNL     1      34.648 -24.814 -14.531  0.00  0.00    +0.040 C 
BRANCH  19  20
ATOM     20  N   UNL     1      34.726 -24.872 -13.069  0.00  0.00    +0.389 N 
ATOM     21  H1  UNL     1      34.380 -23.998 -12.674  0.00  0.00    -0.088 HD
ATOM     22  H2  UNL     1      35.697 -25.011 -12.786  0.00  0.00    -0.088 HD
ATOM     23  H3  UNL     1      34.159 -25.648 -12.729  0.00  0.00    -0.088 HD
ENDBRANCH  19  20
BRANCH  19  25
ATOM     24  OXT UNL     1      36.908 -24.778 -15.451  0.00  0.00    -0.253 OA
ATOM     25  C   UNL     1      35.938 -25.418 -15.063  0.00  0.00    +0.293 C 
BRANCH  25  26
ATOM     26  O   UNL     1      35.918 -26.775 -15.038  0.00  0.00    -0.482 OA
ATOM     27  H   UNL     1      36.502 -27.263 -15.586  0.00  0.00    +0.295 HD
ENDBRANCH  25  26
ENDBRANCH  19  25
ENDBRANCH  18  19
ENDBRANCH   4  18
TORSDOF 11
ENDMDL
MODEL 9
REMARK VINA RESULT:      -6.6     14.605     16.838
REMARK  Name = 447249
REMARK  11 active torsions:
REMARK  status: ('A' for Active; 'I' for Inactive)
REMARK    1  A    between atoms: C_3  and  C_6
REMARK    2  A    between atoms: C_4  and  C_18
REMARK    3  A    between atoms: C_5  and  O_10
REMARK    4  A    between atoms: O_10  and  C_11
REMARK    5  A    between atoms: C_11  and  P_12
REMARK    6  A    between atoms: P_12  and  O_14
REMARK    7  A    between atoms: P_12  and  O_16
REMARK    8  A    between atoms: C_18  and  CA_19
REMARK    9  A    between atoms: CA_19  and  N_20
REMARK   10  A    between atoms: CA_19  and  C_25
REMARK   11  A    between atoms: C_25  and  O_26
REMARK                            x       y       z     vdW  Elec       q    Type
REMARK                         _______ _______ _______ _____ _____    ______ ____
ROOT
ATOM      1  O   UNL     1      31.553  -9.858 -20.665  0.00  0.00    -0.355 OA
ATOM      2  N   UNL     1      31.394 -11.221 -20.883  0.00  0.00    -0.040 NA
ATOM      3  C   UNL     1      32.081  -9.366 -21.777  0.00  0.00    +0.153 A 
ATOM      4  C   UNL     1      32.300 -10.247 -22.731  0.00  0.00    +0.065 A 
ATOM      5  C   UNL     1      31.846 -11.430 -22.122  0.00  0.00    +0.260 A 
ENDROOT
BRANCH   3   6
ATOM      6  C   UNL     1      32.330  -7.841 -21.713  0.00  0.00    +0.054 C 
ATOM      7  C   UNL     1      32.285  -7.363 -20.246  0.00  0.00    +0.008 C 
ATOM      8  C   UNL     1      31.249  -7.097 -22.528  0.00  0.00    +0.008 C 
ATOM      9  C   UNL     1      33.702  -7.421 -22.286  0.00  0.00    +0.008 C 
ENDBRANCH   3   6
BRANCH   5  10
ATOM     10  O   UNL     1      31.819 -12.675 -22.617  0.00  0.00    -0.445 OA
BRANCH  10  11
ATOM     11  C   UNL     1      32.386 -13.624 -21.706  0.00  0.00    +0.321 C 
BRANCH  11  12
ATOM     12  P   UNL     1      33.456 -14.645 -22.703  0.00  0.00    +0.381 P 
ATOM     13  O   UNL     1      33.609 -16.056 -22.218  0.00  0.00    -0.254 OA
BRANCH  12  14
ATOM     14  O   UNL     1      34.826 -13.791 -22.768  0.00  0.00    -0.321 OA
ATOM     15  H   UNL     1      34.616 -12.844 -22.804  0.00  0.00    +0.220 HD
ENDBRANCH  12  14
BRANCH  12  16
ATOM     16  O   UNL     1      32.850 -14.490 -24.195  0.00  0.00    -0.321 OA
ATOM     17  H   UNL     1      31.894 -14.340 -24.141  0.00  0.00    +0.220 HD
ENDBRANCH  12  16
ENDBRANCH  11  12
ENDBRANCH  10  11
ENDBRANCH   5  10
BRANCH   4  18
ATOM     18  C   UNL     1      32.864 -10.074 -24.079  0.00  0.00    +0.023 C 
BRANCH  18  19
ATOM     19  CA  UNL     1      34.232 -10.767 -24.296  0.00  0.00    +0.040 C 
BRANCH  19  20
ATOM     20  N   UNL     1      35.314  -9.778 -24.295  0.00  0.00    +0.389 N 
ATOM     21  H1  UNL     1      35.585  -9.570 -25.256  0.00  0.00    -0.088 HD
ATOM     22  H2  UNL     1      36.117 -10.153 -23.790  0.00  0.00    -0.088 HD
ATOM     23  H3  UNL     1      34.994  -8.924 -23.839  0.00  0.00    -0.088 HD
ENDBRANCH  19  20
BRANCH  19  25
ATOM     24  OXT UNL     1      33.555 -12.395 -25.982  0.00  0.00    -0.253 OA
ATOM     25  C   UNL     1      34.278 -11.465 -25.645  0.00  0.00    +0.293 C 
BRANCH  25  26
ATOM     26  O   UNL     1      35.207 -10.922 -26.473  0.00  0.00    -0.482 OA
ATOM     27  H   UNL     1      35.150 -10.018 -26.714  0.00  0.00    +0.295 HD
ENDBRANCH  25  26
ENDBRANCH  19  25
ENDBRANCH  18  19
ENDBRANCH   4  18
TORSDOF 11
ENDMDL
