MODEL 1
REMARK VINA RESULT:      -3.6      0.000      0.000
REMARK  Name = 5281004
REMARK  6 active torsions:
REMARK  status: ('A' for Active; 'I' for Inactive)
REMARK    1  A    between atoms: C_7  and  C_27
REMARK    2  A    between atoms: C_12  and  O_24
REMARK    3  A    between atoms: C_18  and  C_31
REMARK    4  A    between atoms: C_27  and  C_28
REMARK    5  A    between atoms: C_28  and  O_29
REMARK    6  A    between atoms: C_31  and  C_32
REMARK                            x       y       z     vdW  Elec       q    Type
REMARK                         _______ _______ _______ _____ _____    ______ ____
ROOT
ATOM      1  O   UNL     1      33.501  -7.031 -22.371  0.00  0.00    -0.326 OA
ATOM      2  O   UNL     1      31.320  -6.424 -21.761  0.00  0.00    -0.330 OA
ATOM      3  O   UNL     1      34.527 -15.828 -19.971  0.00  0.00    -0.287 OA
ATOM      4  C   UNL     1      32.783  -8.827 -23.910  0.00  0.00    +0.034 C 
ATOM      5  C   UNL     1      32.008  -9.493 -22.751  0.00  0.00    +0.005 C 
ATOM      6  C   UNL     1      31.864 -11.013 -22.906  0.00  0.00    +0.003 C 
ATOM      7  C   UNL     1      32.665  -7.343 -23.481  0.00  0.00    +0.173 C 
ATOM      8  C   UNL     1      33.298 -11.653 -22.944  0.00  0.00    +0.034 C 
ATOM      9  C   UNL     1      30.746  -8.635 -22.624  0.00  0.00    +0.033 C 
ATOM     10  C   UNL     1      31.234  -7.207 -22.949  0.00  0.00    +0.149 C 
ATOM     11  C   UNL     1      34.207  -9.414 -23.906  0.00  0.00    +0.032 C 
ATOM     12  C   UNL     1      34.232 -10.957 -23.985  0.00  0.00    +0.111 C 
ATOM     13  C   UNL     1      33.241 -13.231 -22.997  0.00  0.00    +0.036 C 
ATOM     14  C   UNL     1      31.027 -11.594 -21.752  0.00  0.00    +0.004 C 
ATOM     15  C   UNL     1      32.106  -9.020 -25.295  0.00  0.00    +0.003 C 
ATOM     16  C   UNL     1      30.968 -13.115 -21.785  0.00  0.00    +0.022 C 
ATOM     17  C   UNL     1      32.360 -13.691 -21.829  0.00  0.00    -0.038 C 
ATOM     18  C   UNL     1      32.707  -6.233 -21.496  0.00  0.00    +0.235 C 
ATOM     19  C   UNL     1      32.634 -13.799 -24.301  0.00  0.00    +0.009 C 
ATOM     20  C   UNL     1      34.644 -13.807 -22.888  0.00  0.00    -0.020 C 
ATOM     21  C   UNL     1      32.779 -14.521 -20.861  0.00  0.00    +0.034 C 
ATOM     22  C   UNL     1      35.067 -14.633 -21.927  0.00  0.00    +0.038 C 
ATOM     23  C   UNL     1      34.155 -15.059 -20.851  0.00  0.00    +0.195 C 
ENDROOT
BRANCH  12  24
ATOM     24  O   UNL     1      33.924 -11.341 -25.318  0.00  0.00    -0.384 OA
ATOM     25  H   UNL     1      32.972 -11.232 -25.474  0.00  0.00    +0.210 HD
ENDBRANCH  12  24
BRANCH   7  27
ATOM     26  O   UNL     1      34.151  -6.294 -25.023  0.00  0.00    -0.291 OA
ATOM     27  C   UNL     1      33.017  -6.348 -24.548  0.00  0.00    +0.207 C 
BRANCH  27  28
ATOM     28  C   UNL     1      31.904  -5.426 -24.997  0.00  0.00    +0.204 C 
BRANCH  28  29
ATOM     29  O   UNL     1      32.013  -4.168 -24.365  0.00  0.00    -0.375 OA
ATOM     30  H   UNL     1      31.246  -3.622 -24.596  0.00  0.00    +0.211 HD
ENDBRANCH  28  29
ENDBRANCH  27  28
ENDBRANCH   7  27
BRANCH  18  31
ATOM     31  C   UNL     1      33.009  -6.601 -20.056  0.00  0.00    +0.061 C 
BRANCH  31  32
ATOM     32  C   UNL     1      31.944  -7.535 -19.478  0.00  0.00    +0.005 C 
ATOM     33  C   UNL     1      32.399  -8.985 -19.502  0.00  0.00    +0.000 C 
ENDBRANCH  31  32
ENDBRANCH  18  31
TORSDOF 6
ENDMDL
MODEL 2
REMARK VINA RESULT:      -3.6      2.777      6.391
REMARK  Name = 5281004
REMARK  6 active torsions:
REMARK  status: ('A' for Active; 'I' for Inactive)
REMARK    1  A    between atoms: C_7  and  C_27
REMARK    2  A    between atoms: C_12  and  O_24
REMARK    3  A    between atoms: C_18  and  C_31
REMARK    4  A    between atoms: C_27  and  C_28
REMARK    5  A    between atoms: C_28  and  O_29
REMARK    6  A    between atoms: C_31  and  C_32
REMARK                            x       y       z     vdW  Elec       q    Type
REMARK                         _______ _______ _______ _____ _____    ______ ____
ROOT
ATOM      1  O   UNL     1      30.814  -3.801 -26.987  0.00  0.00    -0.326 OA
ATOM      2  O   UNL     1      32.702  -2.471 -27.391  0.00  0.00    -0.330 OA
ATOM      3  O   UNL     1      33.925 -12.126 -24.705  0.00  0.00    -0.287 OA
ATOM      4  C   UNL     1      31.420  -4.297 -24.642  0.00  0.00    +0.034 C 
ATOM      5  C   UNL     1      32.772  -4.866 -25.127  0.00  0.00    +0.005 C 
ATOM      6  C   UNL     1      33.353  -5.937 -24.193  0.00  0.00    +0.003 C 
ATOM      7  C   UNL     1      31.183  -3.226 -25.737  0.00  0.00    +0.173 C 
ATOM      8  C   UNL     1      32.340  -7.135 -24.109  0.00  0.00    +0.034 C 
ATOM      9  C   UNL     1      33.600  -3.614 -25.430  0.00  0.00    +0.033 C 
ATOM     10  C   UNL     1      32.565  -2.609 -25.979  0.00  0.00    +0.149 C 
ATOM     11  C   UNL     1      30.414  -5.463 -24.618  0.00  0.00    +0.032 C 
ATOM     12  C   UNL     1      30.890  -6.663 -23.769  0.00  0.00    +0.111 C 
ATOM     13  C   UNL     1      32.909  -8.331 -23.248  0.00  0.00    +0.036 C 
ATOM     14  C   UNL     1      34.727  -6.407 -24.704  0.00  0.00    +0.004 C 
ATOM     15  C   UNL     1      31.503  -3.607 -23.254  0.00  0.00    +0.003 C 
ATOM     16  C   UNL     1      35.286  -7.565 -23.889  0.00  0.00    +0.022 C 
ATOM     17  C   UNL     1      34.284  -8.689 -23.824  0.00  0.00    -0.038 C 
ATOM     18  C   UNL     1      31.565  -3.101 -27.977  0.00  0.00    +0.235 C 
ATOM     19  C   UNL     1      33.094  -8.001 -21.748  0.00  0.00    +0.009 C 
ATOM     20  C   UNL     1      31.960  -9.517 -23.313  0.00  0.00    -0.020 C 
ATOM     21  C   UNL     1      34.603  -9.906 -24.292  0.00  0.00    +0.034 C 
ATOM     22  C   UNL     1      32.270 -10.731 -23.778  0.00  0.00    +0.038 C 
ATOM     23  C   UNL     1      33.623 -11.012 -24.289  0.00  0.00    +0.195 C 
ENDROOT
BRANCH  12  24
ATOM     24  O   UNL     1      30.747  -6.324 -22.397  0.00  0.00    -0.384 OA
ATOM     25  H   UNL     1      29.943  -6.736 -22.045  0.00  0.00    +0.210 HD
ENDBRANCH  12  24
BRANCH   7  27
ATOM     26  O   UNL     1      29.967  -1.786 -24.278  0.00  0.00    -0.291 OA
ATOM     27  C   UNL     1      30.114  -2.223 -25.418  0.00  0.00    +0.207 C 
BRANCH  27  28
ATOM     28  C   UNL     1      29.238  -1.787 -26.573  0.00  0.00    +0.204 C 
BRANCH  28  29
ATOM     29  O   UNL     1      27.873  -1.846 -26.213  0.00  0.00    -0.375 OA
ATOM     30  H   UNL     1      27.787  -1.735 -25.253  0.00  0.00    +0.211 HD
ENDBRANCH  28  29
ENDBRANCH  27  28
ENDBRANCH   7  27
BRANCH  18  31
ATOM     31  C   UNL     1      32.015  -4.070 -29.053  0.00  0.00    +0.061 C 
BRANCH  31  32
ATOM     32  C   UNL     1      33.416  -4.614 -28.773  0.00  0.00    +0.005 C 
ATOM     33  C   UNL     1      34.409  -4.182 -29.841  0.00  0.00    +0.000 C 
ENDBRANCH  31  32
ENDBRANCH  18  31
TORSDOF 6
ENDMDL
MODEL 3
REMARK VINA RESULT:      -3.2      2.168      4.594
REMARK  Name = 5281004
REMARK  6 active torsions:
REMARK  status: ('A' for Active; 'I' for Inactive)
REMARK    1  A    between atoms: C_7  and  C_27
REMARK    2  A    between atoms: C_12  and  O_24
REMARK    3  A    between atoms: C_18  and  C_31
REMARK    4  A    between atoms: C_27  and  C_28
REMARK    5  A    between atoms: C_28  and  O_29
REMARK    6  A    between atoms: C_31  and  C_32
REMARK                            x       y       z     vdW  Elec       q    Type
REMARK                         _______ _______ _______ _____ _____    ______ ____
ROOT
ATOM      1  O   UNL     1      30.835  -6.375 -23.512  0.00  0.00    -0.326 OA
ATOM      2  O   UNL     1      32.586  -4.834 -23.749  0.00  0.00    -0.330 OA
ATOM      3  O   UNL     1      33.380 -13.931 -28.055  0.00  0.00    -0.287 OA
ATOM      4  C   UNL     1      32.226  -8.084 -22.392  0.00  0.00    +0.034 C 
ATOM      5  C   UNL     1      33.190  -8.071 -23.600  0.00  0.00    +0.005 C 
ATOM      6  C   UNL     1      33.930  -9.400 -23.804  0.00  0.00    +0.003 C 
ATOM      7  C   UNL     1      31.737  -6.614 -22.437  0.00  0.00    +0.173 C 
ATOM      8  C   UNL     1      32.871 -10.532 -24.058  0.00  0.00    +0.034 C 
ATOM      9  C   UNL     1      34.003  -6.790 -23.396  0.00  0.00    +0.033 C 
ATOM     10  C   UNL     1      32.989  -5.801 -22.783  0.00  0.00    +0.149 C 
ATOM     11  C   UNL     1      31.155  -9.155 -22.672  0.00  0.00    +0.032 C 
ATOM     12  C   UNL     1      31.749 -10.549 -22.971  0.00  0.00    +0.111 C 
ATOM     13  C   UNL     1      33.555 -11.919 -24.382  0.00  0.00    +0.036 C 
ATOM     14  C   UNL     1      34.917  -9.289 -24.981  0.00  0.00    +0.004 C 
ATOM     15  C   UNL     1      32.938  -8.351 -21.038  0.00  0.00    +0.003 C 
ATOM     16  C   UNL     1      35.579 -10.620 -25.311  0.00  0.00    +0.022 C 
ATOM     17  C   UNL     1      34.533 -11.682 -25.539  0.00  0.00    -0.038 C 
ATOM     18  C   UNL     1      31.234  -5.134 -24.089  0.00  0.00    +0.235 C 
ATOM     19  C   UNL     1      34.351 -12.525 -23.203  0.00  0.00    +0.009 C 
ATOM     20  C   UNL     1      32.497 -12.945 -24.759  0.00  0.00    -0.020 C 
ATOM     21  C   UNL     1      34.471 -12.327 -26.714  0.00  0.00    +0.034 C 
ATOM     22  C   UNL     1      32.428 -13.591 -25.927  0.00  0.00    +0.038 C 
ATOM     23  C   UNL     1      33.423 -13.334 -26.984  0.00  0.00    +0.195 C 
ENDROOT
BRANCH  12  24
ATOM     24  O   UNL     1      32.199 -11.115 -21.749  0.00  0.00    -0.384 OA
ATOM     25  H   UNL     1      33.143 -11.327 -21.819  0.00  0.00    +0.210 HD
ENDBRANCH  12  24
BRANCH   7  27
ATOM     26  O   UNL     1      31.428  -6.458 -20.078  0.00  0.00    -0.291 OA
ATOM     27  C   UNL     1      31.028  -6.147 -21.199  0.00  0.00    +0.207 C 
BRANCH  27  28
ATOM     28  C   UNL     1      29.806  -5.280 -21.413  0.00  0.00    +0.204 C 
BRANCH  28  29
ATOM     29  O   UNL     1      30.183  -3.966 -21.768  0.00  0.00    -0.375 OA
ATOM     30  H   UNL     1      29.436  -3.520 -22.195  0.00  0.00    +0.211 HD
ENDBRANCH  28  29
ENDBRANCH  27  28
ENDBRANCH   7  27
BRANCH  18  31
ATOM     31  C   UNL     1      31.089  -5.203 -25.597  0.00  0.00    +0.061 C 
BRANCH  31  32
ATOM     32  C   UNL     1      31.940  -4.141 -26.295  0.00  0.00    +0.005 C 
ATOM     33  C   UNL     1      33.046  -4.768 -27.129  0.00  0.00    +0.000 C 
ENDBRANCH  31  32
ENDBRANCH  18  31
TORSDOF 6
ENDMDL
MODEL 4
REMARK VINA RESULT:      -3.0     13.390     16.782
REMARK  Name = 5281004
REMARK  6 active torsions:
REMARK  status: ('A' for Active; 'I' for Inactive)
REMARK    1  A    between atoms: C_7  and  C_27
REMARK    2  A    between atoms: C_12  and  O_24
REMARK    3  A    between atoms: C_18  and  C_31
REMARK    4  A    between atoms: C_27  and  C_28
REMARK    5  A    between atoms: C_28  and  O_29
REMARK    6  A    between atoms: C_31  and  C_32
REMARK                            x       y       z     vdW  Elec       q    Type
REMARK                         _______ _______ _______ _____ _____    ______ ____
ROOT
ATOM      1  O   UNL     1      35.410 -22.372 -14.664  0.00  0.00    -0.326 OA
ATOM      2  O   UNL     1      36.407 -23.966 -16.064  0.00  0.00    -0.330 OA
ATOM      3  O   UNL     1      26.743 -21.440 -17.527  0.00  0.00    -0.287 OA
ATOM      4  C   UNL     1      33.659 -23.906 -13.833  0.00  0.00    +0.034 C 
ATOM      5  C   UNL     1      33.209 -24.159 -15.289  0.00  0.00    +0.005 C 
ATOM      6  C   UNL     1      31.726 -24.536 -15.412  0.00  0.00    +0.003 C 
ATOM      7  C   UNL     1      35.168 -23.644 -14.071  0.00  0.00    +0.173 C 
ATOM      8  C   UNL     1      30.858 -23.355 -14.848  0.00  0.00    +0.034 C 
ATOM      9  C   UNL     1      34.269 -25.121 -15.831  0.00  0.00    +0.033 C 
ATOM     10  C   UNL     1      35.573 -24.662 -15.143  0.00  0.00    +0.149 C 
ATOM     11  C   UNL     1      32.847 -22.710 -13.302  0.00  0.00    +0.032 C 
ATOM     12  C   UNL     1      31.320 -22.907 -13.425  0.00  0.00    +0.111 C 
ATOM     13  C   UNL     1      29.311 -23.618 -15.032  0.00  0.00    +0.036 C 
ATOM     14  C   UNL     1      31.369 -24.836 -16.879  0.00  0.00    +0.004 C 
ATOM     15  C   UNL     1      33.490 -25.145 -12.912  0.00  0.00    +0.003 C 
ATOM     16  C   UNL     1      29.879 -25.084 -17.076  0.00  0.00    +0.022 C 
ATOM     17  C   UNL     1      29.080 -23.936 -16.515  0.00  0.00    -0.038 C 
ATOM     18  C   UNL     1      36.385 -22.593 -15.681  0.00  0.00    +0.235 C 
ATOM     19  C   UNL     1      28.765 -24.803 -14.203  0.00  0.00    +0.009 C 
ATOM     20  C   UNL     1      28.519 -22.392 -14.604  0.00  0.00    -0.020 C 
ATOM     21  C   UNL     1      28.258 -23.233 -17.309  0.00  0.00    +0.034 C 
ATOM     22  C   UNL     1      27.700 -21.687 -15.389  0.00  0.00    +0.038 C 
ATOM     23  C   UNL     1      27.503 -22.070 -16.799  0.00  0.00    +0.195 C 
ENDROOT
BRANCH  12  24
ATOM     24  O   UNL     1      30.905 -23.817 -12.417  0.00  0.00    -0.384 OA
ATOM     25  H   UNL     1      30.363 -24.516 -12.817  0.00  0.00    +0.210 HD
ENDBRANCH  12  24
BRANCH   7  27
ATOM     26  O   UNL     1      35.944 -22.809 -11.977  0.00  0.00    -0.291 OA
ATOM     27  C   UNL     1      36.019 -23.687 -12.836  0.00  0.00    +0.207 C 
BRANCH  27  28
ATOM     28  C   UNL     1      36.964 -24.863 -12.713  0.00  0.00    +0.204 C 
BRANCH  28  29
ATOM     29  O   UNL     1      36.599 -25.683 -11.623  0.00  0.00    -0.375 OA
ATOM     30  H   UNL     1      35.743 -25.392 -11.272  0.00  0.00    +0.211 HD
ENDBRANCH  28  29
ENDBRANCH  27  28
ENDBRANCH   7  27
BRANCH  18  31
ATOM     31  C   UNL     1      36.068 -21.729 -16.886  0.00  0.00    +0.061 C 
BRANCH  31  32
ATOM     32  C   UNL     1      35.171 -22.463 -17.884  0.00  0.00    +0.005 C 
ATOM     33  C   UNL     1      35.153 -21.768 -19.237  0.00  0.00    +0.000 C 
ENDBRANCH  31  32
ENDBRANCH  18  31
TORSDOF 6
ENDMDL
MODEL 5
REMARK VINA RESULT:      -2.4      5.723      9.712
REMARK  Name = 5281004
REMARK  6 active torsions:
REMARK  status: ('A' for Active; 'I' for Inactive)
REMARK    1  A    between atoms: C_7  and  C_27
REMARK    2  A    between atoms: C_12  and  O_24
REMARK    3  A    between atoms: C_18  and  C_31
REMARK    4  A    between atoms: C_27  and  C_28
REMARK    5  A    between atoms: C_28  and  O_29
REMARK    6  A    between atoms: C_31  and  C_32
REMARK                            x       y       z     vdW  Elec       q    Type
REMARK                         _______ _______ _______ _____ _____    ______ ____
ROOT
ATOM      1  O   UNL     1      34.580 -16.171 -21.265  0.00  0.00    -0.326 OA
ATOM      2  O   UNL     1      32.298 -16.133 -21.800  0.00  0.00    -0.330 OA
ATOM      3  O   UNL     1      35.659 -22.701 -14.909  0.00  0.00    -0.287 OA
ATOM      4  C   UNL     1      34.904 -18.524 -21.949  0.00  0.00    +0.034 C 
ATOM      5  C   UNL     1      33.792 -18.949 -20.964  0.00  0.00    +0.005 C 
ATOM      6  C   UNL     1      33.955 -20.384 -20.443  0.00  0.00    +0.003 C 
ATOM      7  C   UNL     1      34.393 -17.108 -22.320  0.00  0.00    +0.173 C 
ATOM      8  C   UNL     1      35.325 -20.492 -19.683  0.00  0.00    +0.034 C 
ATOM      9  C   UNL     1      32.502 -18.563 -21.691  0.00  0.00    +0.033 C 
ATOM     10  C   UNL     1      32.873 -17.267 -22.443  0.00  0.00    +0.149 C 
ATOM     11  C   UNL     1      36.240 -18.574 -21.183  0.00  0.00    +0.032 C 
ATOM     12  C   UNL     1      36.518 -19.946 -20.531  0.00  0.00    +0.111 C 
ATOM     13  C   UNL     1      35.525 -21.913 -19.023  0.00  0.00    +0.036 C 
ATOM     14  C   UNL     1      32.779 -20.757 -19.522  0.00  0.00    +0.004 C 
ATOM     15  C   UNL     1      34.964 -19.403 -23.228  0.00  0.00    +0.003 C 
ATOM     16  C   UNL     1      32.960 -22.122 -18.872  0.00  0.00    +0.022 C 
ATOM     17  C   UNL     1      34.288 -22.190 -18.161  0.00  0.00    -0.038 C 
ATOM     18  C   UNL     1      33.371 -15.419 -21.190  0.00  0.00    +0.235 C 
ATOM     19  C   UNL     1      35.665 -23.070 -20.039  0.00  0.00    +0.009 C 
ATOM     20  C   UNL     1      36.793 -21.924 -18.183  0.00  0.00    -0.020 C 
ATOM     21  C   UNL     1      34.336 -22.439 -16.843  0.00  0.00    +0.034 C 
ATOM     22  C   UNL     1      36.849 -22.170 -16.871  0.00  0.00    +0.038 C 
ATOM     23  C   UNL     1      35.620 -22.459 -16.111  0.00  0.00    +0.195 C 
ENDROOT
BRANCH  12  24
ATOM     24  O   UNL     1      36.906 -20.855 -21.552  0.00  0.00    -0.384 OA
ATOM     25  H   UNL     1      37.783 -20.609 -21.887  0.00  0.00    +0.210 HD
ENDBRANCH  12  24
BRANCH   7  27
ATOM     26  O   UNL     1      36.239 -16.209 -23.531  0.00  0.00    -0.291 OA
ATOM     27  C   UNL     1      35.043 -16.499 -23.527  0.00  0.00    +0.207 C 
BRANCH  27  28
ATOM     28  C   UNL     1      34.147 -16.266 -24.724  0.00  0.00    +0.204 C 
BRANCH  28  29
ATOM     29  O   UNL     1      34.676 -16.896 -25.872  0.00  0.00    -0.375 OA
ATOM     30  H   UNL     1      34.253 -17.761 -25.990  0.00  0.00    +0.211 HD
ENDBRANCH  28  29
ENDBRANCH  27  28
ENDBRANCH   7  27
BRANCH  18  31
ATOM     31  C   UNL     1      33.037 -15.134 -19.739  0.00  0.00    +0.061 C 
BRANCH  31  32
ATOM     32  C   UNL     1      32.328 -13.788 -19.577  0.00  0.00    +0.005 C 
ATOM     33  C   UNL     1      32.291 -13.013 -20.885  0.00  0.00    +0.000 C 
ENDBRANCH  31  32
ENDBRANCH  18  31
TORSDOF 6
ENDMDL
MODEL 6
REMARK VINA RESULT:      -2.2     14.691     17.433
REMARK  Name = 5281004
REMARK  6 active torsions:
REMARK  status: ('A' for Active; 'I' for Inactive)
REMARK    1  A    between atoms: C_7  and  C_27
REMARK    2  A    between atoms: C_12  and  O_24
REMARK    3  A    between atoms: C_18  and  C_31
REMARK    4  A    between atoms: C_27  and  C_28
REMARK    5  A    between atoms: C_28  and  O_29
REMARK    6  A    between atoms: C_31  and  C_32
REMARK                            x       y       z     vdW  Elec       q    Type
REMARK                         _______ _______ _______ _____ _____    ______ ____
ROOT
ATOM      1  O   UNL     1      37.341 -25.540 -13.701  0.00  0.00    -0.326 OA
ATOM      2  O   UNL     1      37.890 -23.949 -12.069  0.00  0.00    -0.330 OA
ATOM      3  O   UNL     1      28.188 -25.572 -14.342  0.00  0.00    -0.287 OA
ATOM      4  C   UNL     1      36.197 -23.922 -15.179  0.00  0.00    +0.034 C 
ATOM      5  C   UNL     1      35.258 -23.542 -14.012  0.00  0.00    +0.005 C 
ATOM      6  C   UNL     1      33.884 -23.037 -14.474  0.00  0.00    +0.003 C 
ATOM      7  C   UNL     1      37.470 -24.292 -14.375  0.00  0.00    +0.173 C 
ATOM      8  C   UNL     1      33.180 -24.175 -15.296  0.00  0.00    +0.034 C 
ATOM      9  C   UNL     1      36.125 -22.638 -13.132  0.00  0.00    +0.033 C 
ATOM     10  C   UNL     1      37.539 -23.245 -13.257  0.00  0.00    +0.149 C 
ATOM     11  C   UNL     1      35.530 -25.078 -15.947  0.00  0.00    +0.032 C 
ATOM     12  C   UNL     1      34.098 -24.749 -16.422  0.00  0.00    +0.111 C 
ATOM     13  C   UNL     1      31.712 -23.775 -15.723  0.00  0.00    +0.036 C 
ATOM     14  C   UNL     1      33.031 -22.617 -13.264  0.00  0.00    +0.004 C 
ATOM     15  C   UNL     1      36.513 -22.734 -16.127  0.00  0.00    +0.003 C 
ATOM     16  C   UNL     1      31.610 -22.235 -13.658  0.00  0.00    +0.022 C 
ATOM     17  C   UNL     1      30.972 -23.346 -14.451  0.00  0.00    -0.038 C 
ATOM     18  C   UNL     1      37.876 -25.337 -12.395  0.00  0.00    +0.235 C 
ATOM     19  C   UNL     1      31.642 -22.603 -16.730  0.00  0.00    +0.009 C 
ATOM     20  C   UNL     1      31.023 -24.956 -16.389  0.00  0.00    -0.020 C 
ATOM     21  C   UNL     1      29.844 -23.928 -14.012  0.00  0.00    +0.034 C 
ATOM     22  C   UNL     1      29.902 -25.540 -15.958  0.00  0.00    +0.038 C 
ATOM     23  C   UNL     1      29.226 -25.055 -14.741  0.00  0.00    +0.195 C 
ENDROOT
BRANCH  12  24
ATOM     24  O   UNL     1      34.187 -23.872 -17.536  0.00  0.00    -0.384 OA
ATOM     25  H   UNL     1      34.572 -23.028 -17.252  0.00  0.00    +0.210 HD
ENDBRANCH  12  24
BRANCH   7  27
ATOM     26  O   UNL     1      39.100 -23.470 -15.908  0.00  0.00    -0.291 OA
ATOM     27  C   UNL     1      38.724 -24.398 -15.192  0.00  0.00    +0.207 C 
BRANCH  27  28
ATOM     28  C   UNL     1      39.488 -25.699 -15.082  0.00  0.00    +0.204 C 
BRANCH  28  29
ATOM     29  O   UNL     1      40.370 -25.853 -16.174  0.00  0.00    -0.375 OA
ATOM     30  H   UNL     1      39.984 -25.440 -16.962  0.00  0.00    +0.211 HD
ENDBRANCH  28  29
ENDBRANCH  27  28
ENDBRANCH   7  27
BRANCH  18  31
ATOM     31  C   UNL     1      37.043 -26.094 -11.380  0.00  0.00    +0.061 C 
BRANCH  31  32
ATOM     32  C   UNL     1      35.666 -25.455 -11.192  0.00  0.00    +0.005 C 
ATOM     33  C   UNL     1      35.672 -24.432 -10.067  0.00  0.00    +0.000 C 
ENDBRANCH  31  32
ENDBRANCH  18  31
TORSDOF 6
ENDMDL
MODEL 7
REMARK VINA RESULT:      -2.1      6.235     10.838
REMARK  Name = 5281004
REMARK  6 active torsions:
REMARK  status: ('A' for Active; 'I' for Inactive)
REMARK    1  A    between atoms: C_7  and  C_27
REMARK    2  A    between atoms: C_12  and  O_24
REMARK    3  A    between atoms: C_18  and  C_31
REMARK    4  A    between atoms: C_27  and  C_28
REMARK    5  A    between atoms: C_28  and  O_29
REMARK    6  A    between atoms: C_31  and  C_32
REMARK                            x       y       z     vdW  Elec       q    Type
REMARK                         _______ _______ _______ _____ _____    ______ ____
ROOT
ATOM      1  O   UNL     1      35.401 -17.372 -20.728  0.00  0.00    -0.326 OA
ATOM      2  O   UNL     1      33.353 -16.837 -21.736  0.00  0.00    -0.330 OA
ATOM      3  O   UNL     1      33.490 -23.102 -13.821  0.00  0.00    -0.287 OA
ATOM      4  C   UNL     1      35.200 -19.800 -21.152  0.00  0.00    +0.034 C 
ATOM      5  C   UNL     1      33.853 -19.806 -20.395  0.00  0.00    +0.005 C 
ATOM      6  C   UNL     1      33.524 -21.158 -19.746  0.00  0.00    +0.003 C 
ATOM      7  C   UNL     1      35.167 -18.361 -21.726  0.00  0.00    +0.173 C 
ATOM      8  C   UNL     1      34.650 -21.505 -18.708  0.00  0.00    +0.034 C 
ATOM      9  C   UNL     1      32.871 -19.207 -21.405  0.00  0.00    +0.033 C 
ATOM     10  C   UNL     1      33.710 -18.151 -22.156  0.00  0.00    +0.149 C 
ATOM     11  C   UNL     1      36.308 -20.082 -20.119  0.00  0.00    +0.032 C 
ATOM     12  C   UNL     1      36.082 -21.386 -19.323  0.00  0.00    +0.111 C 
ATOM     13  C   UNL     1      34.335 -22.836 -17.916  0.00  0.00    +0.036 C 
ATOM     14  C   UNL     1      32.142 -21.107 -19.070  0.00  0.00    +0.004 C 
ATOM     15  C   UNL     1      35.256 -20.821 -22.320  0.00  0.00    +0.003 C 
ATOM     16  C   UNL     1      31.826 -22.380 -18.296  0.00  0.00    +0.022 C 
ATOM     17  C   UNL     1      32.932 -22.685 -17.318  0.00  0.00    -0.038 C 
ATOM     18  C   UNL     1      34.447 -16.340 -20.967  0.00  0.00    +0.235 C 
ATOM     19  C   UNL     1      34.343 -24.111 -18.791  0.00  0.00    +0.009 C 
ATOM     20  C   UNL     1      35.376 -23.054 -16.829  0.00  0.00    -0.020 C 
ATOM     21  C   UNL     1      32.668 -22.768 -16.005  0.00  0.00    +0.034 C 
ATOM     22  C   UNL     1      35.121 -23.138 -15.520  0.00  0.00    +0.038 C 
ATOM     23  C   UNL     1      33.740 -23.013 -15.018  0.00  0.00    +0.195 C 
ENDROOT
BRANCH  12  24
ATOM     24  O   UNL     1      36.392 -22.485 -20.168  0.00  0.00    -0.384 OA
ATOM     25  H   UNL     1      35.658 -22.637 -20.783  0.00  0.00    +0.210 HD
ENDBRANCH  12  24
BRANCH   7  27
ATOM     26  O   UNL     1      37.366 -18.318 -22.646  0.00  0.00    -0.291 OA
ATOM     27  C   UNL     1      36.168 -18.090 -22.811  0.00  0.00    +0.207 C 
BRANCH  27  28
ATOM     28  C   UNL     1      35.619 -17.528 -24.104  0.00  0.00    +0.204 C 
BRANCH  28  29
ATOM     29  O   UNL     1      35.589 -16.117 -24.061  0.00  0.00    -0.375 OA
ATOM     30  H   UNL     1      35.825 -15.761 -24.932  0.00  0.00    +0.211 HD
ENDBRANCH  28  29
ENDBRANCH  27  28
ENDBRANCH   7  27
BRANCH  18  31
ATOM     31  C   UNL     1      33.940 -15.799 -19.645  0.00  0.00    +0.061 C 
BRANCH  31  32
ATOM     32  C   UNL     1      32.573 -15.130 -19.797  0.00  0.00    +0.005 C 
ATOM     33  C   UNL     1      32.669 -13.830 -20.580  0.00  0.00    +0.000 C 
ENDBRANCH  31  32
ENDBRANCH  18  31
TORSDOF 6
ENDMDL
MODEL 8
REMARK VINA RESULT:      -1.1      2.335      4.729
REMARK  Name = 5281004
REMARK  6 active torsions:
REMARK  status: ('A' for Active; 'I' for Inactive)
REMARK    1  A    between atoms: C_7  and  C_27
REMARK    2  A    between atoms: C_12  and  O_24
REMARK    3  A    between atoms: C_18  and  C_31
REMARK    4  A    between atoms: C_27  and  C_28
REMARK    5  A    between atoms: C_28  and  O_29
REMARK    6  A    between atoms: C_31  and  C_32
REMARK                            x       y       z     vdW  Elec       q    Type
REMARK                         _______ _______ _______ _____ _____    ______ ____
ROOT
ATOM      1  O   UNL     1      31.058  -5.757 -24.837  0.00  0.00    -0.326 OA
ATOM      2  O   UNL     1      33.028  -4.509 -25.079  0.00  0.00    -0.330 OA
ATOM      3  O   UNL     1      33.258 -14.481 -26.641  0.00  0.00    -0.287 OA
ATOM      4  C   UNL     1      31.960  -7.203 -23.046  0.00  0.00    +0.034 C 
ATOM      5  C   UNL     1      33.119  -7.616 -23.982  0.00  0.00    +0.005 C 
ATOM      6  C   UNL     1      33.682  -9.011 -23.676  0.00  0.00    +0.003 C 
ATOM      7  C   UNL     1      31.706  -5.766 -23.568  0.00  0.00    +0.173 C 
ATOM      8  C   UNL     1      32.534 -10.068 -23.852  0.00  0.00    +0.034 C 
ATOM      9  C   UNL     1      34.059  -6.409 -23.944  0.00  0.00    +0.033 C 
ATOM     10  C   UNL     1      33.105  -5.200 -23.835  0.00  0.00    +0.149 C 
ATOM     11  C   UNL     1      30.813  -8.208 -23.264  0.00  0.00    +0.032 C 
ATOM     12  C   UNL     1      31.243  -9.678 -23.063  0.00  0.00    +0.111 C 
ATOM     13  C   UNL     1      33.055 -11.546 -23.656  0.00  0.00    +0.036 C 
ATOM     14  C   UNL     1      34.871  -9.324 -24.602  0.00  0.00    +0.004 C 
ATOM     15  C   UNL     1      32.369  -7.144 -21.549  0.00  0.00    +0.003 C 
ATOM     16  C   UNL     1      35.381 -10.749 -24.432  0.00  0.00    +0.022 C 
ATOM     17  C   UNL     1      34.251 -11.732 -24.598  0.00  0.00    -0.038 C 
ATOM     18  C   UNL     1      31.731  -4.769 -25.613  0.00  0.00    +0.235 C 
ATOM     19  C   UNL     1      33.529 -11.867 -22.220  0.00  0.00    +0.009 C 
ATOM     20  C   UNL     1      31.946 -12.537 -23.975  0.00  0.00    -0.020 C 
ATOM     21  C   UNL     1      34.309 -12.672 -25.554  0.00  0.00    +0.034 C 
ATOM     22  C   UNL     1      31.996 -13.474 -24.926  0.00  0.00    +0.038 C 
ATOM     23  C   UNL     1      33.193 -13.615 -25.775  0.00  0.00    +0.195 C 
ENDROOT
BRANCH  12  24
ATOM     24  O   UNL     1      31.377  -9.917 -21.669  0.00  0.00    -0.384 OA
ATOM     25  H   UNL     1      30.506  -9.859 -21.246  0.00  0.00    +0.210 HD
ENDBRANCH  12  24
BRANCH   7  27
ATOM     26  O   UNL     1      29.898  -5.376 -22.064  0.00  0.00    -0.291 OA
ATOM     27  C   UNL     1      30.860  -4.910 -22.672  0.00  0.00    +0.207 C 
BRANCH  27  28
ATOM     28  C   UNL     1      31.261  -3.454 -22.565  0.00  0.00    +0.204 C 
BRANCH  28  29
ATOM     29  O   UNL     1      30.142  -2.651 -22.251  0.00  0.00    -0.375 OA
ATOM     30  H   UNL     1      29.879  -2.143 -23.035  0.00  0.00    +0.211 HD
ENDBRANCH  28  29
ENDBRANCH  27  28
ENDBRANCH   7  27
BRANCH  18  31
ATOM     31  C   UNL     1      31.853  -5.244 -27.047  0.00  0.00    +0.061 C 
BRANCH  31  32
ATOM     32  C   UNL     1      32.923  -4.462 -27.811  0.00  0.00    +0.005 C 
ATOM     33  C   UNL     1      32.311  -3.364 -28.667  0.00  0.00    +0.000 C 
ENDBRANCH  31  32
ENDBRANCH  18  31
TORSDOF 6
ENDMDL
