MODEL 1
REMARK VINA RESULT:      -6.9      0.000      0.000
REMARK  Name = 448926
REMARK  3 active torsions:
REMARK  status: ('A' for Active; 'I' for Inactive)
REMARK    1  A    between atoms: N_2  and  C_5
REMARK    2  A    between atoms: C_3  and  O_11
REMARK    3  A    between atoms: O_11  and  N_12
REMARK                            x       y       z     vdW  Elec       q    Type
REMARK                         _______ _______ _______ _____ _____    ______ ____
ROOT
ATOM      1  O   UNL     1      35.103 -16.333 -20.271  0.00  0.00    -0.224 OA
ATOM      2  N   UNL     1      34.558 -17.971 -21.854  0.00  0.00    -0.249 N 
ATOM      3  C   UNL     1      34.855 -16.681 -21.420  0.00  0.00    +0.423 C 
ATOM      4  H   UNL     1      34.383 -18.067 -22.818  0.00  0.00    +0.158 HD
ENDROOT
BRANCH   2   5
ATOM      5  C   UNL     1      34.475 -19.145 -21.105  0.00  0.00    +0.053 C 
ATOM      6  C   UNL     1      33.230 -19.626 -20.695  0.00  0.00    +0.015 C 
ATOM      7  C   UNL     1      35.636 -19.842 -20.768  0.00  0.00    +0.015 C 
ATOM      8  C   UNL     1      33.147 -20.800 -19.949  0.00  0.00    +0.001 C 
ATOM      9  C   UNL     1      35.552 -21.017 -20.021  0.00  0.00    +0.001 C 
ATOM     10  C   UNL     1      34.307 -21.495 -19.611  0.00  0.00    +0.000 C 
ENDBRANCH   2   5
BRANCH   3  11
ATOM     11  O   UNL     1      34.831 -15.830 -22.496  0.00  0.00    -0.357 OA
BRANCH  11  12
ATOM     12  N   UNL     1      35.682 -16.346 -23.556  0.00  0.00    -0.164 NA
ATOM     13  H   UNL     1      36.629 -15.990 -23.435  0.00  0.00    +0.163 HD
ATOM     14  H   UNL     1      35.318 -16.044 -24.460  0.00  0.00    +0.163 HD
ENDBRANCH  11  12
ENDBRANCH   3  11
TORSDOF 3
ENDMDL
MODEL 2
REMARK VINA RESULT:      -6.9      8.924      9.457
REMARK  Name = 448926
REMARK  3 active torsions:
REMARK  status: ('A' for Active; 'I' for Inactive)
REMARK    1  A    between atoms: N_2  and  C_5
REMARK    2  A    between atoms: C_3  and  O_11
REMARK    3  A    between atoms: O_11  and  N_12
REMARK                            x       y       z     vdW  Elec       q    Type
REMARK                         _______ _______ _______ _____ _____    ______ ____
ROOT
ATOM      1  O   UNL     1      27.457 -22.942 -18.009  0.00  0.00    -0.224 OA
ATOM      2  N   UNL     1      27.733 -22.461 -15.734  0.00  0.00    -0.249 N 
ATOM      3  C   UNL     1      27.112 -22.377 -16.978  0.00  0.00    +0.423 C 
ATOM      4  H   UNL     1      27.317 -21.935 -15.012  0.00  0.00    +0.158 HD
ENDROOT
BRANCH   2   5
ATOM      5  C   UNL     1      28.867 -23.189 -15.373  0.00  0.00    +0.053 C 
ATOM      6  C   UNL     1      28.812 -24.582 -15.309  0.00  0.00    +0.015 C 
ATOM      7  C   UNL     1      30.058 -22.525 -15.078  0.00  0.00    +0.015 C 
ATOM      8  C   UNL     1      29.945 -25.309 -14.949  0.00  0.00    +0.001 C 
ATOM      9  C   UNL     1      31.192 -23.253 -14.717  0.00  0.00    +0.001 C 
ATOM     10  C   UNL     1      31.135 -24.646 -14.653  0.00  0.00    +0.000 C 
ENDBRANCH   2   5
BRANCH   3  11
ATOM     11  O   UNL     1      26.024 -21.547 -16.880  0.00  0.00    -0.357 OA
BRANCH  11  12
ATOM     12  N   UNL     1      26.064 -20.549 -17.938  0.00  0.00    -0.164 NA
ATOM     13  H   UNL     1      26.374 -19.658 -17.552  0.00  0.00    +0.163 HD
ATOM     14  H   UNL     1      25.131 -20.440 -18.336  0.00  0.00    +0.163 HD
ENDBRANCH  11  12
ENDBRANCH   3  11
TORSDOF 3
ENDMDL
MODEL 3
REMARK VINA RESULT:      -6.5      7.935      8.795
REMARK  Name = 448926
REMARK  3 active torsions:
REMARK  status: ('A' for Active; 'I' for Inactive)
REMARK    1  A    between atoms: N_2  and  C_5
REMARK    2  A    between atoms: C_3  and  O_11
REMARK    3  A    between atoms: O_11  and  N_12
REMARK                            x       y       z     vdW  Elec       q    Type
REMARK                         _______ _______ _______ _____ _____    ______ ____
ROOT
ATOM      1  O   UNL     1      27.973 -24.598 -17.110  0.00  0.00    -0.224 OA
ATOM      2  N   UNL     1      29.118 -22.564 -16.924  0.00  0.00    -0.249 N 
ATOM      3  C   UNL     1      28.095 -23.404 -17.357  0.00  0.00    +0.423 C 
ATOM      4  H   UNL     1      29.056 -21.626 -17.221  0.00  0.00    +0.158 HD
ENDROOT
BRANCH   2   5
ATOM      5  C   UNL     1      30.221 -22.871 -16.126  0.00  0.00    +0.053 C 
ATOM      6  C   UNL     1      30.068 -23.008 -14.746  0.00  0.00    +0.015 C 
ATOM      7  C   UNL     1      31.477 -23.044 -16.709  0.00  0.00    +0.015 C 
ATOM      8  C   UNL     1      31.169 -23.316 -13.949  0.00  0.00    +0.001 C 
ATOM      9  C   UNL     1      32.579 -23.352 -15.911  0.00  0.00    +0.001 C 
ATOM     10  C   UNL     1      32.425 -23.488 -14.531  0.00  0.00    +0.000 C 
ENDBRANCH   2   5
BRANCH   3  11
ATOM     11  O   UNL     1      27.215 -22.681 -18.122  0.00  0.00    -0.357 OA
BRANCH  11  12
ATOM     12  N   UNL     1      26.677 -21.574 -17.346  0.00  0.00    -0.164 NA
ATOM     13  H   UNL     1      27.428 -21.132 -16.818  0.00  0.00    +0.163 HD
ATOM     14  H   UNL     1      25.969 -21.925 -16.701  0.00  0.00    +0.163 HD
ENDBRANCH  11  12
ENDBRANCH   3  11
TORSDOF 3
ENDMDL
MODEL 4
REMARK VINA RESULT:      -6.5      1.747      2.473
REMARK  Name = 448926
REMARK  3 active torsions:
REMARK  status: ('A' for Active; 'I' for Inactive)
REMARK    1  A    between atoms: N_2  and  C_5
REMARK    2  A    between atoms: C_3  and  O_11
REMARK    3  A    between atoms: O_11  and  N_12
REMARK                            x       y       z     vdW  Elec       q    Type
REMARK                         _______ _______ _______ _____ _____    ______ ____
ROOT
ATOM      1  O   UNL     1      34.834 -19.386 -24.305  0.00  0.00    -0.224 OA
ATOM      2  N   UNL     1      34.649 -18.291 -22.244  0.00  0.00    -0.249 N 
ATOM      3  C   UNL     1      34.786 -18.366 -23.628  0.00  0.00    +0.423 C 
ATOM      4  H   UNL     1      34.630 -17.381 -21.865  0.00  0.00    +0.158 HD
ENDROOT
BRANCH   2   5
ATOM      5  C   UNL     1      34.535 -19.331 -21.321  0.00  0.00    +0.053 C 
ATOM      6  C   UNL     1      35.681 -19.962 -20.836  0.00  0.00    +0.015 C 
ATOM      7  C   UNL     1      33.276 -19.738 -20.880  0.00  0.00    +0.015 C 
ATOM      8  C   UNL     1      35.568 -21.001 -19.913  0.00  0.00    +0.001 C 
ATOM      9  C   UNL     1      33.162 -20.777 -19.957  0.00  0.00    +0.001 C 
ATOM     10  C   UNL     1      34.309 -21.409 -19.473  0.00  0.00    +0.000 C 
ENDBRANCH   2   5
BRANCH   3  11
ATOM     11  O   UNL     1      34.861 -17.095 -24.140  0.00  0.00    -0.357 OA
BRANCH  11  12
ATOM     12  N   UNL     1      34.604 -17.121 -25.572  0.00  0.00    -0.164 NA
ATOM     13  H   UNL     1      33.684 -17.525 -25.744  0.00  0.00    +0.163 HD
ATOM     14  H   UNL     1      35.316 -17.688 -26.033  0.00  0.00    +0.163 HD
ENDBRANCH  11  12
ENDBRANCH   3  11
TORSDOF 3
ENDMDL
MODEL 5
REMARK VINA RESULT:      -6.3      4.732      5.957
REMARK  Name = 448926
REMARK  3 active torsions:
REMARK  status: ('A' for Active; 'I' for Inactive)
REMARK    1  A    between atoms: N_2  and  C_5
REMARK    2  A    between atoms: C_3  and  O_11
REMARK    3  A    between atoms: O_11  and  N_12
REMARK                            x       y       z     vdW  Elec       q    Type
REMARK                         _______ _______ _______ _____ _____    ______ ____
ROOT
ATOM      1  O   UNL     1      34.408 -23.120 -17.206  0.00  0.00    -0.224 OA
ATOM      2  N   UNL     1      32.815 -22.165 -18.633  0.00  0.00    -0.249 N 
ATOM      3  C   UNL     1      33.253 -22.975 -17.587  0.00  0.00    +0.423 C 
ATOM      4  H   UNL     1      31.845 -22.172 -18.801  0.00  0.00    +0.158 HD
ENDROOT
BRANCH   2   5
ATOM      5  C   UNL     1      33.568 -21.345 -19.474  0.00  0.00    +0.053 C 
ATOM      6  C   UNL     1      34.951 -21.510 -19.557  0.00  0.00    +0.015 C 
ATOM      7  C   UNL     1      32.937 -20.360 -20.235  0.00  0.00    +0.015 C 
ATOM      8  C   UNL     1      35.702 -20.691 -20.398  0.00  0.00    +0.001 C 
ATOM      9  C   UNL     1      33.689 -19.541 -21.078  0.00  0.00    +0.001 C 
ATOM     10  C   UNL     1      35.072 -19.707 -21.159  0.00  0.00    +0.000 C 
ENDBRANCH   2   5
BRANCH   3  11
ATOM     11  O   UNL     1      32.171 -23.607 -17.027  0.00  0.00    -0.357 OA
BRANCH  11  12
ATOM     12  N   UNL     1      31.049 -22.684 -16.940  0.00  0.00    -0.164 NA
ATOM     13  H   UNL     1      31.008 -22.287 -16.002  0.00  0.00    +0.163 HD
ATOM     14  H   UNL     1      30.182 -23.186 -17.134  0.00  0.00    +0.163 HD
ENDBRANCH  11  12
ENDBRANCH   3  11
TORSDOF 3
ENDMDL
MODEL 6
REMARK VINA RESULT:      -6.2      3.110      4.829
REMARK  Name = 448926
REMARK  3 active torsions:
REMARK  status: ('A' for Active; 'I' for Inactive)
REMARK    1  A    between atoms: N_2  and  C_5
REMARK    2  A    between atoms: C_3  and  O_11
REMARK    3  A    between atoms: O_11  and  N_12
REMARK                            x       y       z     vdW  Elec       q    Type
REMARK                         _______ _______ _______ _____ _____    ______ ____
ROOT
ATOM      1  O   UNL     1      32.454 -20.376 -20.609  0.00  0.00    -0.224 OA
ATOM      2  N   UNL     1      34.732 -19.838 -20.673  0.00  0.00    -0.249 N 
ATOM      3  C   UNL     1      33.607 -20.523 -20.220  0.00  0.00    +0.423 C 
ATOM      4  H   UNL     1      35.584 -20.086 -20.244  0.00  0.00    +0.158 HD
ENDROOT
BRANCH   2   5
ATOM      5  C   UNL     1      34.816 -18.848 -21.652  0.00  0.00    +0.053 C 
ATOM      6  C   UNL     1      34.903 -17.505 -21.282  0.00  0.00    +0.015 C 
ATOM      7  C   UNL     1      34.814 -19.200 -23.002  0.00  0.00    +0.015 C 
ATOM      8  C   UNL     1      34.987 -16.516 -22.260  0.00  0.00    +0.001 C 
ATOM      9  C   UNL     1      34.898 -18.209 -23.981  0.00  0.00    +0.001 C 
ATOM     10  C   UNL     1      34.984 -16.867 -23.610  0.00  0.00    +0.000 C 
ENDBRANCH   2   5
BRANCH   3  11
ATOM     11  O   UNL     1      33.986 -21.414 -19.248  0.00  0.00    -0.357 OA
BRANCH  11  12
ATOM     12  N   UNL     1      32.878 -22.300 -18.928  0.00  0.00    -0.164 NA
ATOM     13  H   UNL     1      32.392 -22.559 -19.786  0.00  0.00    +0.163 HD
ATOM     14  H   UNL     1      32.230 -21.821 -18.302  0.00  0.00    +0.163 HD
ENDBRANCH  11  12
ENDBRANCH   3  11
TORSDOF 3
ENDMDL
MODEL 7
REMARK VINA RESULT:      -6.1      4.120      5.487
REMARK  Name = 448926
REMARK  3 active torsions:
REMARK  status: ('A' for Active; 'I' for Inactive)
REMARK    1  A    between atoms: N_2  and  C_5
REMARK    2  A    between atoms: C_3  and  O_11
REMARK    3  A    between atoms: O_11  and  N_12
REMARK                            x       y       z     vdW  Elec       q    Type
REMARK                         _______ _______ _______ _____ _____    ______ ____
ROOT
ATOM      1  O   UNL     1      37.119 -20.659 -17.532  0.00  0.00    -0.224 OA
ATOM      2  N   UNL     1      35.551 -22.046 -18.582  0.00  0.00    -0.249 N 
ATOM      3  C   UNL     1      36.557 -21.740 -17.668  0.00  0.00    +0.423 C 
ATOM      4  H   UNL     1      35.213 -22.971 -18.551  0.00  0.00    +0.158 HD
ENDROOT
BRANCH   2   5
ATOM      5  C   UNL     1      34.958 -21.219 -19.536  0.00  0.00    +0.053 C 
ATOM      6  C   UNL     1      35.752 -20.515 -20.441  0.00  0.00    +0.015 C 
ATOM      7  C   UNL     1      33.569 -21.098 -19.587  0.00  0.00    +0.015 C 
ATOM      8  C   UNL     1      35.159 -19.689 -21.395  0.00  0.00    +0.001 C 
ATOM      9  C   UNL     1      32.975 -20.272 -20.542  0.00  0.00    +0.001 C 
ATOM     10  C   UNL     1      33.771 -19.567 -21.446  0.00  0.00    +0.000 C 
ENDBRANCH   2   5
BRANCH   3  11
ATOM     11  O   UNL     1      36.835 -22.854 -16.918  0.00  0.00    -0.357 OA
BRANCH  11  12
ATOM     12  N   UNL     1      35.623 -23.334 -16.274  0.00  0.00    -0.164 NA
ATOM     13  H   UNL     1      34.985 -23.700 -16.980  0.00  0.00    +0.163 HD
ATOM     14  H   UNL     1      35.174 -22.564 -15.778  0.00  0.00    +0.163 HD
ENDBRANCH  11  12
ENDBRANCH   3  11
TORSDOF 3
ENDMDL
MODEL 8
REMARK VINA RESULT:      -6.1      4.119      5.505
REMARK  Name = 448926
REMARK  3 active torsions:
REMARK  status: ('A' for Active; 'I' for Inactive)
REMARK    1  A    between atoms: N_2  and  C_5
REMARK    2  A    between atoms: C_3  and  O_11
REMARK    3  A    between atoms: O_11  and  N_12
REMARK                            x       y       z     vdW  Elec       q    Type
REMARK                         _______ _______ _______ _____ _____    ______ ____
ROOT
ATOM      1  O   UNL     1      32.689 -22.027 -18.756  0.00  0.00    -0.224 OA
ATOM      2  N   UNL     1      34.836 -22.275 -19.657  0.00  0.00    -0.249 N 
ATOM      3  C   UNL     1      33.677 -22.705 -19.015  0.00  0.00    +0.423 C 
ATOM      4  H   UNL     1      35.534 -22.959 -19.782  0.00  0.00    +0.158 HD
ENDROOT
BRANCH   2   5
ATOM      5  C   UNL     1      35.143 -21.005 -20.146  0.00  0.00    +0.053 C 
ATOM      6  C   UNL     1      36.465 -20.557 -20.146  0.00  0.00    +0.015 C 
ATOM      7  C   UNL     1      34.129 -20.183 -20.637  0.00  0.00    +0.015 C 
ATOM      8  C   UNL     1      36.771 -19.288 -20.635  0.00  0.00    +0.001 C 
ATOM      9  C   UNL     1      34.436 -18.913 -21.127  0.00  0.00    +0.001 C 
ATOM     10  C   UNL     1      35.757 -18.466 -21.126  0.00  0.00    +0.000 C 
ENDBRANCH   2   5
BRANCH   3  11
ATOM     11  O   UNL     1      33.803 -24.036 -18.707  0.00  0.00    -0.357 OA
BRANCH  11  12
ATOM     12  N   UNL     1      33.950 -24.815 -19.926  0.00  0.00    -0.164 NA
ATOM     13  H   UNL     1      34.085 -24.187 -20.717  0.00  0.00    +0.163 HD
ATOM     14  H   UNL     1      33.108 -25.373 -20.075  0.00  0.00    +0.163 HD
ENDBRANCH  11  12
ENDBRANCH   3  11
TORSDOF 3
ENDMDL
MODEL 9
REMARK VINA RESULT:      -6.1      9.055      9.956
REMARK  Name = 448926
REMARK  3 active torsions:
REMARK  status: ('A' for Active; 'I' for Inactive)
REMARK    1  A    between atoms: N_2  and  C_5
REMARK    2  A    between atoms: C_3  and  O_11
REMARK    3  A    between atoms: O_11  and  N_12
REMARK                            x       y       z     vdW  Elec       q    Type
REMARK                         _______ _______ _______ _____ _____    ______ ____
ROOT
ATOM      1  O   UNL     1      38.644 -25.805 -12.930  0.00  0.00    -0.224 OA
ATOM      2  N   UNL     1      38.198 -25.403 -15.193  0.00  0.00    -0.249 N 
ATOM      3  C   UNL     1      38.916 -25.924 -14.119  0.00  0.00    +0.423 C 
ATOM      4  H   UNL     1      38.565 -25.597 -16.086  0.00  0.00    +0.158 HD
ENDROOT
BRANCH   2   5
ATOM      5  C   UNL     1      37.029 -24.642 -15.174  0.00  0.00    +0.053 C 
ATOM      6  C   UNL     1      37.077 -23.281 -15.477  0.00  0.00    +0.015 C 
ATOM      7  C   UNL     1      35.811 -25.242 -14.854  0.00  0.00    +0.015 C 
ATOM      8  C   UNL     1      35.909 -22.520 -15.459  0.00  0.00    +0.001 C 
ATOM      9  C   UNL     1      34.642 -24.481 -14.836  0.00  0.00    +0.001 C 
ATOM     10  C   UNL     1      34.691 -23.120 -15.138  0.00  0.00    +0.000 C 
ENDBRANCH   2   5
BRANCH   3  11
ATOM     11  O   UNL     1      40.003 -26.611 -14.597  0.00  0.00    -0.357 OA
BRANCH  11  12
ATOM     12  N   UNL     1      40.489 -25.984 -15.816  0.00  0.00    -0.164 NA
ATOM     13  H   UNL     1      41.039 -25.159 -15.578  0.00  0.00    +0.163 HD
ATOM     14  H   UNL     1      39.696 -25.707 -16.395  0.00  0.00    +0.163 HD
ENDBRANCH  11  12
ENDBRANCH   3  11
TORSDOF 3
ENDMDL
