MODEL 1
REMARK VINA RESULT:     -13.2      0.000      0.000
REMARK  Name = 4887
REMARK  9 active torsions:
REMARK  status: ('A' for Active; 'I' for Inactive)
REMARK    1  A    between atoms: N_2  and  C_8
REMARK    2  A    between atoms: C_3  and  C_23
REMARK    3  A    between atoms: C_14  and  C_20
REMARK    4  A    between atoms: C_22  and  O_28
REMARK    5  A    between atoms: O_28  and  C_29
REMARK    6  A    between atoms: C_29  and  C_30
REMARK    7  A    between atoms: C_30  and  C_31
REMARK    8  A    between atoms: C_31  and  C_32
REMARK    9  A    between atoms: C_32  and  C_33
REMARK                            x       y       z     vdW  Elec       q    Type
REMARK                         _______ _______ _______ _____ _____    ______ ____
ROOT
ATOM      1  O   UNL     1      33.843 -23.901 -18.819  0.00  0.00    -0.270 OA
ATOM      2  N   UNL     1      34.023 -22.319 -17.090  0.00  0.00    -0.278 N 
ATOM      3  C   UNL     1      33.953 -22.747 -18.421  0.00  0.00    +0.250 C 
ATOM      4  H   UNL     1      34.110 -21.349 -16.952  0.00  0.00    +0.155 HD
ENDROOT
BRANCH   2   8
ATOM      5  O   UNL     1      31.639 -23.272 -16.126  0.00  0.00    -0.442 OA
ATOM      6  O   UNL     1      31.399 -25.566 -12.770  0.00  0.00    -0.286 OA
ATOM      7  C   UNL     1      32.779 -23.593 -15.434  0.00  0.00    +0.163 C 
ATOM      8  C   UNL     1      33.986 -23.103 -15.933  0.00  0.00    +0.086 C 
ATOM      9  C   UNL     1      32.769 -24.373 -14.279  0.00  0.00    +0.075 C 
ATOM     10  C   UNL     1      35.180 -23.395 -15.273  0.00  0.00    +0.018 C 
ATOM     11  C   UNL     1      33.962 -24.668 -13.616  0.00  0.00    +0.006 C 
ATOM     12  C   UNL     1      31.483 -24.875 -13.777  0.00  0.00    +0.202 C 
ATOM     13  C   UNL     1      35.168 -24.177 -14.117  0.00  0.00    +0.002 C 
ATOM     14  C   UNL     1      30.416 -23.741 -15.657  0.00  0.00    +0.213 C 
ATOM     15  C   UNL     1      30.287 -24.500 -14.556  0.00  0.00    +0.090 C 
BRANCH  14  20
ATOM     16  N   UNL     1      29.007 -22.076 -16.844  0.00  0.00    -0.107 NA
ATOM     17  N   UNL     1      28.435 -24.265 -16.954  0.00  0.00    -0.084 NA
ATOM     18  N   UNL     1      27.907 -22.318 -17.571  0.00  0.00    -0.140 N 
ATOM     19  N   UNL     1      27.531 -23.601 -17.663  0.00  0.00    -0.022 NA
ATOM     20  C   UNL     1      29.303 -23.326 -16.478  0.00  0.00    +0.109 C 
ATOM     21  H   UNL     1      27.404 -21.596 -18.011  0.00  0.00    +0.197 HD
ENDBRANCH  14  20
ENDBRANCH   2   8
BRANCH   3  23
ATOM     22  C   UNL     1      34.225 -19.646 -21.353  0.00  0.00    +0.139 C 
ATOM     23  C   UNL     1      34.047 -21.669 -19.440  0.00  0.00    +0.054 C 
ATOM     24  C   UNL     1      35.380 -20.290 -20.909  0.00  0.00    +0.037 C 
ATOM     25  C   UNL     1      32.981 -20.013 -20.840  0.00  0.00    +0.037 C 
ATOM     26  C   UNL     1      35.291 -21.301 -19.952  0.00  0.00    +0.008 C 
ATOM     27  C   UNL     1      32.891 -21.025 -19.884  0.00  0.00    +0.008 C 
BRANCH  22  28
ATOM     28  O   UNL     1      34.311 -18.660 -22.287  0.00  0.00    -0.475 OA
BRANCH  28  29
ATOM     29  C   UNL     1      34.963 -18.986 -23.514  0.00  0.00    +0.205 C 
BRANCH  29  30
ATOM     30  C   UNL     1      34.867 -17.791 -24.453  0.00  0.00    +0.048 C 
BRANCH  30  31
ATOM     31  C   UNL     1      34.962 -16.469 -23.693  0.00  0.00    +0.009 C 
BRANCH  31  32
ATOM     32  C   UNL     1      33.842 -15.511 -24.108  0.00  0.00    +0.026 C 
BRANCH  32  33
ATOM     33  C   UNL     1      33.276 -14.770 -22.922  0.00  0.00    -0.022 C 
ATOM     34  C   UNL     1      32.641 -13.543 -23.105  0.00  0.00    -0.004 C 
ATOM     35  C   UNL     1      33.389 -15.313 -21.643  0.00  0.00    -0.004 C 
ATOM     36  C   UNL     1      32.118 -12.857 -22.010  0.00  0.00    -0.000 C 
ATOM     37  C   UNL     1      32.865 -14.628 -20.546  0.00  0.00    -0.000 C 
ATOM     38  C   UNL     1      32.230 -13.400 -20.729  0.00  0.00    -0.000 C 
ENDBRANCH  32  33
ENDBRANCH  31  32
ENDBRANCH  30  31
ENDBRANCH  29  30
ENDBRANCH  28  29
ENDBRANCH  22  28
ENDBRANCH   3  23
TORSDOF 9
ENDMDL
MODEL 2
REMARK VINA RESULT:     -13.0      1.578      3.884
REMARK  Name = 4887
REMARK  9 active torsions:
REMARK  status: ('A' for Active; 'I' for Inactive)
REMARK    1  A    between atoms: N_2  and  C_8
REMARK    2  A    between atoms: C_3  and  C_23
REMARK    3  A    between atoms: C_14  and  C_20
REMARK    4  A    between atoms: C_22  and  O_28
REMARK    5  A    between atoms: O_28  and  C_29
REMARK    6  A    between atoms: C_29  and  C_30
REMARK    7  A    between atoms: C_30  and  C_31
REMARK    8  A    between atoms: C_31  and  C_32
REMARK    9  A    between atoms: C_32  and  C_33
REMARK                            x       y       z     vdW  Elec       q    Type
REMARK                         _______ _______ _______ _____ _____    ______ ____
ROOT
ATOM      1  O   UNL     1      33.641 -23.630 -18.615  0.00  0.00    -0.270 OA
ATOM      2  N   UNL     1      32.122 -22.059 -17.749  0.00  0.00    -0.278 N 
ATOM      3  C   UNL     1      33.151 -22.506 -18.586  0.00  0.00    +0.250 C 
ATOM      4  H   UNL     1      31.850 -21.120 -17.862  0.00  0.00    +0.155 HD
ENDROOT
BRANCH   2   8
ATOM      5  O   UNL     1      33.474 -23.242 -15.677  0.00  0.00    -0.442 OA
ATOM      6  O   UNL     1      31.583 -25.376 -12.769  0.00  0.00    -0.286 OA
ATOM      7  C   UNL     1      32.111 -23.390 -15.714  0.00  0.00    +0.163 C 
ATOM      8  C   UNL     1      31.433 -22.784 -16.772  0.00  0.00    +0.086 C 
ATOM      9  C   UNL     1      31.401 -24.106 -14.753  0.00  0.00    +0.075 C 
ATOM     10  C   UNL     1      30.046 -22.898 -16.864  0.00  0.00    +0.018 C 
ATOM     11  C   UNL     1      30.012 -24.223 -14.841  0.00  0.00    +0.006 C 
ATOM     12  C   UNL     1      32.141 -24.734 -13.649  0.00  0.00    +0.202 C 
ATOM     13  C   UNL     1      29.337 -23.616 -15.901  0.00  0.00    +0.002 C 
ATOM     14  C   UNL     1      34.184 -23.834 -14.637  0.00  0.00    +0.213 C 
ATOM     15  C   UNL     1      33.605 -24.546 -13.657  0.00  0.00    +0.090 C 
BRANCH  14  20
ATOM     16  N   UNL     1      36.346 -23.604 -15.837  0.00  0.00    -0.107 NA
ATOM     17  N   UNL     1      36.315 -23.349 -13.587  0.00  0.00    -0.084 NA
ATOM     18  N   UNL     1      37.545 -23.337 -15.301  0.00  0.00    -0.140 N 
ATOM     19  N   UNL     1      37.574 -23.179 -13.970  0.00  0.00    -0.022 NA
ATOM     20  C   UNL     1      35.606 -23.601 -14.725  0.00  0.00    +0.109 C 
ATOM     21  H   UNL     1      38.357 -23.262 -15.851  0.00  0.00    +0.197 HD
ENDBRANCH  14  20
ENDBRANCH   2   8
BRANCH   3  23
ATOM     22  C   UNL     1      34.750 -19.565 -21.247  0.00  0.00    +0.139 C 
ATOM     23  C   UNL     1      33.708 -21.484 -19.510  0.00  0.00    +0.054 C 
ATOM     24  C   UNL     1      33.371 -19.652 -21.049  0.00  0.00    +0.037 C 
ATOM     25  C   UNL     1      35.607 -20.438 -20.576  0.00  0.00    +0.037 C 
ATOM     26  C   UNL     1      32.850 -20.612 -20.182  0.00  0.00    +0.008 C 
ATOM     27  C   UNL     1      35.086 -21.397 -19.708  0.00  0.00    +0.008 C 
BRANCH  22  28
ATOM     28  O   UNL     1      35.259 -18.628 -22.092  0.00  0.00    -0.475 OA
BRANCH  28  29
ATOM     29  C   UNL     1      35.348 -18.978 -23.472  0.00  0.00    +0.205 C 
BRANCH  29  30
ATOM     30  C   UNL     1      34.698 -17.880 -24.301  0.00  0.00    +0.048 C 
BRANCH  30  31
ATOM     31  C   UNL     1      34.949 -16.497 -23.700  0.00  0.00    +0.009 C 
BRANCH  31  32
ATOM     32  C   UNL     1      33.836 -15.518 -24.081  0.00  0.00    +0.026 C 
BRANCH  32  33
ATOM     33  C   UNL     1      33.278 -14.812 -22.871  0.00  0.00    -0.022 C 
ATOM     34  C   UNL     1      32.657 -13.571 -23.013  0.00  0.00    -0.004 C 
ATOM     35  C   UNL     1      33.384 -15.398 -21.611  0.00  0.00    -0.004 C 
ATOM     36  C   UNL     1      32.142 -12.917 -21.895  0.00  0.00    -0.000 C 
ATOM     37  C   UNL     1      32.868 -14.745 -20.492  0.00  0.00    -0.000 C 
ATOM     38  C   UNL     1      32.247 -13.505 -20.633  0.00  0.00    -0.000 C 
ENDBRANCH  32  33
ENDBRANCH  31  32
ENDBRANCH  30  31
ENDBRANCH  29  30
ENDBRANCH  28  29
ENDBRANCH  22  28
ENDBRANCH   3  23
TORSDOF 9
ENDMDL
MODEL 3
REMARK VINA RESULT:     -12.8      1.289      2.236
REMARK  Name = 4887
REMARK  9 active torsions:
REMARK  status: ('A' for Active; 'I' for Inactive)
REMARK    1  A    between atoms: N_2  and  C_8
REMARK    2  A    between atoms: C_3  and  C_23
REMARK    3  A    between atoms: C_14  and  C_20
REMARK    4  A    between atoms: C_22  and  O_28
REMARK    5  A    between atoms: O_28  and  C_29
REMARK    6  A    between atoms: C_29  and  C_30
REMARK    7  A    between atoms: C_30  and  C_31
REMARK    8  A    between atoms: C_31  and  C_32
REMARK    9  A    between atoms: C_32  and  C_33
REMARK                            x       y       z     vdW  Elec       q    Type
REMARK                         _______ _______ _______ _____ _____    ______ ____
ROOT
ATOM      1  O   UNL     1      33.795 -23.890 -18.833  0.00  0.00    -0.270 OA
ATOM      2  N   UNL     1      33.905 -22.342 -17.067  0.00  0.00    -0.278 N 
ATOM      3  C   UNL     1      33.889 -22.743 -18.409  0.00  0.00    +0.250 C 
ATOM      4  H   UNL     1      33.986 -21.374 -16.907  0.00  0.00    +0.155 HD
ENDROOT
BRANCH   2   8
ATOM      5  O   UNL     1      31.466 -23.136 -16.098  0.00  0.00    -0.442 OA
ATOM      6  O   UNL     1      31.087 -25.485 -12.793  0.00  0.00    -0.286 OA
ATOM      7  C   UNL     1      32.585 -23.558 -15.427  0.00  0.00    +0.163 C 
ATOM      8  C   UNL     1      33.821 -23.148 -15.928  0.00  0.00    +0.086 C 
ATOM      9  C   UNL     1      32.529 -24.362 -14.290  0.00  0.00    +0.075 C 
ATOM     10  C   UNL     1      34.996 -23.544 -15.290  0.00  0.00    +0.018 C 
ATOM     11  C   UNL     1      33.702 -24.761 -13.647  0.00  0.00    +0.006 C 
ATOM     12  C   UNL     1      31.213 -24.779 -13.784  0.00  0.00    +0.202 C 
ATOM     13  C   UNL     1      34.937 -24.349 -14.151  0.00  0.00    +0.002 C 
ATOM     14  C   UNL     1      30.216 -23.524 -15.626  0.00  0.00    +0.213 C 
ATOM     15  C   UNL     1      30.041 -24.297 -14.541  0.00  0.00    +0.090 C 
BRANCH  14  20
ATOM     16  N   UNL     1      28.677 -23.515 -17.575  0.00  0.00    -0.107 NA
ATOM     17  N   UNL     1      28.464 -21.891 -16.009  0.00  0.00    -0.084 NA
ATOM     18  N   UNL     1      27.697 -22.636 -17.828  0.00  0.00    -0.140 N 
ATOM     19  N   UNL     1      27.535 -21.657 -16.927  0.00  0.00    -0.022 NA
ATOM     20  C   UNL     1      29.129 -23.008 -16.424  0.00  0.00    +0.109 C 
ATOM     21  H   UNL     1      27.129 -22.705 -18.629  0.00  0.00    +0.197 HD
ENDBRANCH  14  20
ENDBRANCH   2   8
BRANCH   3  23
ATOM     22  C   UNL     1      34.278 -19.587 -21.267  0.00  0.00    +0.139 C 
ATOM     23  C   UNL     1      34.024 -21.646 -19.402  0.00  0.00    +0.054 C 
ATOM     24  C   UNL     1      33.012 -19.994 -20.845  0.00  0.00    +0.037 C 
ATOM     25  C   UNL     1      35.417 -20.210 -20.757  0.00  0.00    +0.037 C 
ATOM     26  C   UNL     1      32.885 -21.024 -19.913  0.00  0.00    +0.008 C 
ATOM     27  C   UNL     1      35.291 -21.240 -19.824  0.00  0.00    +0.008 C 
BRANCH  22  28
ATOM     28  O   UNL     1      34.402 -18.581 -22.175  0.00  0.00    -0.475 OA
BRANCH  28  29
ATOM     29  C   UNL     1      34.839 -17.315 -21.685  0.00  0.00    +0.205 C 
BRANCH  29  30
ATOM     30  C   UNL     1      35.051 -16.377 -22.865  0.00  0.00    +0.048 C 
BRANCH  30  31
ATOM     31  C   UNL     1      34.548 -14.967 -22.562  0.00  0.00    +0.009 C 
BRANCH  31  32
ATOM     32  C   UNL     1      33.185 -14.714 -23.211  0.00  0.00    +0.026 C 
BRANCH  32  33
ATOM     33  C   UNL     1      33.313 -13.900 -24.474  0.00  0.00    -0.022 C 
ATOM     34  C   UNL     1      33.032 -14.482 -25.710  0.00  0.00    -0.004 C 
ATOM     35  C   UNL     1      33.712 -12.566 -24.407  0.00  0.00    -0.004 C 
ATOM     36  C   UNL     1      33.151 -13.731 -26.878  0.00  0.00    -0.000 C 
ATOM     37  C   UNL     1      33.830 -11.813 -25.575  0.00  0.00    -0.000 C 
ATOM     38  C   UNL     1      33.549 -12.395 -26.810  0.00  0.00    -0.000 C 
ENDBRANCH  32  33
ENDBRANCH  31  32
ENDBRANCH  30  31
ENDBRANCH  29  30
ENDBRANCH  28  29
ENDBRANCH  22  28
ENDBRANCH   3  23
TORSDOF 9
ENDMDL
MODEL 4
REMARK VINA RESULT:     -12.4      1.999      4.340
REMARK  Name = 4887
REMARK  9 active torsions:
REMARK  status: ('A' for Active; 'I' for Inactive)
REMARK    1  A    between atoms: N_2  and  C_8
REMARK    2  A    between atoms: C_3  and  C_23
REMARK    3  A    between atoms: C_14  and  C_20
REMARK    4  A    between atoms: C_22  and  O_28
REMARK    5  A    between atoms: O_28  and  C_29
REMARK    6  A    between atoms: C_29  and  C_30
REMARK    7  A    between atoms: C_30  and  C_31
REMARK    8  A    between atoms: C_31  and  C_32
REMARK    9  A    between atoms: C_32  and  C_33
REMARK                            x       y       z     vdW  Elec       q    Type
REMARK                         _______ _______ _______ _____ _____    ______ ____
ROOT
ATOM      1  O   UNL     1      33.574 -23.714 -18.781  0.00  0.00    -0.270 OA
ATOM      2  N   UNL     1      32.297 -22.049 -17.722  0.00  0.00    -0.278 N 
ATOM      3  C   UNL     1      33.230 -22.545 -18.640  0.00  0.00    +0.250 C 
ATOM      4  H   UNL     1      32.140 -21.077 -17.747  0.00  0.00    +0.155 HD
ENDROOT
BRANCH   2   8
ATOM      5  O   UNL     1      33.562 -23.345 -15.662  0.00  0.00    -0.442 OA
ATOM      6  O   UNL     1      31.531 -25.459 -12.836  0.00  0.00    -0.286 OA
ATOM      7  C   UNL     1      32.194 -23.428 -15.721  0.00  0.00    +0.163 C 
ATOM      8  C   UNL     1      31.560 -22.764 -16.773  0.00  0.00    +0.086 C 
ATOM      9  C   UNL     1      31.437 -24.133 -14.789  0.00  0.00    +0.075 C 
ATOM     10  C   UNL     1      30.171 -22.811 -16.887  0.00  0.00    +0.018 C 
ATOM     11  C   UNL     1      30.045 -24.182 -14.898  0.00  0.00    +0.006 C 
ATOM     12  C   UNL     1      32.130 -24.822 -13.691  0.00  0.00    +0.202 C 
ATOM     13  C   UNL     1      29.415 -23.518 -15.952  0.00  0.00    +0.002 C 
ATOM     14  C   UNL     1      34.228 -23.995 -14.629  0.00  0.00    +0.213 C 
ATOM     15  C   UNL     1      33.602 -24.703 -13.674  0.00  0.00    +0.090 C 
BRANCH  14  20
ATOM     16  N   UNL     1      36.467 -24.230 -15.677  0.00  0.00    -0.107 NA
ATOM     17  N   UNL     1      36.307 -23.202 -13.665  0.00  0.00    -0.084 NA
ATOM     18  N   UNL     1      37.640 -23.808 -15.184  0.00  0.00    -0.140 N 
ATOM     19  N   UNL     1      37.592 -23.194 -13.994  0.00  0.00    -0.022 NA
ATOM     20  C   UNL     1      35.660 -23.827 -14.691  0.00  0.00    +0.109 C 
ATOM     21  H   UNL     1      38.486 -23.943 -15.667  0.00  0.00    +0.197 HD
ENDBRANCH  14  20
ENDBRANCH   2   8
BRANCH   3  23
ATOM     22  C   UNL     1      35.080 -19.607 -21.135  0.00  0.00    +0.139 C 
ATOM     23  C   UNL     1      33.873 -21.524 -19.507  0.00  0.00    +0.054 C 
ATOM     24  C   UNL     1      33.690 -19.662 -21.036  0.00  0.00    +0.037 C 
ATOM     25  C   UNL     1      35.867 -20.510 -20.420  0.00  0.00    +0.037 C 
ATOM     26  C   UNL     1      33.086 -20.621 -20.222  0.00  0.00    +0.008 C 
ATOM     27  C   UNL     1      35.264 -21.468 -19.606  0.00  0.00    +0.008 C 
BRANCH  22  28
ATOM     28  O   UNL     1      35.669 -18.670 -21.927  0.00  0.00    -0.475 OA
BRANCH  28  29
ATOM     29  C   UNL     1      35.369 -17.303 -21.649  0.00  0.00    +0.205 C 
BRANCH  29  30
ATOM     30  C   UNL     1      35.274 -16.543 -22.964  0.00  0.00    +0.048 C 
BRANCH  30  31
ATOM     31  C   UNL     1      33.822 -16.281 -23.360  0.00  0.00    +0.009 C 
BRANCH  31  32
ATOM     32  C   UNL     1      33.424 -14.831 -23.077  0.00  0.00    +0.026 C 
BRANCH  32  33
ATOM     33  C   UNL     1      33.457 -13.990 -24.329  0.00  0.00    -0.022 C 
ATOM     34  C   UNL     1      33.812 -12.644 -24.256  0.00  0.00    -0.004 C 
ATOM     35  C   UNL     1      33.132 -14.559 -25.560  0.00  0.00    -0.004 C 
ATOM     36  C   UNL     1      33.841 -11.866 -25.413  0.00  0.00    -0.000 C 
ATOM     37  C   UNL     1      33.163 -13.782 -26.718  0.00  0.00    -0.000 C 
ATOM     38  C   UNL     1      33.517 -12.435 -26.644  0.00  0.00    -0.000 C 
ENDBRANCH  32  33
ENDBRANCH  31  32
ENDBRANCH  30  31
ENDBRANCH  29  30
ENDBRANCH  28  29
ENDBRANCH  22  28
ENDBRANCH   3  23
TORSDOF 9
ENDMDL
MODEL 5
REMARK VINA RESULT:     -11.6      1.633      2.276
REMARK  Name = 4887
REMARK  9 active torsions:
REMARK  status: ('A' for Active; 'I' for Inactive)
REMARK    1  A    between atoms: N_2  and  C_8
REMARK    2  A    between atoms: C_3  and  C_23
REMARK    3  A    between atoms: C_14  and  C_20
REMARK    4  A    between atoms: C_22  and  O_28
REMARK    5  A    between atoms: O_28  and  C_29
REMARK    6  A    between atoms: C_29  and  C_30
REMARK    7  A    between atoms: C_30  and  C_31
REMARK    8  A    between atoms: C_31  and  C_32
REMARK    9  A    between atoms: C_32  and  C_33
REMARK                            x       y       z     vdW  Elec       q    Type
REMARK                         _______ _______ _______ _____ _____    ______ ____
ROOT
ATOM      1  O   UNL     1      37.388 -20.605 -17.430  0.00  0.00    -0.270 OA
ATOM      2  N   UNL     1      35.801 -22.339 -17.378  0.00  0.00    -0.278 N 
ATOM      3  C   UNL     1      36.464 -21.236 -17.931  0.00  0.00    +0.250 C 
ATOM      4  H   UNL     1      35.078 -22.725 -17.922  0.00  0.00    +0.155 HD
ENDROOT
BRANCH   2   8
ATOM      5  O   UNL     1      33.718 -23.027 -15.732  0.00  0.00    -0.442 OA
ATOM      6  O   UNL     1      34.286 -24.833 -12.127  0.00  0.00    -0.286 OA
ATOM      7  C   UNL     1      34.989 -23.311 -15.302  0.00  0.00    +0.163 C 
ATOM      8  C   UNL     1      36.041 -22.956 -16.147  0.00  0.00    +0.086 C 
ATOM      9  C   UNL     1      35.256 -23.926 -14.081  0.00  0.00    +0.075 C 
ATOM     10  C   UNL     1      37.357 -23.219 -15.766  0.00  0.00    +0.018 C 
ATOM     11  C   UNL     1      36.571 -24.192 -13.695  0.00  0.00    +0.006 C 
ATOM     12  C   UNL     1      34.128 -24.289 -13.211  0.00  0.00    +0.202 C 
ATOM     13  C   UNL     1      37.622 -23.836 -14.542  0.00  0.00    +0.002 C 
ATOM     14  C   UNL     1      32.644 -23.365 -14.915  0.00  0.00    +0.213 C 
ATOM     15  C   UNL     1      32.781 -23.961 -13.719  0.00  0.00    +0.090 C 
BRANCH  14  20
ATOM     16  N   UNL     1      30.206 -22.896 -14.839  0.00  0.00    -0.107 NA
ATOM     17  N   UNL     1      31.284 -22.748 -16.826  0.00  0.00    -0.084 NA
ATOM     18  N   UNL     1      29.415 -22.553 -15.866  0.00  0.00    -0.140 N 
ATOM     19  N   UNL     1      30.012 -22.453 -17.061  0.00  0.00    -0.022 NA
ATOM     20  C   UNL     1      31.368 -23.007 -15.489  0.00  0.00    +0.109 C 
ATOM     21  H   UNL     1      28.453 -22.384 -15.748  0.00  0.00    +0.197 HD
ENDBRANCH  14  20
ENDBRANCH   2   8
BRANCH   3  23
ATOM     22  C   UNL     1      35.007 -19.953 -21.741  0.00  0.00    +0.139 C 
ATOM     23  C   UNL     1      35.958 -20.790 -19.255  0.00  0.00    +0.054 C 
ATOM     24  C   UNL     1      34.173 -20.666 -20.879  0.00  0.00    +0.037 C 
ATOM     25  C   UNL     1      36.316 -19.658 -21.360  0.00  0.00    +0.037 C 
ATOM     26  C   UNL     1      34.649 -21.085 -19.637  0.00  0.00    +0.008 C 
ATOM     27  C   UNL     1      36.792 -20.076 -20.117  0.00  0.00    +0.008 C 
BRANCH  22  28
ATOM     28  O   UNL     1      34.542 -19.543 -22.952  0.00  0.00    -0.475 OA
BRANCH  28  29
ATOM     29  C   UNL     1      35.112 -18.353 -23.497  0.00  0.00    +0.205 C 
BRANCH  29  30
ATOM     30  C   UNL     1      34.415 -18.032 -24.812  0.00  0.00    +0.048 C 
BRANCH  30  31
ATOM     31  C   UNL     1      34.205 -16.529 -24.985  0.00  0.00    +0.009 C 
BRANCH  31  32
ATOM     32  C   UNL     1      34.915 -15.740 -23.883  0.00  0.00    +0.026 C 
BRANCH  32  33
ATOM     33  C   UNL     1      33.960 -14.843 -23.137  0.00  0.00    -0.022 C 
ATOM     34  C   UNL     1      33.596 -13.610 -23.677  0.00  0.00    -0.004 C 
ATOM     35  C   UNL     1      33.441 -15.246 -21.907  0.00  0.00    -0.004 C 
ATOM     36  C   UNL     1      32.713 -12.779 -22.987  0.00  0.00    -0.000 C 
ATOM     37  C   UNL     1      32.558 -14.416 -21.217  0.00  0.00    -0.000 C 
ATOM     38  C   UNL     1      32.194 -13.183 -21.756  0.00  0.00    -0.000 C 
ENDBRANCH  32  33
ENDBRANCH  31  32
ENDBRANCH  30  31
ENDBRANCH  29  30
ENDBRANCH  28  29
ENDBRANCH  22  28
ENDBRANCH   3  23
TORSDOF 9
ENDMDL
MODEL 6
REMARK VINA RESULT:     -11.1      1.725      2.711
REMARK  Name = 4887
REMARK  9 active torsions:
REMARK  status: ('A' for Active; 'I' for Inactive)
REMARK    1  A    between atoms: N_2  and  C_8
REMARK    2  A    between atoms: C_3  and  C_23
REMARK    3  A    between atoms: C_14  and  C_20
REMARK    4  A    between atoms: C_22  and  O_28
REMARK    5  A    between atoms: O_28  and  C_29
REMARK    6  A    between atoms: C_29  and  C_30
REMARK    7  A    between atoms: C_30  and  C_31
REMARK    8  A    between atoms: C_31  and  C_32
REMARK    9  A    between atoms: C_32  and  C_33
REMARK                            x       y       z     vdW  Elec       q    Type
REMARK                         _______ _______ _______ _____ _____    ______ ____
ROOT
ATOM      1  O   UNL     1      37.575 -21.924 -18.350  0.00  0.00    -0.270 OA
ATOM      2  N   UNL     1      35.469 -22.049 -17.314  0.00  0.00    -0.278 N 
ATOM      3  C   UNL     1      36.373 -21.683 -18.318  0.00  0.00    +0.250 C 
ATOM      4  H   UNL     1      34.535 -21.771 -17.452  0.00  0.00    +0.155 HD
ENDROOT
BRANCH   2   8
ATOM      5  O   UNL     1      33.412 -22.928 -15.727  0.00  0.00    -0.442 OA
ATOM      6  O   UNL     1      34.045 -25.009 -12.284  0.00  0.00    -0.286 OA
ATOM      7  C   UNL     1      34.692 -23.211 -15.324  0.00  0.00    +0.163 C 
ATOM      8  C   UNL     1      35.731 -22.759 -16.139  0.00  0.00    +0.086 C 
ATOM      9  C   UNL     1      34.981 -23.918 -14.158  0.00  0.00    +0.075 C 
ATOM     10  C   UNL     1      37.055 -23.015 -15.782  0.00  0.00    +0.018 C 
ATOM     11  C   UNL     1      36.305 -24.177 -13.798  0.00  0.00    +0.006 C 
ATOM     12  C   UNL     1      33.867 -24.382 -13.320  0.00  0.00    +0.202 C 
ATOM     13  C   UNL     1      37.341 -23.723 -14.614  0.00  0.00    +0.002 C 
ATOM     14  C   UNL     1      32.351 -23.362 -14.939  0.00  0.00    +0.213 C 
ATOM     15  C   UNL     1      32.510 -24.051 -13.797  0.00  0.00    +0.090 C 
BRANCH  14  20
ATOM     16  N   UNL     1      29.926 -22.848 -14.794  0.00  0.00    -0.107 NA
ATOM     17  N   UNL     1      30.940 -22.762 -16.818  0.00  0.00    -0.084 NA
ATOM     18  N   UNL     1      29.108 -22.512 -15.802  0.00  0.00    -0.140 N 
ATOM     19  N   UNL     1      29.666 -22.450 -17.019  0.00  0.00    -0.022 NA
ATOM     20  C   UNL     1      31.063 -22.994 -15.479  0.00  0.00    +0.109 C 
ATOM     21  H   UNL     1      28.153 -22.323 -15.657  0.00  0.00    +0.197 HD
ENDBRANCH  14  20
ENDBRANCH   2   8
BRANCH   3  23
ATOM     22  C   UNL     1      34.706 -19.431 -21.548  0.00  0.00    +0.139 C 
ATOM     23  C   UNL     1      35.793 -20.901 -19.441  0.00  0.00    +0.054 C 
ATOM     24  C   UNL     1      36.074 -19.360 -21.281  0.00  0.00    +0.037 C 
ATOM     25  C   UNL     1      33.883 -20.237 -20.762  0.00  0.00    +0.037 C 
ATOM     26  C   UNL     1      36.617 -20.095 -20.227  0.00  0.00    +0.008 C 
ATOM     27  C   UNL     1      34.426 -20.972 -19.708  0.00  0.00    +0.008 C 
BRANCH  22  28
ATOM     28  O   UNL     1      34.177 -18.717 -22.578  0.00  0.00    -0.475 OA
BRANCH  28  29
ATOM     29  C   UNL     1      34.467 -17.320 -22.615  0.00  0.00    +0.205 C 
BRANCH  29  30
ATOM     30  C   UNL     1      33.655 -16.621 -21.534  0.00  0.00    +0.048 C 
BRANCH  30  31
ATOM     31  C   UNL     1      33.222 -15.222 -21.971  0.00  0.00    +0.009 C 
BRANCH  31  32
ATOM     32  C   UNL     1      34.338 -14.511 -22.739  0.00  0.00    +0.026 C 
BRANCH  32  33
ATOM     33  C   UNL     1      33.894 -14.115 -24.125  0.00  0.00    -0.022 C 
ATOM     34  C   UNL     1      33.465 -15.090 -25.025  0.00  0.00    -0.004 C 
ATOM     35  C   UNL     1      33.913 -12.774 -24.507  0.00  0.00    -0.004 C 
ATOM     36  C   UNL     1      33.055 -14.724 -26.307  0.00  0.00    -0.000 C 
ATOM     37  C   UNL     1      33.503 -12.407 -25.788  0.00  0.00    -0.000 C 
ATOM     38  C   UNL     1      33.074 -13.382 -26.688  0.00  0.00    -0.000 C 
ENDBRANCH  32  33
ENDBRANCH  31  32
ENDBRANCH  30  31
ENDBRANCH  29  30
ENDBRANCH  28  29
ENDBRANCH  22  28
ENDBRANCH   3  23
TORSDOF 9
ENDMDL
MODEL 7
REMARK VINA RESULT:     -10.6      6.118     12.676
REMARK  Name = 4887
REMARK  9 active torsions:
REMARK  status: ('A' for Active; 'I' for Inactive)
REMARK    1  A    between atoms: N_2  and  C_8
REMARK    2  A    between atoms: C_3  and  C_23
REMARK    3  A    between atoms: C_14  and  C_20
REMARK    4  A    between atoms: C_22  and  O_28
REMARK    5  A    between atoms: O_28  and  C_29
REMARK    6  A    between atoms: C_29  and  C_30
REMARK    7  A    between atoms: C_30  and  C_31
REMARK    8  A    between atoms: C_31  and  C_32
REMARK    9  A    between atoms: C_32  and  C_33
REMARK                            x       y       z     vdW  Elec       q    Type
REMARK                         _______ _______ _______ _____ _____    ______ ____
ROOT
ATOM      1  O   UNL     1      33.290 -12.375 -25.948  0.00  0.00    -0.270 OA
ATOM      2  N   UNL     1      34.345 -11.535 -24.023  0.00  0.00    -0.278 N 
ATOM      3  C   UNL     1      33.845 -12.534 -24.867  0.00  0.00    +0.250 C 
ATOM      4  H   UNL     1      34.764 -11.844 -23.188  0.00  0.00    +0.155 HD
ENDROOT
BRANCH   2   8
ATOM      5  O   UNL     1      32.991  -9.900 -22.286  0.00  0.00    -0.442 OA
ATOM      6  O   UNL     1      32.847  -5.857 -22.753  0.00  0.00    -0.286 OA
ATOM      7  C   UNL     1      33.635  -9.310 -23.344  0.00  0.00    +0.163 C 
ATOM      8  C   UNL     1      34.320 -10.152 -24.222  0.00  0.00    +0.086 C 
ATOM      9  C   UNL     1      33.626  -7.935 -23.564  0.00  0.00    +0.075 C 
ATOM     10  C   UNL     1      34.994  -9.612 -25.317  0.00  0.00    +0.018 C 
ATOM     11  C   UNL     1      34.300  -7.389 -24.659  0.00  0.00    +0.006 C 
ATOM     12  C   UNL     1      32.897  -7.073 -22.624  0.00  0.00    +0.202 C 
ATOM     13  C   UNL     1      34.984  -8.233 -25.535  0.00  0.00    +0.002 C 
ATOM     14  C   UNL     1      32.296  -9.093 -21.391  0.00  0.00    +0.213 C 
ATOM     15  C   UNL     1      32.221  -7.756 -21.503  0.00  0.00    +0.090 C 
BRANCH  14  20
ATOM     16  N   UNL     1      30.696 -10.751 -20.466  0.00  0.00    -0.107 NA
ATOM     17  N   UNL     1      32.065  -9.644 -19.041  0.00  0.00    -0.084 NA
ATOM     18  N   UNL     1      30.532 -11.088 -19.179  0.00  0.00    -0.140 N 
ATOM     19  N   UNL     1      31.322 -10.457 -18.300  0.00  0.00    -0.022 NA
ATOM     20  C   UNL     1      31.667  -9.844 -20.330  0.00  0.00    +0.109 C 
ATOM     21  H   UNL     1      29.871 -11.759 -18.896  0.00  0.00    +0.197 HD
ENDBRANCH  14  20
ENDBRANCH   2   8
BRANCH   3  23
ATOM     22  C   UNL     1      34.280 -16.535 -23.421  0.00  0.00    +0.139 C 
ATOM     23  C   UNL     1      33.996 -13.925 -24.364  0.00  0.00    +0.054 C 
ATOM     24  C   UNL     1      34.034 -16.305 -24.775  0.00  0.00    +0.037 C 
ATOM     25  C   UNL     1      34.383 -15.460 -22.538  0.00  0.00    +0.037 C 
ATOM     26  C   UNL     1      33.892 -15.000 -25.246  0.00  0.00    +0.008 C 
ATOM     27  C   UNL     1      34.242 -14.154 -23.009  0.00  0.00    +0.008 C 
BRANCH  22  28
ATOM     28  O   UNL     1      34.420 -17.808 -22.961  0.00  0.00    -0.475 OA
BRANCH  28  29
ATOM     29  C   UNL     1      35.443 -18.604 -23.558  0.00  0.00    +0.205 C 
BRANCH  29  30
ATOM     30  C   UNL     1      36.678 -18.564 -22.670  0.00  0.00    +0.048 C 
BRANCH  30  31
ATOM     31  C   UNL     1      36.308 -18.586 -21.188  0.00  0.00    +0.009 C 
BRANCH  31  32
ATOM     32  C   UNL     1      36.716 -19.908 -20.535  0.00  0.00    +0.026 C 
BRANCH  32  33
ATOM     33  C   UNL     1      35.520 -20.659 -20.003  0.00  0.00    -0.022 C 
ATOM     34  C   UNL     1      35.701 -21.721 -19.119  0.00  0.00    -0.004 C 
ATOM     35  C   UNL     1      34.235 -20.291 -20.396  0.00  0.00    -0.004 C 
ATOM     36  C   UNL     1      34.597 -22.416 -18.627  0.00  0.00    -0.000 C 
ATOM     37  C   UNL     1      33.129 -20.984 -19.905  0.00  0.00    -0.000 C 
ATOM     38  C   UNL     1      33.310 -22.047 -19.020  0.00  0.00    -0.000 C 
ENDBRANCH  32  33
ENDBRANCH  31  32
ENDBRANCH  30  31
ENDBRANCH  29  30
ENDBRANCH  28  29
ENDBRANCH  22  28
ENDBRANCH   3  23
TORSDOF 9
ENDMDL
MODEL 8
REMARK VINA RESULT:     -10.4      7.376     11.204
REMARK  Name = 4887
REMARK  9 active torsions:
REMARK  status: ('A' for Active; 'I' for Inactive)
REMARK    1  A    between atoms: N_2  and  C_8
REMARK    2  A    between atoms: C_3  and  C_23
REMARK    3  A    between atoms: C_14  and  C_20
REMARK    4  A    between atoms: C_22  and  O_28
REMARK    5  A    between atoms: O_28  and  C_29
REMARK    6  A    between atoms: C_29  and  C_30
REMARK    7  A    between atoms: C_30  and  C_31
REMARK    8  A    between atoms: C_31  and  C_32
REMARK    9  A    between atoms: C_32  and  C_33
REMARK                            x       y       z     vdW  Elec       q    Type
REMARK                         _______ _______ _______ _____ _____    ______ ____
ROOT
ATOM      1  O   UNL     1      31.499 -14.490 -21.857  0.00  0.00    -0.270 OA
ATOM      2  N   UNL     1      33.791 -14.286 -21.379  0.00  0.00    -0.278 N 
ATOM      3  C   UNL     1      32.473 -13.833 -21.504  0.00  0.00    +0.250 C 
ATOM      4  H   UNL     1      34.451 -13.619 -21.081  0.00  0.00    +0.155 HD
ENDROOT
BRANCH   2   8
ATOM      5  O   UNL     1      33.855 -15.289 -23.931  0.00  0.00    -0.442 OA
ATOM      6  O   UNL     1      35.272 -19.010 -24.782  0.00  0.00    -0.286 OA
ATOM      7  C   UNL     1      34.323 -16.090 -22.921  0.00  0.00    +0.163 C 
ATOM      8  C   UNL     1      34.285 -15.570 -21.627  0.00  0.00    +0.086 C 
ATOM      9  C   UNL     1      34.821 -17.372 -23.141  0.00  0.00    +0.075 C 
ATOM     10  C   UNL     1      34.747 -16.337 -20.557  0.00  0.00    +0.018 C 
ATOM     11  C   UNL     1      35.284 -18.144 -22.073  0.00  0.00    +0.006 C 
ATOM     12  C   UNL     1      34.848 -17.894 -24.514  0.00  0.00    +0.202 C 
ATOM     13  C   UNL     1      35.246 -17.621 -20.780  0.00  0.00    +0.002 C 
ATOM     14  C   UNL     1      33.875 -15.774 -25.235  0.00  0.00    +0.213 C 
ATOM     15  C   UNL     1      34.332 -16.993 -25.564  0.00  0.00    +0.090 C 
BRANCH  14  20
ATOM     16  N   UNL     1      32.070 -14.500 -26.368  0.00  0.00    -0.107 NA
ATOM     17  N   UNL     1      34.212 -14.181 -27.031  0.00  0.00    -0.084 NA
ATOM     18  N   UNL     1      32.208 -13.611 -27.362  0.00  0.00    -0.140 N 
ATOM     19  N   UNL     1      33.459 -13.391 -27.787  0.00  0.00    -0.022 NA
ATOM     20  C   UNL     1      33.353 -14.829 -26.194  0.00  0.00    +0.109 C 
ATOM     21  H   UNL     1      31.435 -13.148 -27.758  0.00  0.00    +0.197 HD
ENDBRANCH  14  20
ENDBRANCH   2   8
BRANCH   3  23
ATOM     22  C   UNL     1      31.868  -9.696 -20.609  0.00  0.00    +0.139 C 
ATOM     23  C   UNL     1      32.263 -12.395 -21.193  0.00  0.00    +0.054 C 
ATOM     24  C   UNL     1      31.745 -10.653 -19.601  0.00  0.00    +0.037 C 
ATOM     25  C   UNL     1      32.188 -10.088 -21.908  0.00  0.00    +0.037 C 
ATOM     26  C   UNL     1      31.942 -12.003 -19.893  0.00  0.00    +0.008 C 
ATOM     27  C   UNL     1      32.386 -11.438 -22.201  0.00  0.00    +0.008 C 
BRANCH  22  28
ATOM     28  O   UNL     1      31.678  -8.379 -20.323  0.00  0.00    -0.475 OA
BRANCH  28  29
ATOM     29  C   UNL     1      32.516  -7.441 -20.996  0.00  0.00    +0.205 C 
BRANCH  29  30
ATOM     30  C   UNL     1      31.827  -6.084 -21.004  0.00  0.00    +0.048 C 
BRANCH  30  31
ATOM     31  C   UNL     1      30.954  -5.903 -22.244  0.00  0.00    +0.009 C 
BRANCH  31  32
ATOM     32  C   UNL     1      31.305  -6.929 -23.324  0.00  0.00    +0.026 C 
BRANCH  32  33
ATOM     33  C   UNL     1      32.305  -6.379 -24.310  0.00  0.00    -0.022 C 
ATOM     34  C   UNL     1      33.606  -6.881 -24.338  0.00  0.00    -0.004 C 
ATOM     35  C   UNL     1      31.928  -5.369 -25.194  0.00  0.00    -0.004 C 
ATOM     36  C   UNL     1      34.531  -6.372 -25.249  0.00  0.00    -0.000 C 
ATOM     37  C   UNL     1      32.852  -4.860 -26.106  0.00  0.00    -0.000 C 
ATOM     38  C   UNL     1      34.153  -5.361 -26.134  0.00  0.00    -0.000 C 
ENDBRANCH  32  33
ENDBRANCH  31  32
ENDBRANCH  30  31
ENDBRANCH  29  30
ENDBRANCH  28  29
ENDBRANCH  22  28
ENDBRANCH   3  23
TORSDOF 9
ENDMDL
MODEL 9
REMARK VINA RESULT:     -10.3      5.838     12.584
REMARK  Name = 4887
REMARK  9 active torsions:
REMARK  status: ('A' for Active; 'I' for Inactive)
REMARK    1  A    between atoms: N_2  and  C_8
REMARK    2  A    between atoms: C_3  and  C_23
REMARK    3  A    between atoms: C_14  and  C_20
REMARK    4  A    between atoms: C_22  and  O_28
REMARK    5  A    between atoms: O_28  and  C_29
REMARK    6  A    between atoms: C_29  and  C_30
REMARK    7  A    between atoms: C_30  and  C_31
REMARK    8  A    between atoms: C_31  and  C_32
REMARK    9  A    between atoms: C_32  and  C_33
REMARK                            x       y       z     vdW  Elec       q    Type
REMARK                         _______ _______ _______ _____ _____    ______ ____
ROOT
ATOM      1  O   UNL     1      33.021 -13.599 -24.930  0.00  0.00    -0.270 OA
ATOM      2  N   UNL     1      34.482 -12.354 -23.573  0.00  0.00    -0.278 N 
ATOM      3  C   UNL     1      33.810 -13.507 -23.995  0.00  0.00    +0.250 C 
ATOM      4  H   UNL     1      35.082 -12.462 -22.801  0.00  0.00    +0.155 HD
ENDROOT
BRANCH   2   8
ATOM      5  O   UNL     1      33.051 -10.391 -22.299  0.00  0.00    -0.442 OA
ATOM      6  O   UNL     1      32.748  -6.605 -23.769  0.00  0.00    -0.286 OA
ATOM      7  C   UNL     1      33.678 -10.061 -23.474  0.00  0.00    +0.163 C 
ATOM      8  C   UNL     1      34.403 -11.067 -24.113  0.00  0.00    +0.086 C 
ATOM      9  C   UNL     1      33.616  -8.786 -24.033  0.00  0.00    +0.075 C 
ATOM     10  C   UNL     1      35.063 -10.793 -25.311  0.00  0.00    +0.018 C 
ATOM     11  C   UNL     1      34.276  -8.507 -25.232  0.00  0.00    +0.006 C 
ATOM     12  C   UNL     1      32.846  -7.746 -23.338  0.00  0.00    +0.202 C 
ATOM     13  C   UNL     1      35.000  -9.516 -25.869  0.00  0.00    +0.002 C 
ATOM     14  C   UNL     1      32.318  -9.414 -21.634  0.00  0.00    +0.213 C 
ATOM     15  C   UNL     1      32.189  -8.153 -22.079  0.00  0.00    +0.090 C 
BRANCH  14  20
ATOM     16  N   UNL     1      30.665 -10.725 -20.324  0.00  0.00    -0.107 NA
ATOM     17  N   UNL     1      32.216  -9.503 -19.213  0.00  0.00    -0.084 NA
ATOM     18  N   UNL     1      30.570 -10.804 -18.989  0.00  0.00    -0.140 N 
ATOM     19  N   UNL     1      31.469 -10.096 -18.291  0.00  0.00    -0.022 NA
ATOM     20  C   UNL     1      31.711  -9.898 -20.417  0.00  0.00    +0.109 C 
ATOM     21  H   UNL     1      29.881 -11.351 -18.547  0.00  0.00    +0.197 HD
ENDBRANCH  14  20
ENDBRANCH   2   8
BRANCH   3  23
ATOM     22  C   UNL     1      34.590 -17.026 -21.695  0.00  0.00    +0.139 C 
ATOM     23  C   UNL     1      34.081 -14.730 -23.195  0.00  0.00    +0.054 C 
ATOM     24  C   UNL     1      34.774 -17.041 -23.078  0.00  0.00    +0.037 C 
ATOM     25  C   UNL     1      34.152 -15.862 -21.062  0.00  0.00    +0.037 C 
ATOM     26  C   UNL     1      34.519 -15.893 -23.828  0.00  0.00    +0.008 C 
ATOM     27  C   UNL     1      33.897 -14.714 -21.812  0.00  0.00    +0.008 C 
BRANCH  22  28
ATOM     28  O   UNL     1      34.841 -18.145 -20.963  0.00  0.00    -0.475 OA
BRANCH  28  29
ATOM     29  C   UNL     1      34.270 -19.367 -21.428  0.00  0.00    +0.205 C 
BRANCH  29  30
ATOM     30  C   UNL     1      33.080 -19.720 -20.547  0.00  0.00    +0.048 C 
BRANCH  30  31
ATOM     31  C   UNL     1      33.241 -21.098 -19.908  0.00  0.00    +0.009 C 
BRANCH  31  32
ATOM     32  C   UNL     1      34.708 -21.536 -19.901  0.00  0.00    +0.026 C 
BRANCH  32  33
ATOM     33  C   UNL     1      35.145 -21.995 -18.532  0.00  0.00    -0.022 C 
ATOM     34  C   UNL     1      36.425 -21.691 -18.071  0.00  0.00    -0.004 C 
ATOM     35  C   UNL     1      34.270 -22.724 -17.729  0.00  0.00    -0.004 C 
ATOM     36  C   UNL     1      36.831 -22.116 -16.806  0.00  0.00    -0.000 C 
ATOM     37  C   UNL     1      34.673 -23.149 -16.463  0.00  0.00    -0.000 C 
ATOM     38  C   UNL     1      35.954 -22.845 -16.002  0.00  0.00    -0.000 C 
ENDBRANCH  32  33
ENDBRANCH  31  32
ENDBRANCH  30  31
ENDBRANCH  29  30
ENDBRANCH  28  29
ENDBRANCH  22  28
ENDBRANCH   3  23
TORSDOF 9
ENDMDL
