MODEL 1
REMARK VINA RESULT:      -5.8      0.000      0.000
REMARK  Name = 11869257
REMARK  5 active torsions:
REMARK  status: ('A' for Active; 'I' for Inactive)
REMARK    1  A    between atoms: CA_1  and  N_2
REMARK    2  A    between atoms: CA_1  and  C_8
REMARK    3  A    between atoms: CA_1  and  C_9
REMARK    4  A    between atoms: C_9  and  C_10
REMARK    5  A    between atoms: C_10  and  S_11
REMARK                            x       y       z     vdW  Elec       q    Type
REMARK                         _______ _______ _______ _____ _____    ______ ____
ROOT
ATOM      1  CA  UNL     1      38.713 -25.519 -14.486  0.00  0.00    +0.041 C 
ENDROOT
BRANCH   1   2
ATOM      2  N   UNL     1      38.174 -26.914 -14.531  0.00  0.00    +0.389 N 
ATOM      3  H1  UNL     1      38.928 -27.576 -14.348  0.00  0.00    -0.088 HD
ATOM      4  H2  UNL     1      37.778 -27.097 -15.453  0.00  0.00    -0.088 HD
ATOM      5  H3  UNL     1      37.447 -27.022 -13.823  0.00  0.00    -0.088 HD
ENDBRANCH   1   2
BRANCH   1   8
ATOM      6  O   UNL     1      40.898 -24.652 -14.117  0.00  0.00    -0.248 OA
ATOM      7  OXT UNL     1      40.563 -26.097 -15.851  0.00  0.00    -0.248 OA
ATOM      8  C   UNL     1      40.202 -25.402 -14.858  0.00  0.00    +0.345 C 
ENDBRANCH   1   8
BRANCH   1   9
ATOM      9  C   UNL     1      38.325 -24.920 -13.127  0.00  0.00    +0.003 C 
BRANCH   9  10
ATOM     10  C   UNL     1      37.234 -25.695 -12.391  0.00  0.00    +0.090 C 
BRANCH  10  11
ATOM     11  S   UNL     1      35.883 -24.577 -11.897  0.00  0.00    +0.043 S 
ATOM     12  O   UNL     1      35.377 -25.059 -10.573  0.00  0.00    -0.256 OA
ATOM     13  C   UNL     1      36.949 -23.149 -11.593  0.00  0.00    +0.106 C 
ENDBRANCH  10  11
ENDBRANCH   9  10
ENDBRANCH   1   9
TORSDOF 5
ENDMDL
MODEL 2
REMARK VINA RESULT:      -5.5      2.260      2.617
REMARK  Name = 11869257
REMARK  5 active torsions:
REMARK  status: ('A' for Active; 'I' for Inactive)
REMARK    1  A    between atoms: CA_1  and  N_2
REMARK    2  A    between atoms: CA_1  and  C_8
REMARK    3  A    between atoms: CA_1  and  C_9
REMARK    4  A    between atoms: C_9  and  C_10
REMARK    5  A    between atoms: C_10  and  S_11
REMARK                            x       y       z     vdW  Elec       q    Type
REMARK                         _______ _______ _______ _____ _____    ______ ____
ROOT
ATOM      1  CA  UNL     1      36.658 -25.439 -14.756  0.00  0.00    +0.041 C 
ENDROOT
BRANCH   1   2
ATOM      2  N   UNL     1      35.176 -25.434 -14.546  0.00  0.00    +0.389 N 
ATOM      3  H1  UNL     1      34.741 -24.788 -15.204  0.00  0.00    -0.088 HD
ATOM      4  H2  UNL     1      34.967 -25.138 -13.592  0.00  0.00    -0.088 HD
ATOM      5  H3  UNL     1      34.808 -26.373 -14.697  0.00  0.00    -0.088 HD
ENDBRANCH   1   2
BRANCH   1   8
ATOM      6  O   UNL     1      36.608 -27.276 -16.266  0.00  0.00    -0.248 OA
ATOM      7  OXT UNL     1      38.247 -27.197 -14.681  0.00  0.00    -0.248 OA
ATOM      8  C   UNL     1      37.218 -26.772 -15.281  0.00  0.00    +0.345 C 
ENDBRANCH   1   8
BRANCH   1   9
ATOM      9  C   UNL     1      37.307 -24.913 -13.468  0.00  0.00    +0.003 C 
BRANCH   9  10
ATOM     10  C   UNL     1      36.622 -25.384 -12.186  0.00  0.00    +0.090 C 
BRANCH  10  11
ATOM     11  S   UNL     1      35.914 -23.966 -11.287  0.00  0.00    +0.043 S 
ATOM     12  O   UNL     1      36.012 -24.280  -9.827  0.00  0.00    -0.256 OA
ATOM     13  C   UNL     1      37.252 -22.822 -11.696  0.00  0.00    +0.106 C 
ENDBRANCH  10  11
ENDBRANCH   9  10
ENDBRANCH   1   9
TORSDOF 5
ENDMDL
MODEL 3
REMARK VINA RESULT:      -5.3      2.825      4.772
REMARK  Name = 11869257
REMARK  5 active torsions:
REMARK  status: ('A' for Active; 'I' for Inactive)
REMARK    1  A    between atoms: CA_1  and  N_2
REMARK    2  A    between atoms: CA_1  and  C_8
REMARK    3  A    between atoms: CA_1  and  C_9
REMARK    4  A    between atoms: C_9  and  C_10
REMARK    5  A    between atoms: C_10  and  S_11
REMARK                            x       y       z     vdW  Elec       q    Type
REMARK                         _______ _______ _______ _____ _____    ______ ____
ROOT
ATOM      1  CA  UNL     1      36.842 -23.457 -11.875  0.00  0.00    +0.041 C 
ENDROOT
BRANCH   1   2
ATOM      2  N   UNL     1      38.278 -23.821 -11.660  0.00  0.00    +0.389 N 
ATOM      3  H1  UNL     1      38.598 -23.434 -10.772  0.00  0.00    -0.088 HD
ATOM      4  H2  UNL     1      38.844 -23.442 -12.419  0.00  0.00    -0.088 HD
ATOM      5  H3  UNL     1      38.372 -24.837 -11.642  0.00  0.00    -0.088 HD
ENDBRANCH   1   2
BRANCH   1   8
ATOM      6  O   UNL     1      34.951 -24.880 -11.636  0.00  0.00    -0.248 OA
ATOM      7  OXT UNL     1      36.068 -24.208  -9.764  0.00  0.00    -0.248 OA
ATOM      8  C   UNL     1      35.850 -24.253 -11.009  0.00  0.00    +0.345 C 
ENDBRANCH   1   8
BRANCH   1   9
ATOM      9  C   UNL     1      36.579 -23.499 -13.386  0.00  0.00    +0.003 C 
BRANCH   9  10
ATOM     10  C   UNL     1      37.762 -23.998 -14.214  0.00  0.00    +0.090 C 
BRANCH  10  11
ATOM     11  S   UNL     1      37.538 -25.753 -14.649  0.00  0.00    +0.043 S 
ATOM     12  O   UNL     1      37.656 -26.538 -13.381  0.00  0.00    -0.256 OA
ATOM     13  C   UNL     1      35.780 -25.605 -15.045  0.00  0.00    +0.106 C 
ENDBRANCH  10  11
ENDBRANCH   9  10
ENDBRANCH   1   9
TORSDOF 5
ENDMDL
MODEL 4
REMARK VINA RESULT:      -5.3      8.317      9.593
REMARK  Name = 11869257
REMARK  5 active torsions:
REMARK  status: ('A' for Active; 'I' for Inactive)
REMARK    1  A    between atoms: CA_1  and  N_2
REMARK    2  A    between atoms: CA_1  and  C_8
REMARK    3  A    between atoms: CA_1  and  C_9
REMARK    4  A    between atoms: C_9  and  C_10
REMARK    5  A    between atoms: C_10  and  S_11
REMARK                            x       y       z     vdW  Elec       q    Type
REMARK                         _______ _______ _______ _____ _____    ______ ____
ROOT
ATOM      1  CA  UNL     1      28.933 -23.157 -15.838  0.00  0.00    +0.041 C 
ENDROOT
BRANCH   1   2
ATOM      2  N   UNL     1      28.820 -24.538 -15.273  0.00  0.00    +0.389 N 
ATOM      3  H1  UNL     1      29.330 -25.191 -15.867  0.00  0.00    -0.088 HD
ATOM      4  H2  UNL     1      27.838 -24.811 -15.232  0.00  0.00    -0.088 HD
ATOM      5  H3  UNL     1      29.215 -24.554 -14.333  0.00  0.00    -0.088 HD
ENDBRANCH   1   2
BRANCH   1   8
ATOM      6  O   UNL     1      27.580 -21.649 -17.085  0.00  0.00    -0.248 OA
ATOM      7  OXT UNL     1      27.622 -23.849 -17.689  0.00  0.00    -0.248 OA
ATOM      8  C   UNL     1      27.941 -22.855 -16.975  0.00  0.00    +0.345 C 
ENDBRANCH   1   8
BRANCH   1   9
ATOM      9  C   UNL     1      30.411 -22.916 -16.172  0.00  0.00    +0.003 C 
BRANCH   9  10
ATOM     10  C   UNL     1      31.372 -23.891 -15.494  0.00  0.00    +0.090 C 
BRANCH  10  11
ATOM     11  S   UNL     1      31.811 -23.296 -13.829  0.00  0.00    +0.043 S 
ATOM     12  O   UNL     1      30.832 -23.903 -12.874  0.00  0.00    -0.256 OA
ATOM     13  C   UNL     1      33.349 -24.240 -13.714  0.00  0.00    +0.106 C 
ENDBRANCH  10  11
ENDBRANCH   9  10
ENDBRANCH   1   9
TORSDOF 5
ENDMDL
MODEL 5
REMARK VINA RESULT:      -5.2      2.537      4.859
REMARK  Name = 11869257
REMARK  5 active torsions:
REMARK  status: ('A' for Active; 'I' for Inactive)
REMARK    1  A    between atoms: CA_1  and  N_2
REMARK    2  A    between atoms: CA_1  and  C_8
REMARK    3  A    between atoms: CA_1  and  C_9
REMARK    4  A    between atoms: C_9  and  C_10
REMARK    5  A    between atoms: C_10  and  S_11
REMARK                            x       y       z     vdW  Elec       q    Type
REMARK                         _______ _______ _______ _____ _____    ______ ____
ROOT
ATOM      1  CA  UNL     1      36.796 -23.758 -12.043  0.00  0.00    +0.041 C 
ENDROOT
BRANCH   1   2
ATOM      2  N   UNL     1      38.247 -23.827 -11.683  0.00  0.00    +0.389 N 
ATOM      3  H1  UNL     1      38.575 -22.900 -11.412  0.00  0.00    -0.088 HD
ATOM      4  H2  UNL     1      38.783 -24.155 -12.487  0.00  0.00    -0.088 HD
ATOM      5  H3  UNL     1      38.374 -24.474 -10.905  0.00  0.00    -0.088 HD
ENDBRANCH   1   2
BRANCH   1   8
ATOM      6  O   UNL     1      36.187 -24.111  -9.770  0.00  0.00    -0.248 OA
ATOM      7  OXT UNL     1      34.826 -24.917 -11.414  0.00  0.00    -0.248 OA
ATOM      8  C   UNL     1      35.850 -24.324 -10.969  0.00  0.00    +0.345 C 
ENDBRANCH   1   8
BRANCH   1   9
ATOM      9  C   UNL     1      36.640 -24.363 -13.444  0.00  0.00    +0.003 C 
BRANCH   9  10
ATOM     10  C   UNL     1      37.842 -24.138 -14.360  0.00  0.00    +0.090 C 
BRANCH  10  11
ATOM     11  S   UNL     1      38.703 -25.711 -14.676  0.00  0.00    +0.043 S 
ATOM     12  O   UNL     1      39.369 -26.112 -13.397  0.00  0.00    -0.256 OA
ATOM     13  C   UNL     1      37.197 -26.696 -14.845  0.00  0.00    +0.106 C 
ENDBRANCH  10  11
ENDBRANCH   9  10
ENDBRANCH   1   9
TORSDOF 5
ENDMDL
MODEL 6
REMARK VINA RESULT:      -5.2      2.560      4.707
REMARK  Name = 11869257
REMARK  5 active torsions:
REMARK  status: ('A' for Active; 'I' for Inactive)
REMARK    1  A    between atoms: CA_1  and  N_2
REMARK    2  A    between atoms: CA_1  and  C_8
REMARK    3  A    between atoms: CA_1  and  C_9
REMARK    4  A    between atoms: C_9  and  C_10
REMARK    5  A    between atoms: C_10  and  S_11
REMARK                            x       y       z     vdW  Elec       q    Type
REMARK                         _______ _______ _______ _____ _____    ______ ____
ROOT
ATOM      1  CA  UNL     1      36.018 -24.793 -12.864  0.00  0.00    +0.041 C 
ENDROOT
BRANCH   1   2
ATOM      2  N   UNL     1      34.594 -24.745 -13.322  0.00  0.00    +0.389 N 
ATOM      3  H1  UNL     1      34.377 -23.808 -13.661  0.00  0.00    -0.088 HD
ATOM      4  H2  UNL     1      33.977 -24.975 -12.543  0.00  0.00    -0.088 HD
ATOM      5  H3  UNL     1      34.455 -25.420 -14.074  0.00  0.00    -0.088 HD
ENDBRANCH   1   2
BRANCH   1   8
ATOM      6  O   UNL     1      35.263 -25.089 -10.627  0.00  0.00    -0.248 OA
ATOM      7  OXT UNL     1      37.285 -24.094 -10.986  0.00  0.00    -0.248 OA
ATOM      8  C   UNL     1      36.200 -24.636 -11.344  0.00  0.00    +0.345 C 
ENDBRANCH   1   8
BRANCH   1   9
ATOM      9  C   UNL     1      36.812 -23.804 -13.728  0.00  0.00    +0.003 C 
BRANCH   9  10
ATOM     10  C   UNL     1      37.682 -24.466 -14.796  0.00  0.00    +0.090 C 
BRANCH  10  11
ATOM     11  S   UNL     1      38.684 -25.799 -14.062  0.00  0.00    +0.043 S 
ATOM     12  O   UNL     1      38.204 -27.086 -14.655  0.00  0.00    -0.256 OA
ATOM     13  C   UNL     1      40.216 -25.341 -14.906  0.00  0.00    +0.106 C 
ENDBRANCH  10  11
ENDBRANCH   9  10
ENDBRANCH   1   9
TORSDOF 5
ENDMDL
MODEL 7
REMARK VINA RESULT:      -5.1      2.148      2.311
REMARK  Name = 11869257
REMARK  5 active torsions:
REMARK  status: ('A' for Active; 'I' for Inactive)
REMARK    1  A    between atoms: CA_1  and  N_2
REMARK    2  A    between atoms: CA_1  and  C_8
REMARK    3  A    between atoms: CA_1  and  C_9
REMARK    4  A    between atoms: C_9  and  C_10
REMARK    5  A    between atoms: C_10  and  S_11
REMARK                            x       y       z     vdW  Elec       q    Type
REMARK                         _______ _______ _______ _____ _____    ______ ____
ROOT
ATOM      1  CA  UNL     1      36.577 -25.553 -14.416  0.00  0.00    +0.041 C 
ENDROOT
BRANCH   1   2
ATOM      2  N   UNL     1      36.021 -26.615 -15.312  0.00  0.00    +0.389 N 
ATOM      3  H1  UNL     1      36.641 -26.744 -16.111  0.00  0.00    -0.088 HD
ATOM      4  H2  UNL     1      35.097 -26.337 -15.639  0.00  0.00    -0.088 HD
ATOM      5  H3  UNL     1      35.947 -27.492 -14.794  0.00  0.00    -0.088 HD
ENDBRANCH   1   2
BRANCH   1   8
ATOM      6  O   UNL     1      38.377 -24.078 -14.912  0.00  0.00    -0.248 OA
ATOM      7  OXT UNL     1      36.374 -23.764 -15.959  0.00  0.00    -0.248 OA
ATOM      8  C   UNL     1      37.166 -24.342 -15.160  0.00  0.00    +0.345 C 
ENDBRANCH   1   8
BRANCH   1   9
ATOM      9  C   UNL     1      37.522 -26.238 -13.420  0.00  0.00    +0.003 C 
BRANCH   9  10
ATOM     10  C   UNL     1      37.495 -25.635 -12.017  0.00  0.00    +0.090 C 
BRANCH  10  11
ATOM     11  S   UNL     1      35.992 -24.632 -11.784  0.00  0.00    +0.043 S 
ATOM     12  O   UNL     1      35.385 -25.047 -10.481  0.00  0.00    -0.256 OA
ATOM     13  C   UNL     1      36.869 -23.075 -11.513  0.00  0.00    +0.106 C 
ENDBRANCH  10  11
ENDBRANCH   9  10
ENDBRANCH   1   9
TORSDOF 5
ENDMDL
MODEL 8
REMARK VINA RESULT:      -5.1      2.286      2.362
REMARK  Name = 11869257
REMARK  5 active torsions:
REMARK  status: ('A' for Active; 'I' for Inactive)
REMARK    1  A    between atoms: CA_1  and  N_2
REMARK    2  A    between atoms: CA_1  and  C_8
REMARK    3  A    between atoms: CA_1  and  C_9
REMARK    4  A    between atoms: C_9  and  C_10
REMARK    5  A    between atoms: C_10  and  S_11
REMARK                            x       y       z     vdW  Elec       q    Type
REMARK                         _______ _______ _______ _____ _____    ______ ____
ROOT
ATOM      1  CA  UNL     1      38.881 -25.733 -14.684  0.00  0.00    +0.041 C 
ENDROOT
BRANCH   1   2
ATOM      2  N   UNL     1      38.132 -26.364 -13.552  0.00  0.00    +0.389 N 
ATOM      3  H1  UNL     1      38.666 -27.153 -13.189  0.00  0.00    -0.088 HD
ATOM      4  H2  UNL     1      37.225 -26.691 -13.884  0.00  0.00    -0.088 HD
ATOM      5  H3  UNL     1      37.994 -25.677 -12.811  0.00  0.00    -0.088 HD
ENDBRANCH   1   2
BRANCH   1   8
ATOM      6  O   UNL     1      40.909 -24.561 -14.265  0.00  0.00    -0.248 OA
ATOM      7  OXT UNL     1      40.984 -26.822 -14.557  0.00  0.00    -0.248 OA
ATOM      8  C   UNL     1      40.408 -25.698 -14.492  0.00  0.00    +0.345 C 
ENDBRANCH   1   8
BRANCH   1   9
ATOM      9  C   UNL     1      38.223 -24.377 -14.972  0.00  0.00    +0.003 C 
BRANCH   9  10
ATOM     10  C   UNL     1      37.246 -23.915 -13.893  0.00  0.00    +0.090 C 
BRANCH  10  11
ATOM     11  S   UNL     1      35.582 -23.683 -14.599  0.00  0.00    +0.043 S 
ATOM     12  O   UNL     1      35.401 -24.734 -15.649  0.00  0.00    -0.256 OA
ATOM     13  C   UNL     1      34.695 -24.223 -13.120  0.00  0.00    +0.106 C 
ENDBRANCH  10  11
ENDBRANCH   9  10
ENDBRANCH   1   9
TORSDOF 5
ENDMDL
MODEL 9
REMARK VINA RESULT:      -5.0      9.663     10.293
REMARK  Name = 11869257
REMARK  5 active torsions:
REMARK  status: ('A' for Active; 'I' for Inactive)
REMARK    1  A    between atoms: CA_1  and  N_2
REMARK    2  A    between atoms: CA_1  and  C_8
REMARK    3  A    between atoms: CA_1  and  C_9
REMARK    4  A    between atoms: C_9  and  C_10
REMARK    5  A    between atoms: C_10  and  S_11
REMARK                            x       y       z     vdW  Elec       q    Type
REMARK                         _______ _______ _______ _____ _____    ______ ____
ROOT
ATOM      1  CA  UNL     1      34.186 -21.068 -19.577  0.00  0.00    +0.041 C 
ENDROOT
BRANCH   1   2
ATOM      2  N   UNL     1      35.520 -21.196 -20.243  0.00  0.00    +0.389 N 
ATOM      3  H1  UNL     1      35.575 -22.092 -20.726  0.00  0.00    -0.088 HD
ATOM      4  H2  UNL     1      36.258 -21.142 -19.541  0.00  0.00    -0.088 HD
ATOM      5  H3  UNL     1      35.638 -20.439 -20.916  0.00  0.00    -0.088 HD
ENDBRANCH   1   2
BRANCH   1   8
ATOM      6  O   UNL     1      34.157 -23.447 -19.554  0.00  0.00    -0.248 OA
ATOM      7  OXT UNL     1      32.527 -22.314 -18.429  0.00  0.00    -0.248 OA
ATOM      8  C   UNL     1      33.559 -22.409 -19.154  0.00  0.00    +0.345 C 
ENDBRANCH   1   8
BRANCH   1   9
ATOM      9  C   UNL     1      33.308 -20.184 -20.473  0.00  0.00    +0.003 C 
BRANCH   9  10
ATOM     10  C   UNL     1      34.018 -19.654 -21.717  0.00  0.00    +0.090 C 
BRANCH  10  11
ATOM     11  S   UNL     1      34.577 -17.941 -21.448  0.00  0.00    +0.043 S 
ATOM     12  O   UNL     1      35.759 -18.004 -20.533  0.00  0.00    -0.256 OA
ATOM     13  C   UNL     1      35.195 -17.699 -23.130  0.00  0.00    +0.106 C 
ENDBRANCH  10  11
ENDBRANCH   9  10
ENDBRANCH   1   9
TORSDOF 5
ENDMDL
