MODEL 1
REMARK VINA RESULT:      -6.3      0.000      0.000
REMARK  Name = 9958
REMARK  2 active torsions:
REMARK  status: ('A' for Active; 'I' for Inactive)
REMARK    1  A    between atoms: C_4  and  O_8
REMARK    2  A    between atoms: C_5  and  O_10
REMARK                            x       y       z     vdW  Elec       q    Type
REMARK                         _______ _______ _______ _____ _____    ______ ____
ROOT
ATOM      1  C   UNL     1      35.159 -19.534 -20.982  0.00  0.00    -0.019 C 
ATOM      2  C   UNL     1      35.708 -20.561 -20.215  0.00  0.00    +0.036 C 
ATOM      3  C   UNL     1      33.774 -19.385 -21.058  0.00  0.00    -0.001 C 
ATOM      4  C   UNL     1      34.872 -21.439 -19.524  0.00  0.00    +0.167 C 
ATOM      5  C   UNL     1      33.488 -21.291 -19.601  0.00  0.00    +0.167 C 
ATOM      6  C   UNL     1      32.938 -20.263 -20.368  0.00  0.00    +0.039 C 
ATOM      7  C   UNL     1      36.052 -18.595 -21.720  0.00  0.00    +0.031 C 
ENDROOT
BRANCH   4   8
ATOM      8  O   UNL     1      35.421 -22.441 -18.780  0.00  0.00    -0.503 OA
ATOM      9  H   UNL     1      35.375 -23.327 -19.081  0.00  0.00    +0.292 HD
ENDBRANCH   4   8
BRANCH   5  10
ATOM     10  O   UNL     1      32.662 -22.142 -18.931  0.00  0.00    -0.503 OA
ATOM     11  H   UNL     1      32.048 -22.667 -19.405  0.00  0.00    +0.292 HD
ENDBRANCH   5  10
TORSDOF 2
ENDMDL
MODEL 2
REMARK VINA RESULT:      -6.1      0.898      2.271
REMARK  Name = 9958
REMARK  2 active torsions:
REMARK  status: ('A' for Active; 'I' for Inactive)
REMARK    1  A    between atoms: C_4  and  O_8
REMARK    2  A    between atoms: C_5  and  O_10
REMARK                            x       y       z     vdW  Elec       q    Type
REMARK                         _______ _______ _______ _____ _____    ______ ____
ROOT
ATOM      1  C   UNL     1      34.507 -19.963 -20.836  0.00  0.00    -0.019 C 
ATOM      2  C   UNL     1      33.427 -20.608 -20.234  0.00  0.00    +0.036 C 
ATOM      3  C   UNL     1      35.811 -20.291 -20.462  0.00  0.00    -0.001 C 
ATOM      4  C   UNL     1      33.649 -21.579 -19.258  0.00  0.00    +0.167 C 
ATOM      5  C   UNL     1      34.951 -21.906 -18.883  0.00  0.00    +0.167 C 
ATOM      6  C   UNL     1      36.033 -21.262 -19.486  0.00  0.00    +0.039 C 
ATOM      7  C   UNL     1      34.269 -18.924 -21.879  0.00  0.00    +0.031 C 
ENDROOT
BRANCH   4   8
ATOM      8  O   UNL     1      32.585 -22.200 -18.676  0.00  0.00    -0.503 OA
ATOM      9  H   UNL     1      32.383 -23.089 -18.895  0.00  0.00    +0.292 HD
ENDBRANCH   4   8
BRANCH   5  10
ATOM     10  O   UNL     1      35.182 -22.853 -17.932  0.00  0.00    -0.503 OA
ATOM     11  H   UNL     1      34.812 -22.757 -17.077  0.00  0.00    +0.292 HD
ENDBRANCH   5  10
TORSDOF 2
ENDMDL
MODEL 3
REMARK VINA RESULT:      -5.9      4.719      5.713
REMARK  Name = 9958
REMARK  2 active torsions:
REMARK  status: ('A' for Active; 'I' for Inactive)
REMARK    1  A    between atoms: C_4  and  O_8
REMARK    2  A    between atoms: C_5  and  O_10
REMARK                            x       y       z     vdW  Elec       q    Type
REMARK                         _______ _______ _______ _____ _____    ______ ____
ROOT
ATOM      1  C   UNL     1      34.943 -18.702 -22.358  0.00  0.00    -0.019 C 
ATOM      2  C   UNL     1      35.048 -17.312 -22.310  0.00  0.00    +0.036 C 
ATOM      3  C   UNL     1      34.726 -19.343 -23.578  0.00  0.00    -0.001 C 
ATOM      4  C   UNL     1      34.937 -16.563 -23.482  0.00  0.00    +0.167 C 
ATOM      5  C   UNL     1      34.719 -17.203 -24.701  0.00  0.00    +0.167 C 
ATOM      6  C   UNL     1      34.614 -18.594 -24.749  0.00  0.00    +0.039 C 
ATOM      7  C   UNL     1      35.062 -19.502 -21.105  0.00  0.00    +0.031 C 
ENDROOT
BRANCH   4   8
ATOM      8  O   UNL     1      35.039 -15.205 -23.422  0.00  0.00    -0.503 OA
ATOM      9  H   UNL     1      34.667 -14.738 -22.699  0.00  0.00    +0.292 HD
ENDBRANCH   4   8
BRANCH   5  10
ATOM     10  O   UNL     1      34.608 -16.483 -25.852  0.00  0.00    -0.503 OA
ATOM     11  H   UNL     1      34.418 -15.566 -25.814  0.00  0.00    +0.292 HD
ENDBRANCH   5  10
TORSDOF 2
ENDMDL
MODEL 4
REMARK VINA RESULT:      -5.7      2.327      3.321
REMARK  Name = 9958
REMARK  2 active torsions:
REMARK  status: ('A' for Active; 'I' for Inactive)
REMARK    1  A    between atoms: C_4  and  O_8
REMARK    2  A    between atoms: C_5  and  O_10
REMARK                            x       y       z     vdW  Elec       q    Type
REMARK                         _______ _______ _______ _____ _____    ______ ____
ROOT
ATOM      1  C   UNL     1      34.140 -21.403 -19.591  0.00  0.00    -0.019 C 
ATOM      2  C   UNL     1      35.473 -21.032 -19.770  0.00  0.00    +0.036 C 
ATOM      3  C   UNL     1      33.122 -20.647 -20.173  0.00  0.00    -0.001 C 
ATOM      4  C   UNL     1      35.787 -19.906 -20.530  0.00  0.00    +0.167 C 
ATOM      5  C   UNL     1      34.771 -19.149 -21.111  0.00  0.00    +0.167 C 
ATOM      6  C   UNL     1      33.437 -19.520 -20.933  0.00  0.00    +0.039 C 
ATOM      7  C   UNL     1      33.803 -22.607 -18.779  0.00  0.00    +0.031 C 
ENDROOT
BRANCH   4   8
ATOM      8  O   UNL     1      37.093 -19.552 -20.696  0.00  0.00    -0.503 OA
ATOM      9  H   UNL     1      37.313 -18.798 -21.207  0.00  0.00    +0.292 HD
ENDBRANCH   4   8
BRANCH   5  10
ATOM     10  O   UNL     1      35.065 -18.047 -21.855  0.00  0.00    -0.503 OA
ATOM     11  H   UNL     1      35.946 -17.891 -22.132  0.00  0.00    +0.292 HD
ENDBRANCH   5  10
TORSDOF 2
ENDMDL
MODEL 5
REMARK VINA RESULT:      -5.6      4.191      5.319
REMARK  Name = 9958
REMARK  2 active torsions:
REMARK  status: ('A' for Active; 'I' for Inactive)
REMARK    1  A    between atoms: C_4  and  O_8
REMARK    2  A    between atoms: C_5  and  O_10
REMARK                            x       y       z     vdW  Elec       q    Type
REMARK                         _______ _______ _______ _____ _____    ______ ____
ROOT
ATOM      1  C   UNL     1      34.383 -14.857 -22.846  0.00  0.00    -0.019 C 
ATOM      2  C   UNL     1      34.944 -15.947 -23.511  0.00  0.00    +0.036 C 
ATOM      3  C   UNL     1      34.233 -14.887 -21.460  0.00  0.00    -0.001 C 
ATOM      4  C   UNL     1      35.355 -17.068 -22.789  0.00  0.00    +0.167 C 
ATOM      5  C   UNL     1      35.205 -17.099 -21.403  0.00  0.00    +0.167 C 
ATOM      6  C   UNL     1      34.644 -16.007 -20.738  0.00  0.00    +0.039 C 
ATOM      7  C   UNL     1      33.944 -13.659 -23.619  0.00  0.00    +0.031 C 
ENDROOT
BRANCH   4   8
ATOM      8  O   UNL     1      35.899 -18.129 -23.449  0.00  0.00    -0.503 OA
ATOM      9  H   UNL     1      36.600 -17.993 -24.056  0.00  0.00    +0.292 HD
ENDBRANCH   4   8
BRANCH   5  10
ATOM     10  O   UNL     1      35.602 -18.187 -20.687  0.00  0.00    -0.503 OA
ATOM     11  H   UNL     1      36.147 -18.836 -21.085  0.00  0.00    +0.292 HD
ENDBRANCH   5  10
TORSDOF 2
ENDMDL
MODEL 6
REMARK VINA RESULT:      -5.6      4.386      5.368
REMARK  Name = 9958
REMARK  2 active torsions:
REMARK  status: ('A' for Active; 'I' for Inactive)
REMARK    1  A    between atoms: C_4  and  O_8
REMARK    2  A    between atoms: C_5  and  O_10
REMARK                            x       y       z     vdW  Elec       q    Type
REMARK                         _______ _______ _______ _____ _____    ______ ____
ROOT
ATOM      1  C   UNL     1      34.770 -18.177 -23.539  0.00  0.00    -0.019 C 
ATOM      2  C   UNL     1      34.796 -16.801 -23.764  0.00  0.00    +0.036 C 
ATOM      3  C   UNL     1      34.792 -18.670 -22.234  0.00  0.00    -0.001 C 
ATOM      4  C   UNL     1      34.846 -15.918 -22.685  0.00  0.00    +0.167 C 
ATOM      5  C   UNL     1      34.869 -16.410 -21.381  0.00  0.00    +0.167 C 
ATOM      6  C   UNL     1      34.842 -17.787 -21.155  0.00  0.00    +0.039 C 
ATOM      7  C   UNL     1      34.717 -19.121 -24.692  0.00  0.00    +0.031 C 
ENDROOT
BRANCH   4   8
ATOM      8  O   UNL     1      34.874 -14.575 -22.919  0.00  0.00    -0.503 OA
ATOM      9  H   UNL     1      34.078 -14.114 -23.099  0.00  0.00    +0.292 HD
ENDBRANCH   4   8
BRANCH   5  10
ATOM     10  O   UNL     1      34.917 -15.558 -20.320  0.00  0.00    -0.503 OA
ATOM     11  H   UNL     1      35.230 -14.683 -20.436  0.00  0.00    +0.292 HD
ENDBRANCH   5  10
TORSDOF 2
ENDMDL
MODEL 7
REMARK VINA RESULT:      -5.5      3.724      4.933
REMARK  Name = 9958
REMARK  2 active torsions:
REMARK  status: ('A' for Active; 'I' for Inactive)
REMARK    1  A    between atoms: C_4  and  O_8
REMARK    2  A    between atoms: C_5  and  O_10
REMARK                            x       y       z     vdW  Elec       q    Type
REMARK                         _______ _______ _______ _____ _____    ______ ____
ROOT
ATOM      1  C   UNL     1      34.525 -16.745 -24.059  0.00  0.00    -0.019 C 
ATOM      2  C   UNL     1      34.503 -16.019 -22.867  0.00  0.00    +0.036 C 
ATOM      3  C   UNL     1      35.017 -18.050 -24.071  0.00  0.00    -0.001 C 
ATOM      4  C   UNL     1      34.975 -16.598 -21.689  0.00  0.00    +0.167 C 
ATOM      5  C   UNL     1      35.469 -17.902 -21.701  0.00  0.00    +0.167 C 
ATOM      6  C   UNL     1      35.490 -18.628 -22.893  0.00  0.00    +0.039 C 
ATOM      7  C   UNL     1      34.020 -16.126 -25.318  0.00  0.00    +0.031 C 
ENDROOT
BRANCH   4   8
ATOM      8  O   UNL     1      34.951 -15.878 -20.532  0.00  0.00    -0.503 OA
ATOM      9  H   UNL     1      34.145 -15.515 -20.222  0.00  0.00    +0.292 HD
ENDBRANCH   4   8
BRANCH   5  10
ATOM     10  O   UNL     1      35.932 -18.478 -20.558  0.00  0.00    -0.503 OA
ATOM     11  H   UNL     1      36.442 -19.263 -20.602  0.00  0.00    +0.292 HD
ENDBRANCH   5  10
TORSDOF 2
ENDMDL
MODEL 8
REMARK VINA RESULT:      -5.5      3.806      4.845
REMARK  Name = 9958
REMARK  2 active torsions:
REMARK  status: ('A' for Active; 'I' for Inactive)
REMARK    1  A    between atoms: C_4  and  O_8
REMARK    2  A    between atoms: C_5  and  O_10
REMARK                            x       y       z     vdW  Elec       q    Type
REMARK                         _______ _______ _______ _____ _____    ______ ____
ROOT
ATOM      1  C   UNL     1      34.719 -16.995 -23.851  0.00  0.00    -0.019 C 
ATOM      2  C   UNL     1      35.185 -17.886 -22.883  0.00  0.00    +0.036 C 
ATOM      3  C   UNL     1      34.328 -15.708 -23.482  0.00  0.00    -0.001 C 
ATOM      4  C   UNL     1      35.257 -17.490 -21.547  0.00  0.00    +0.167 C 
ATOM      5  C   UNL     1      34.866 -16.204 -21.178  0.00  0.00    +0.167 C 
ATOM      6  C   UNL     1      34.401 -15.312 -22.146  0.00  0.00    +0.039 C 
ATOM      7  C   UNL     1      34.642 -17.419 -25.278  0.00  0.00    +0.031 C 
ENDROOT
BRANCH   4   8
ATOM      8  O   UNL     1      35.711 -18.371 -20.611  0.00  0.00    -0.503 OA
ATOM      9  H   UNL     1      36.315 -18.085 -19.953  0.00  0.00    +0.292 HD
ENDBRANCH   4   8
BRANCH   5  10
ATOM     10  O   UNL     1      34.932 -15.806 -19.878  0.00  0.00    -0.503 OA
ATOM     11  H   UNL     1      35.112 -14.910 -19.671  0.00  0.00    +0.292 HD
ENDBRANCH   5  10
TORSDOF 2
ENDMDL
MODEL 9
REMARK VINA RESULT:      -5.5      5.921      6.978
REMARK  Name = 9958
REMARK  2 active torsions:
REMARK  status: ('A' for Active; 'I' for Inactive)
REMARK    1  A    between atoms: C_4  and  O_8
REMARK    2  A    between atoms: C_5  and  O_10
REMARK                            x       y       z     vdW  Elec       q    Type
REMARK                         _______ _______ _______ _____ _____    ______ ____
ROOT
ATOM      1  C   UNL     1      34.280 -15.511 -22.666  0.00  0.00    -0.019 C 
ATOM      2  C   UNL     1      34.638 -16.579 -23.490  0.00  0.00    +0.036 C 
ATOM      3  C   UNL     1      33.605 -14.414 -23.202  0.00  0.00    -0.001 C 
ATOM      4  C   UNL     1      34.323 -16.549 -24.848  0.00  0.00    +0.167 C 
ATOM      5  C   UNL     1      33.650 -15.452 -25.384  0.00  0.00    +0.167 C 
ATOM      6  C   UNL     1      33.290 -14.384 -24.561  0.00  0.00    +0.039 C 
ATOM      7  C   UNL     1      34.616 -15.544 -21.214  0.00  0.00    +0.031 C 
ENDROOT
BRANCH   4   8
ATOM      8  O   UNL     1      34.682 -17.596 -25.644  0.00  0.00    -0.503 OA
ATOM      9  H   UNL     1      34.588 -18.475 -25.331  0.00  0.00    +0.292 HD
ENDBRANCH   4   8
BRANCH   5  10
ATOM     10  O   UNL     1      33.337 -15.410 -26.709  0.00  0.00    -0.503 OA
ATOM     11  H   UNL     1      33.347 -16.197 -27.218  0.00  0.00    +0.292 HD
ENDBRANCH   5  10
TORSDOF 2
ENDMDL
