MODEL 1
REMARK VINA RESULT:      -9.0      0.000      0.000
REMARK  Name = 6917698
REMARK  10 active torsions:
REMARK  status: ('A' for Active; 'I' for Inactive)
REMARK    1  A    between atoms: N_1  and  C_26
REMARK    2  A    between atoms: C_2  and  N_9
REMARK    3  A    between atoms: C_3  and  O_24
REMARK    4  A    between atoms: C_10  and  C_13
REMARK    5  A    between atoms: C_14  and  O_22
REMARK    6  A    between atoms: C_18  and  N_19
REMARK    7  A    between atoms: C_26  and  C_27
REMARK    8  A    between atoms: C_27  and  C_28
REMARK    9  A    between atoms: C_28  and  O_29
REMARK   10  A    between atoms: O_29  and  C_31
REMARK                            x       y       z     vdW  Elec       q    Type
REMARK                         _______ _______ _______ _____ _____    ______ ____
ROOT
ATOM      1  N   UNL     1      33.804 -12.139 -25.836  0.00  0.00    +0.389 N 
ATOM      2  C   UNL     1      34.276 -10.175 -23.696  0.00  0.00    +0.095 C 
ATOM      3  C   UNL     1      33.403 -11.423 -23.508  0.00  0.00    +0.112 C 
ATOM      4  C   UNL     1      35.281 -10.417 -24.823  0.00  0.00    -0.001 C 
ATOM      5  C   UNL     1      32.772 -11.884 -24.824  0.00  0.00    -0.045 C 
ATOM      6  C   UNL     1      34.609 -10.938 -26.100  0.00  0.00    -0.075 C 
ATOM      7  H   UNL     1      34.429 -12.856 -25.468  0.00  0.00    -0.080 HD
ENDROOT
BRANCH   2   9
ATOM      8  O   UNL     1      35.061  -7.446 -23.280  0.00  0.00    -0.270 OA
ATOM      9  N   UNL     1      33.477  -8.998 -23.956  0.00  0.00    -0.300 N 
ATOM     10  C   UNL     1      33.949  -7.716 -23.721  0.00  0.00    +0.249 C 
ATOM     11  H   UNL     1      32.566  -9.111 -24.313  0.00  0.00    +0.150 HD
BRANCH  10  13
ATOM     12 CL   UNL     1      32.592  -3.845 -26.863  0.00  0.00    -0.081 Cl
ATOM     13  C   UNL     1      32.996  -6.614 -24.015  0.00  0.00    +0.088 C 
ATOM     14  C   UNL     1      31.916  -6.357 -23.170  0.00  0.00    +0.144 C 
ATOM     15  C   UNL     1      33.193  -5.831 -25.152  0.00  0.00    +0.020 C 
ATOM     16  C   UNL     1      31.033  -5.318 -23.463  0.00  0.00    +0.052 C 
ATOM     17  C   UNL     1      32.310  -4.792 -25.445  0.00  0.00    +0.071 C 
ATOM     18  C   UNL     1      31.230  -4.536 -24.601  0.00  0.00    +0.055 C 
BRANCH  18  19
ATOM     19  N   UNL     1      30.319  -3.490 -24.871  0.00  0.00    -0.356 N 
ATOM     20  H   UNL     1      30.294  -2.696 -24.290  0.00  0.00    +0.142 HD
ATOM     21  H   UNL     1      29.709  -3.555 -25.642  0.00  0.00    +0.142 HD
ENDBRANCH  18  19
BRANCH  14  22
ATOM     22  O   UNL     1      31.707  -7.111 -22.055  0.00  0.00    -0.471 OA
ATOM     23  C   UNL     1      32.064  -6.528 -20.803  0.00  0.00    +0.252 C 
ENDBRANCH  14  22
ENDBRANCH  10  13
ENDBRANCH   2   9
BRANCH   3  24
ATOM     24  O   UNL     1      32.378 -11.183 -22.551  0.00  0.00    -0.354 OA
ATOM     25  C   UNL     1      31.965 -12.386 -21.918  0.00  0.00    +0.174 C 
ENDBRANCH   3  24
BRANCH   1  26
ATOM     26  C   UNL     1      33.199 -12.633 -27.073  0.00  0.00    -0.073 C 
BRANCH  26  27
ATOM     27  C   UNL     1      33.642 -14.068 -27.341  0.00  0.00    +0.025 C 
BRANCH  27  28
ATOM     28  C   UNL     1      33.043 -15.035 -26.329  0.00  0.00    +0.203 C 
BRANCH  28  29
ATOM     29  O   UNL     1      33.983 -16.069 -26.069  0.00  0.00    -0.476 OA
BRANCH  29  31
ATOM     30  F   UNL     1      35.312 -16.946 -20.804  0.00  0.00    -0.204 F 
ATOM     31  C   UNL     1      34.313 -16.288 -24.757  0.00  0.00    +0.139 C 
ATOM     32  C   UNL     1      34.068 -15.301 -23.802  0.00  0.00    +0.039 C 
ATOM     33  C   UNL     1      34.896 -17.497 -24.376  0.00  0.00    +0.039 C 
ATOM     34  C   UNL     1      34.404 -15.523 -22.467  0.00  0.00    +0.033 C 
ATOM     35  C   UNL     1      35.233 -17.719 -23.041  0.00  0.00    +0.033 C 
ATOM     36  C   UNL     1      34.987 -16.732 -22.087  0.00  0.00    +0.140 C 
ENDBRANCH  29  31
ENDBRANCH  28  29
ENDBRANCH  27  28
ENDBRANCH  26  27
ENDBRANCH   1  26
TORSDOF 10
ENDMDL
MODEL 2
REMARK VINA RESULT:      -8.6      3.280      5.464
REMARK  Name = 6917698
REMARK  10 active torsions:
REMARK  status: ('A' for Active; 'I' for Inactive)
REMARK    1  A    between atoms: N_1  and  C_26
REMARK    2  A    between atoms: C_2  and  N_9
REMARK    3  A    between atoms: C_3  and  O_24
REMARK    4  A    between atoms: C_10  and  C_13
REMARK    5  A    between atoms: C_14  and  O_22
REMARK    6  A    between atoms: C_18  and  N_19
REMARK    7  A    between atoms: C_26  and  C_27
REMARK    8  A    between atoms: C_27  and  C_28
REMARK    9  A    between atoms: C_28  and  O_29
REMARK   10  A    between atoms: O_29  and  C_31
REMARK                            x       y       z     vdW  Elec       q    Type
REMARK                         _______ _______ _______ _____ _____    ______ ____
ROOT
ATOM      1  N   UNL     1      34.340 -16.057 -22.550  0.00  0.00    +0.389 N 
ATOM      2  C   UNL     1      32.243 -14.012 -22.829  0.00  0.00    +0.095 C 
ATOM      3  C   UNL     1      32.605 -14.996 -23.949  0.00  0.00    +0.112 C 
ATOM      4  C   UNL     1      32.630 -14.609 -21.475  0.00  0.00    -0.001 C 
ATOM      5  C   UNL     1      34.063 -15.454 -23.859  0.00  0.00    -0.045 C 
ATOM      6  C   UNL     1      34.080 -15.111 -21.455  0.00  0.00    -0.075 C 
ATOM      7  H   UNL     1      33.708 -16.848 -22.432  0.00  0.00    -0.080 HD
ENDROOT
BRANCH   2   9
ATOM      8  O   UNL     1      31.033 -11.441 -22.424  0.00  0.00    -0.270 OA
ATOM      9  N   UNL     1      32.868 -12.723 -23.027  0.00  0.00    -0.300 N 
ATOM     10  C   UNL     1      32.197 -11.532 -22.803  0.00  0.00    +0.249 C 
ATOM     11  H   UNL     1      33.804 -12.691 -23.330  0.00  0.00    +0.150 HD
BRANCH  10  13
ATOM     12 CL   UNL     1      32.823  -6.487 -21.882  0.00  0.00    -0.081 Cl
ATOM     13  C   UNL     1      32.970 -10.293 -23.077  0.00  0.00    +0.088 C 
ATOM     14  C   UNL     1      34.054 -10.306 -23.955  0.00  0.00    +0.144 C 
ATOM     15  C   UNL     1      32.601  -9.107 -22.442  0.00  0.00    +0.020 C 
ATOM     16  C   UNL     1      34.768  -9.133 -24.200  0.00  0.00    +0.052 C 
ATOM     17  C   UNL     1      33.315  -7.934 -22.687  0.00  0.00    +0.071 C 
ATOM     18  C   UNL     1      34.398  -7.947 -23.565  0.00  0.00    +0.055 C 
BRANCH  18  19
ATOM     19  N   UNL     1      35.141  -6.775 -23.833  0.00  0.00    -0.356 N 
ATOM     20  H   UNL     1      34.678  -5.951 -24.110  0.00  0.00    +0.142 HD
ATOM     21  H   UNL     1      36.121  -6.781 -23.741  0.00  0.00    +0.142 HD
ENDBRANCH  18  19
BRANCH  14  22
ATOM     22  O   UNL     1      34.430 -11.455 -24.584  0.00  0.00    -0.471 OA
ATOM     23  C   UNL     1      34.227 -11.517 -25.995  0.00  0.00    +0.252 C 
ENDBRANCH  14  22
ENDBRANCH  10  13
ENDBRANCH   2   9
BRANCH   3  24
ATOM     24  O   UNL     1      32.370 -14.417 -25.227  0.00  0.00    -0.354 OA
ATOM     25  C   UNL     1      33.090 -15.097 -26.246  0.00  0.00    +0.174 C 
ENDBRANCH   3  24
BRANCH   1  26
ATOM     26  C   UNL     1      35.719 -16.544 -22.489  0.00  0.00    -0.073 C 
BRANCH  26  27
ATOM     27  C   UNL     1      35.832 -17.897 -23.183  0.00  0.00    +0.025 C 
BRANCH  27  28
ATOM     28  C   UNL     1      34.773 -18.871 -22.685  0.00  0.00    +0.203 C 
BRANCH  28  29
ATOM     29  O   UNL     1      34.644 -18.730 -21.277  0.00  0.00    -0.476 OA
BRANCH  29  31
ATOM     30  F   UNL     1      33.928 -23.349 -18.378  0.00  0.00    -0.204 F 
ATOM     31  C   UNL     1      34.465 -19.880 -20.554  0.00  0.00    +0.139 C 
ATOM     32  C   UNL     1      35.572 -20.621 -20.138  0.00  0.00    +0.039 C 
ATOM     33  C   UNL     1      33.177 -20.312 -20.235  0.00  0.00    +0.039 C 
ATOM     34  C   UNL     1      35.391 -21.792 -19.403  0.00  0.00    +0.033 C 
ATOM     35  C   UNL     1      32.996 -21.483 -19.500  0.00  0.00    +0.033 C 
ATOM     36  C   UNL     1      34.103 -22.223 -19.084  0.00  0.00    +0.140 C 
ENDBRANCH  29  31
ENDBRANCH  28  29
ENDBRANCH  27  28
ENDBRANCH  26  27
ENDBRANCH   1  26
TORSDOF 10
ENDMDL
MODEL 3
REMARK VINA RESULT:      -8.5      1.317      1.998
REMARK  Name = 6917698
REMARK  10 active torsions:
REMARK  status: ('A' for Active; 'I' for Inactive)
REMARK    1  A    between atoms: N_1  and  C_26
REMARK    2  A    between atoms: C_2  and  N_9
REMARK    3  A    between atoms: C_3  and  O_24
REMARK    4  A    between atoms: C_10  and  C_13
REMARK    5  A    between atoms: C_14  and  O_22
REMARK    6  A    between atoms: C_18  and  N_19
REMARK    7  A    between atoms: C_26  and  C_27
REMARK    8  A    between atoms: C_27  and  C_28
REMARK    9  A    between atoms: C_28  and  O_29
REMARK   10  A    between atoms: O_29  and  C_31
REMARK                            x       y       z     vdW  Elec       q    Type
REMARK                         _______ _______ _______ _____ _____    ______ ____
ROOT
ATOM      1  N   UNL     1      33.853 -12.134 -25.903  0.00  0.00    +0.389 N 
ATOM      2  C   UNL     1      34.520 -10.178 -23.808  0.00  0.00    +0.095 C 
ATOM      3  C   UNL     1      33.668 -11.426 -23.545  0.00  0.00    +0.112 C 
ATOM      4  C   UNL     1      35.417 -10.415 -25.024  0.00  0.00    -0.001 C 
ATOM      5  C   UNL     1      32.918 -11.883 -24.799  0.00  0.00    -0.045 C 
ATOM      6  C   UNL     1      34.630 -10.932 -26.236  0.00  0.00    -0.075 C 
ATOM      7  H   UNL     1      34.509 -12.852 -25.597  0.00  0.00    -0.080 HD
ENDROOT
BRANCH   2   9
ATOM      8  O   UNL     1      35.234  -7.477 -23.149  0.00  0.00    -0.270 OA
ATOM      9  N   UNL     1      33.700  -9.000 -23.989  0.00  0.00    -0.300 N 
ATOM     10  C   UNL     1      34.137  -7.732 -23.638  0.00  0.00    +0.249 C 
ATOM     11  H   UNL     1      32.801  -9.101 -24.375  0.00  0.00    +0.150 HD
BRANCH  10  13
ATOM     12 CL   UNL     1      30.093  -5.053 -21.862  0.00  0.00    -0.081 Cl
ATOM     13  C   UNL     1      33.167  -6.630 -23.862  0.00  0.00    +0.088 C 
ATOM     14  C   UNL     1      33.216  -5.859 -25.024  0.00  0.00    +0.144 C 
ATOM     15  C   UNL     1      32.198  -6.370 -22.893  0.00  0.00    +0.020 C 
ATOM     16  C   UNL     1      32.296  -4.828 -25.216  0.00  0.00    +0.052 C 
ATOM     17  C   UNL     1      31.278  -5.340 -23.085  0.00  0.00    +0.071 C 
ATOM     18  C   UNL     1      31.328  -4.568 -24.246  0.00  0.00    +0.055 C 
BRANCH  18  19
ATOM     19  N   UNL     1      30.409  -3.518 -24.470  0.00  0.00    -0.356 N 
ATOM     20  H   UNL     1      30.283  -2.819 -23.788  0.00  0.00    +0.142 HD
ATOM     21  H   UNL     1      29.895  -3.483 -25.310  0.00  0.00    +0.142 HD
ENDBRANCH  18  19
BRANCH  14  22
ATOM     22  O   UNL     1      34.156  -6.097 -25.981  0.00  0.00    -0.471 OA
ATOM     23  C   UNL     1      34.473  -5.018 -26.859  0.00  0.00    +0.252 C 
ENDBRANCH  14  22
ENDBRANCH  10  13
ENDBRANCH   2   9
BRANCH   3  24
ATOM     24  O   UNL     1      32.735 -11.191 -22.496  0.00  0.00    -0.354 OA
ATOM     25  C   UNL     1      31.992 -12.361 -22.189  0.00  0.00    +0.174 C 
ENDBRANCH   3  24
BRANCH   1  26
ATOM     26  C   UNL     1      33.137 -12.624 -27.081  0.00  0.00    -0.073 C 
BRANCH  26  27
ATOM     27  C   UNL     1      33.494 -14.082 -27.348  0.00  0.00    +0.025 C 
BRANCH  27  28
ATOM     28  C   UNL     1      33.004 -14.991 -26.230  0.00  0.00    +0.203 C 
BRANCH  28  29
ATOM     29  O   UNL     1      33.817 -16.156 -26.194  0.00  0.00    -0.476 OA
BRANCH  29  31
ATOM     30  F   UNL     1      35.747 -17.685 -21.276  0.00  0.00    -0.204 F 
ATOM     31  C   UNL     1      34.297 -16.537 -24.968  0.00  0.00    +0.139 C 
ATOM     32  C   UNL     1      34.372 -15.609 -23.929  0.00  0.00    +0.039 C 
ATOM     33  C   UNL     1      34.713 -17.853 -24.760  0.00  0.00    +0.039 C 
ATOM     34  C   UNL     1      34.861 -15.997 -22.682  0.00  0.00    +0.033 C 
ATOM     35  C   UNL     1      35.202 -18.241 -23.513  0.00  0.00    +0.033 C 
ATOM     36  C   UNL     1      35.276 -17.312 -22.474  0.00  0.00    +0.140 C 
ENDBRANCH  29  31
ENDBRANCH  28  29
ENDBRANCH  27  28
ENDBRANCH  26  27
ENDBRANCH   1  26
TORSDOF 10
ENDMDL
MODEL 4
REMARK VINA RESULT:      -8.3      3.283      4.941
REMARK  Name = 6917698
REMARK  10 active torsions:
REMARK  status: ('A' for Active; 'I' for Inactive)
REMARK    1  A    between atoms: N_1  and  C_26
REMARK    2  A    between atoms: C_2  and  N_9
REMARK    3  A    between atoms: C_3  and  O_24
REMARK    4  A    between atoms: C_10  and  C_13
REMARK    5  A    between atoms: C_14  and  O_22
REMARK    6  A    between atoms: C_18  and  N_19
REMARK    7  A    between atoms: C_26  and  C_27
REMARK    8  A    between atoms: C_27  and  C_28
REMARK    9  A    between atoms: C_28  and  O_29
REMARK   10  A    between atoms: O_29  and  C_31
REMARK                            x       y       z     vdW  Elec       q    Type
REMARK                         _______ _______ _______ _____ _____    ______ ____
ROOT
ATOM      1  N   UNL     1      33.960 -14.765 -21.915  0.00  0.00    +0.389 N 
ATOM      2  C   UNL     1      32.243 -12.817 -23.301  0.00  0.00    +0.095 C 
ATOM      3  C   UNL     1      33.545 -13.360 -23.903  0.00  0.00    +0.112 C 
ATOM      4  C   UNL     1      31.692 -13.816 -22.282  0.00  0.00    -0.001 C 
ATOM      5  C   UNL     1      34.549 -13.771 -22.822  0.00  0.00    -0.045 C 
ATOM      6  C   UNL     1      32.752 -14.246 -21.258  0.00  0.00    -0.075 C 
ATOM      7  H   UNL     1      33.685 -15.572 -22.475  0.00  0.00    -0.080 HD
ENDROOT
BRANCH   2   9
ATOM      8  O   UNL     1      30.187 -11.031 -22.397  0.00  0.00    -0.270 OA
ATOM      9  N   UNL     1      32.433 -11.515 -22.701  0.00  0.00    -0.300 N 
ATOM     10  C   UNL     1      31.370 -10.723 -22.295  0.00  0.00    +0.249 C 
ATOM     11  H   UNL     1      33.350 -11.178 -22.576  0.00  0.00    +0.150 HD
BRANCH  10  13
ATOM     12 CL   UNL     1      31.853  -5.633 -23.034  0.00  0.00    -0.081 Cl
ATOM     13  C   UNL     1      31.732  -9.401 -21.721  0.00  0.00    +0.088 C 
ATOM     14  C   UNL     1      32.157  -9.288 -20.397  0.00  0.00    +0.144 C 
ATOM     15  C   UNL     1      31.642  -8.265 -22.525  0.00  0.00    +0.020 C 
ATOM     16  C   UNL     1      32.492  -8.038 -19.877  0.00  0.00    +0.052 C 
ATOM     17  C   UNL     1      31.977  -7.015 -22.005  0.00  0.00    +0.071 C 
ATOM     18  C   UNL     1      32.401  -6.901 -20.681  0.00  0.00    +0.055 C 
BRANCH  18  19
ATOM     19  N   UNL     1      32.748  -5.649 -20.126  0.00  0.00    -0.356 N 
ATOM     20  H   UNL     1      32.299  -4.830 -20.437  0.00  0.00    +0.142 HD
ATOM     21  H   UNL     1      33.438  -5.594 -19.425  0.00  0.00    +0.142 HD
ENDBRANCH  18  19
BRANCH  14  22
ATOM     22  O   UNL     1      32.251 -10.387 -19.597  0.00  0.00    -0.471 OA
ATOM     23  C   UNL     1      31.130 -10.678 -18.764  0.00  0.00    +0.252 C 
ENDBRANCH  14  22
ENDBRANCH  10  13
ENDBRANCH   2   9
BRANCH   3  24
ATOM     24  O   UNL     1      34.146 -12.397 -24.762  0.00  0.00    -0.354 OA
ATOM     25  C   UNL     1      33.605 -12.460 -26.073  0.00  0.00    +0.174 C 
ENDBRANCH   3  24
BRANCH   1  26
ATOM     26  C   UNL     1      34.940 -15.196 -20.919  0.00  0.00    -0.073 C 
BRANCH  26  27
ATOM     27  C   UNL     1      34.788 -16.687 -20.638  0.00  0.00    +0.025 C 
BRANCH  27  28
ATOM     28  C   UNL     1      35.337 -17.530 -21.782  0.00  0.00    +0.203 C 
BRANCH  28  29
ATOM     29  O   UNL     1      34.441 -18.603 -22.034  0.00  0.00    -0.476 OA
BRANCH  29  31
ATOM     30  F   UNL     1      34.413 -22.719 -18.384  0.00  0.00    -0.204 F 
ATOM     31  C   UNL     1      34.434 -19.629 -21.125  0.00  0.00    +0.139 C 
ATOM     32  C   UNL     1      33.225 -20.090 -20.603  0.00  0.00    +0.039 C 
ATOM     33  C   UNL     1      35.636 -20.212 -20.721  0.00  0.00    +0.039 C 
ATOM     34  C   UNL     1      33.218 -21.134 -19.677  0.00  0.00    +0.033 C 
ATOM     35  C   UNL     1      35.628 -21.256 -19.796  0.00  0.00    +0.033 C 
ATOM     36  C   UNL     1      34.419 -21.716 -19.274  0.00  0.00    +0.140 C 
ENDBRANCH  29  31
ENDBRANCH  28  29
ENDBRANCH  27  28
ENDBRANCH  26  27
ENDBRANCH   1  26
TORSDOF 10
ENDMDL
MODEL 5
REMARK VINA RESULT:      -8.1      3.316      5.100
REMARK  Name = 6917698
REMARK  10 active torsions:
REMARK  status: ('A' for Active; 'I' for Inactive)
REMARK    1  A    between atoms: N_1  and  C_26
REMARK    2  A    between atoms: C_2  and  N_9
REMARK    3  A    between atoms: C_3  and  O_24
REMARK    4  A    between atoms: C_10  and  C_13
REMARK    5  A    between atoms: C_14  and  O_22
REMARK    6  A    between atoms: C_18  and  N_19
REMARK    7  A    between atoms: C_26  and  C_27
REMARK    8  A    between atoms: C_27  and  C_28
REMARK    9  A    between atoms: C_28  and  O_29
REMARK   10  A    between atoms: O_29  and  C_31
REMARK                            x       y       z     vdW  Elec       q    Type
REMARK                         _______ _______ _______ _____ _____    ______ ____
ROOT
ATOM      1  N   UNL     1      34.324 -15.897 -22.048  0.00  0.00    +0.389 N 
ATOM      2  C   UNL     1      32.311 -13.753 -21.938  0.00  0.00    +0.095 C 
ATOM      3  C   UNL     1      32.344 -14.812 -23.047  0.00  0.00    +0.112 C 
ATOM      4  C   UNL     1      32.995 -14.300 -20.684  0.00  0.00    -0.001 C 
ATOM      5  C   UNL     1      33.758 -15.348 -23.286  0.00  0.00    -0.045 C 
ATOM      6  C   UNL     1      34.383 -14.883 -20.985  0.00  0.00    -0.075 C 
ATOM      7  H   UNL     1      33.707 -16.644 -21.729  0.00  0.00    -0.080 HD
ENDROOT
BRANCH   2   9
ATOM      8  O   UNL     1      31.007 -11.214 -22.241  0.00  0.00    -0.270 OA
ATOM      9  N   UNL     1      32.923 -12.514 -22.364  0.00  0.00    -0.300 N 
ATOM     10  C   UNL     1      32.205 -11.334 -22.479  0.00  0.00    +0.249 C 
ATOM     11  H   UNL     1      33.884 -12.507 -22.579  0.00  0.00    +0.150 HD
BRANCH  10  13
ATOM     12 CL   UNL     1      35.727  -9.456 -25.759  0.00  0.00    -0.081 Cl
ATOM     13  C   UNL     1      32.973 -10.154 -22.954  0.00  0.00    +0.088 C 
ATOM     14  C   UNL     1      32.797  -8.901 -22.367  0.00  0.00    +0.144 C 
ATOM     15  C   UNL     1      33.881 -10.312 -24.002  0.00  0.00    +0.020 C 
ATOM     16  C   UNL     1      33.528  -7.806 -22.827  0.00  0.00    +0.052 C 
ATOM     17  C   UNL     1      34.612  -9.217 -24.462  0.00  0.00    +0.071 C 
ATOM     18  C   UNL     1      34.434  -7.964 -23.875  0.00  0.00    +0.055 C 
BRANCH  18  19
ATOM     19  N   UNL     1      35.161  -6.836 -24.319  0.00  0.00    -0.356 N 
ATOM     20  H   UNL     1      36.138  -6.801 -24.203  0.00  0.00    +0.142 HD
ATOM     21  H   UNL     1      34.690  -6.083 -24.745  0.00  0.00    +0.142 HD
ENDBRANCH  18  19
BRANCH  14  22
ATOM     22  O   UNL     1      31.914  -8.728 -21.343  0.00  0.00    -0.471 OA
ATOM     23  C   UNL     1      32.424  -8.155 -20.140  0.00  0.00    +0.252 C 
ENDBRANCH  14  22
ENDBRANCH  10  13
ENDBRANCH   2   9
BRANCH   3  24
ATOM     24  O   UNL     1      31.826 -14.288 -24.264  0.00  0.00    -0.354 OA
ATOM     25  C   UNL     1      32.791 -14.341 -25.306  0.00  0.00    +0.174 C 
ENDBRANCH   3  24
BRANCH   1  26
ATOM     26  C   UNL     1      35.653 -16.458 -22.294  0.00  0.00    -0.073 C 
BRANCH  26  27
ATOM     27  C   UNL     1      35.588 -17.505 -23.401  0.00  0.00    +0.025 C 
BRANCH  27  28
ATOM     28  C   UNL     1      35.181 -18.868 -22.857  0.00  0.00    +0.203 C 
BRANCH  28  29
ATOM     29  O   UNL     1      35.603 -18.968 -21.504  0.00  0.00    -0.476 OA
BRANCH  29  31
ATOM     30  F   UNL     1      33.142 -22.798 -18.416  0.00  0.00    -0.204 F 
ATOM     31  C   UNL     1      34.990 -19.922 -20.734  0.00  0.00    +0.139 C 
ATOM     32  C   UNL     1      35.757 -20.869 -20.056  0.00  0.00    +0.039 C 
ATOM     33  C   UNL     1      33.598 -19.946 -20.630  0.00  0.00    +0.039 C 
ATOM     34  C   UNL     1      35.133 -21.841 -19.273  0.00  0.00    +0.033 C 
ATOM     35  C   UNL     1      32.975 -20.917 -19.847  0.00  0.00    +0.033 C 
ATOM     36  C   UNL     1      33.742 -21.864 -19.168  0.00  0.00    +0.140 C 
ENDBRANCH  29  31
ENDBRANCH  28  29
ENDBRANCH  27  28
ENDBRANCH  26  27
ENDBRANCH   1  26
TORSDOF 10
ENDMDL
MODEL 6
REMARK VINA RESULT:      -7.9      2.320      3.542
REMARK  Name = 6917698
REMARK  10 active torsions:
REMARK  status: ('A' for Active; 'I' for Inactive)
REMARK    1  A    between atoms: N_1  and  C_26
REMARK    2  A    between atoms: C_2  and  N_9
REMARK    3  A    between atoms: C_3  and  O_24
REMARK    4  A    between atoms: C_10  and  C_13
REMARK    5  A    between atoms: C_14  and  O_22
REMARK    6  A    between atoms: C_18  and  N_19
REMARK    7  A    between atoms: C_26  and  C_27
REMARK    8  A    between atoms: C_27  and  C_28
REMARK    9  A    between atoms: C_28  and  O_29
REMARK   10  A    between atoms: O_29  and  C_31
REMARK                            x       y       z     vdW  Elec       q    Type
REMARK                         _______ _______ _______ _____ _____    ______ ____
ROOT
ATOM      1  N   UNL     1      32.133 -10.073 -22.363  0.00  0.00    +0.389 N 
ATOM      2  C   UNL     1      33.951  -7.848 -22.996  0.00  0.00    +0.095 C 
ATOM      3  C   UNL     1      33.477  -8.160 -21.572  0.00  0.00    +0.112 C 
ATOM      4  C   UNL     1      33.877  -9.114 -23.851  0.00  0.00    -0.001 C 
ATOM      5  C   UNL     1      32.107  -8.844 -21.561  0.00  0.00    -0.045 C 
ATOM      6  C   UNL     1      32.506  -9.799 -23.758  0.00  0.00    -0.075 C 
ATOM      7  H   UNL     1      32.844 -10.688 -21.968  0.00  0.00    -0.080 HD
ENDROOT
BRANCH   2   9
ATOM      8  O   UNL     1      34.641  -6.355 -25.349  0.00  0.00    -0.270 OA
ATOM      9  N   UNL     1      33.187  -6.774 -23.592  0.00  0.00    -0.300 N 
ATOM     10  C   UNL     1      33.607  -6.111 -24.735  0.00  0.00    +0.249 C 
ATOM     11  H   UNL     1      32.339  -6.503 -23.171  0.00  0.00    +0.150 HD
BRANCH  10  13
ATOM     12 CL   UNL     1      32.036  -3.165 -28.677  0.00  0.00    -0.081 Cl
ATOM     13  C   UNL     1      32.723  -5.014 -25.206  0.00  0.00    +0.088 C 
ATOM     14  C   UNL     1      31.857  -4.365 -24.326  0.00  0.00    +0.144 C 
ATOM     15  C   UNL     1      32.769  -4.634 -26.547  0.00  0.00    +0.020 C 
ATOM     16  C   UNL     1      31.035  -3.337 -24.788  0.00  0.00    +0.052 C 
ATOM     17  C   UNL     1      31.947  -3.606 -27.009  0.00  0.00    +0.071 C 
ATOM     18  C   UNL     1      31.080  -2.958 -26.129  0.00  0.00    +0.055 C 
BRANCH  18  19
ATOM     19  N   UNL     1      30.235  -1.912 -26.567  0.00  0.00    -0.356 N 
ATOM     20  H   UNL     1      29.270  -1.946 -26.378  0.00  0.00    +0.142 HD
ATOM     21  H   UNL     1      30.613  -1.148 -27.061  0.00  0.00    +0.142 HD
ENDBRANCH  18  19
BRANCH  14  22
ATOM     22  O   UNL     1      31.798  -4.723 -23.012  0.00  0.00    -0.471 OA
ATOM     23  C   UNL     1      30.501  -4.824 -22.426  0.00  0.00    +0.252 C 
ENDBRANCH  14  22
ENDBRANCH  10  13
ENDBRANCH   2   9
BRANCH   3  24
ATOM     24  O   UNL     1      33.417  -6.974 -20.787  0.00  0.00    -0.354 OA
ATOM     25  C   UNL     1      32.271  -6.962 -19.948  0.00  0.00    +0.174 C 
ENDBRANCH   3  24
BRANCH   1  26
ATOM     26  C   UNL     1      30.839 -10.753 -22.304  0.00  0.00    -0.073 C 
BRANCH  26  27
ATOM     27  C   UNL     1      30.698 -11.508 -20.986  0.00  0.00    +0.025 C 
BRANCH  27  28
ATOM     28  C   UNL     1      31.840 -12.494 -20.783  0.00  0.00    +0.203 C 
BRANCH  28  29
ATOM     29  O   UNL     1      32.200 -13.048 -22.041  0.00  0.00    -0.476 OA
BRANCH  29  31
ATOM     30  F   UNL     1      35.709 -17.283 -21.977  0.00  0.00    -0.204 F 
ATOM     31  C   UNL     1      33.075 -14.102 -22.025  0.00  0.00    +0.139 C 
ATOM     32  C   UNL     1      33.572 -14.615 -23.224  0.00  0.00    +0.039 C 
ATOM     33  C   UNL     1      33.468 -14.665 -20.810  0.00  0.00    +0.039 C 
ATOM     34  C   UNL     1      34.462 -15.689 -23.208  0.00  0.00    +0.033 C 
ATOM     35  C   UNL     1      34.358 -15.739 -20.794  0.00  0.00    +0.033 C 
ATOM     36  C   UNL     1      34.855 -16.250 -21.993  0.00  0.00    +0.140 C 
ENDBRANCH  29  31
ENDBRANCH  28  29
ENDBRANCH  27  28
ENDBRANCH  26  27
ENDBRANCH   1  26
TORSDOF 10
ENDMDL
MODEL 7
REMARK VINA RESULT:      -7.8      7.690     13.023
REMARK  Name = 6917698
REMARK  10 active torsions:
REMARK  status: ('A' for Active; 'I' for Inactive)
REMARK    1  A    between atoms: N_1  and  C_26
REMARK    2  A    between atoms: C_2  and  N_9
REMARK    3  A    between atoms: C_3  and  O_24
REMARK    4  A    between atoms: C_10  and  C_13
REMARK    5  A    between atoms: C_14  and  O_22
REMARK    6  A    between atoms: C_18  and  N_19
REMARK    7  A    between atoms: C_26  and  C_27
REMARK    8  A    between atoms: C_27  and  C_28
REMARK    9  A    between atoms: C_28  and  O_29
REMARK   10  A    between atoms: O_29  and  C_31
REMARK                            x       y       z     vdW  Elec       q    Type
REMARK                         _______ _______ _______ _____ _____    ______ ____
ROOT
ATOM      1  N   UNL     1      35.135 -17.598 -21.073  0.00  0.00    +0.389 N 
ATOM      2  C   UNL     1      35.127 -20.540 -21.019  0.00  0.00    +0.095 C 
ATOM      3  C   UNL     1      33.967 -19.712 -21.586  0.00  0.00    +0.112 C 
ATOM      4  C   UNL     1      36.420 -19.725 -21.082  0.00  0.00    -0.001 C 
ATOM      5  C   UNL     1      33.873 -18.333 -20.927  0.00  0.00    -0.045 C 
ATOM      6  C   UNL     1      36.258 -18.329 -20.467  0.00  0.00    -0.075 C 
ATOM      7  H   UNL     1      35.328 -17.507 -22.070  0.00  0.00    -0.080 HD
ENDROOT
BRANCH   2   9
ATOM      8  O   UNL     1      34.596 -23.231 -20.172  0.00  0.00    -0.270 OA
ATOM      9  N   UNL     1      34.858 -20.983 -19.668  0.00  0.00    -0.300 N 
ATOM     10  C   UNL     1      34.612 -22.312 -19.359  0.00  0.00    +0.249 C 
ATOM     11  H   UNL     1      34.849 -20.318 -18.943  0.00  0.00    +0.150 HD
BRANCH  10  13
ATOM     12 CL   UNL     1      31.101 -23.531 -15.771  0.00  0.00    -0.081 Cl
ATOM     13  C   UNL     1      34.328 -22.600 -17.930  0.00  0.00    +0.088 C 
ATOM     14  C   UNL     1      35.347 -22.576 -16.978  0.00  0.00    +0.144 C 
ATOM     15  C   UNL     1      33.021 -22.897 -17.544  0.00  0.00    +0.020 C 
ATOM     16  C   UNL     1      35.060 -22.849 -15.641  0.00  0.00    +0.052 C 
ATOM     17  C   UNL     1      32.733 -23.170 -16.207  0.00  0.00    +0.071 C 
ATOM     18  C   UNL     1      33.753 -23.147 -15.256  0.00  0.00    +0.055 C 
BRANCH  18  19
ATOM     19  N   UNL     1      33.492 -23.419 -13.893  0.00  0.00    -0.356 N 
ATOM     20  H   UNL     1      34.020 -22.973 -13.192  0.00  0.00    +0.142 HD
ATOM     21  H   UNL     1      32.782 -24.054 -13.645  0.00  0.00    +0.142 HD
ENDBRANCH  18  19
BRANCH  14  22
ATOM     22  O   UNL     1      36.631 -22.289 -17.336  0.00  0.00    -0.471 OA
ATOM     23  C   UNL     1      37.558 -22.047 -16.279  0.00  0.00    +0.252 C 
ENDBRANCH  14  22
ENDBRANCH  10  13
ENDBRANCH   2   9
BRANCH   3  24
ATOM     24  O   UNL     1      32.730 -20.396 -21.425  0.00  0.00    -0.354 OA
ATOM     25  C   UNL     1      31.997 -19.894 -20.317  0.00  0.00    +0.174 C 
ENDBRANCH   3  24
BRANCH   1  26
ATOM     26  C   UNL     1      35.022 -16.260 -20.492  0.00  0.00    -0.073 C 
BRANCH  26  27
ATOM     27  C   UNL     1      33.583 -15.765 -20.584  0.00  0.00    +0.025 C 
BRANCH  27  28
ATOM     28  C   UNL     1      33.448 -14.624 -21.583  0.00  0.00    +0.203 C 
BRANCH  28  29
ATOM     29  O   UNL     1      34.355 -14.841 -22.655  0.00  0.00    -0.476 OA
BRANCH  29  31
ATOM     30  F   UNL     1      32.762 -13.144 -27.639  0.00  0.00    -0.204 F 
ATOM     31  C   UNL     1      33.957 -14.418 -23.897  0.00  0.00    +0.139 C 
ATOM     32  C   UNL     1      33.640 -15.352 -24.883  0.00  0.00    +0.039 C 
ATOM     33  C   UNL     1      33.871 -13.053 -24.175  0.00  0.00    +0.039 C 
ATOM     34  C   UNL     1      33.236 -14.922 -26.147  0.00  0.00    +0.033 C 
ATOM     35  C   UNL     1      33.467 -12.623 -25.439  0.00  0.00    +0.033 C 
ATOM     36  C   UNL     1      33.149 -13.558 -26.425  0.00  0.00    +0.140 C 
ENDBRANCH  29  31
ENDBRANCH  28  29
ENDBRANCH  27  28
ENDBRANCH  26  27
ENDBRANCH   1  26
TORSDOF 10
ENDMDL
MODEL 8
REMARK VINA RESULT:      -7.7      5.384     10.661
REMARK  Name = 6917698
REMARK  10 active torsions:
REMARK  status: ('A' for Active; 'I' for Inactive)
REMARK    1  A    between atoms: N_1  and  C_26
REMARK    2  A    between atoms: C_2  and  N_9
REMARK    3  A    between atoms: C_3  and  O_24
REMARK    4  A    between atoms: C_10  and  C_13
REMARK    5  A    between atoms: C_14  and  O_22
REMARK    6  A    between atoms: C_18  and  N_19
REMARK    7  A    between atoms: C_26  and  C_27
REMARK    8  A    between atoms: C_27  and  C_28
REMARK    9  A    between atoms: C_28  and  O_29
REMARK   10  A    between atoms: O_29  and  C_31
REMARK                            x       y       z     vdW  Elec       q    Type
REMARK                         _______ _______ _______ _____ _____    ______ ____
ROOT
ATOM      1  N   UNL     1      32.866 -13.395 -22.097  0.00  0.00    +0.389 N 
ATOM      2  C   UNL     1      35.002 -15.412 -22.276  0.00  0.00    +0.095 C 
ATOM      3  C   UNL     1      34.097 -15.045 -23.459  0.00  0.00    +0.112 C 
ATOM      4  C   UNL     1      35.059 -14.242 -21.292  0.00  0.00    -0.001 C 
ATOM      5  C   UNL     1      32.725 -14.545 -22.999  0.00  0.00    -0.045 C 
ATOM      6  C   UNL     1      33.662 -13.735 -20.909  0.00  0.00    -0.075 C 
ATOM      7  H   UNL     1      33.363 -12.663 -22.603  0.00  0.00    -0.080 HD
ENDROOT
BRANCH   2   9
ATOM      8  O   UNL     1      36.242 -17.995 -22.431  0.00  0.00    -0.270 OA
ATOM      9  N   UNL     1      34.560 -16.622 -21.619  0.00  0.00    -0.300 N 
ATOM     10  C   UNL     1      35.230 -17.827 -21.757  0.00  0.00    +0.249 C 
ATOM     11  H   UNL     1      33.755 -16.589 -21.054  0.00  0.00    +0.150 HD
BRANCH  10  13
ATOM     12 CL   UNL     1      36.017 -22.172 -19.076  0.00  0.00    -0.081 Cl
ATOM     13  C   UNL     1      34.634 -18.983 -21.040  0.00  0.00    +0.088 C 
ATOM     14  C   UNL     1      33.250 -19.130 -20.944  0.00  0.00    +0.144 C 
ATOM     15  C   UNL     1      35.478 -19.930 -20.458  0.00  0.00    +0.020 C 
ATOM     16  C   UNL     1      32.710 -20.222 -20.266  0.00  0.00    +0.052 C 
ATOM     17  C   UNL     1      34.937 -21.022 -19.780  0.00  0.00    +0.071 C 
ATOM     18  C   UNL     1      33.554 -21.168 -19.683  0.00  0.00    +0.055 C 
BRANCH  18  19
ATOM     19  N   UNL     1      32.976 -22.265 -19.003  0.00  0.00    -0.356 N 
ATOM     20  H   UNL     1      33.134 -23.182 -19.323  0.00  0.00    +0.142 HD
ATOM     21  H   UNL     1      32.416 -22.111 -18.208  0.00  0.00    +0.142 HD
ENDBRANCH  18  19
BRANCH  14  22
ATOM     22  O   UNL     1      32.410 -18.215 -21.505  0.00  0.00    -0.471 OA
ATOM     23  C   UNL     1      31.764 -17.301 -20.620  0.00  0.00    +0.252 C 
ENDBRANCH  14  22
ENDBRANCH  10  13
ENDBRANCH   2   9
BRANCH   3  24
ATOM     24  O   UNL     1      33.925 -16.158 -24.329  0.00  0.00    -0.354 OA
ATOM     25  C   UNL     1      33.607 -15.743 -25.649  0.00  0.00    +0.174 C 
ENDBRANCH   3  24
BRANCH   1  26
ATOM     26  C   UNL     1      31.551 -12.887 -21.704  0.00  0.00    -0.073 C 
BRANCH  26  27
ATOM     27  C   UNL     1      31.692 -11.885 -20.563  0.00  0.00    +0.025 C 
BRANCH  27  28
ATOM     28  C   UNL     1      31.501 -10.455 -21.048  0.00  0.00    +0.203 C 
BRANCH  28  29
ATOM     29  O   UNL     1      31.765 -10.403 -22.443  0.00  0.00    -0.476 OA
BRANCH  29  31
ATOM     30  F   UNL     1      35.374  -6.617 -24.147  0.00  0.00    -0.204 F 
ATOM     31  C   UNL     1      32.665  -9.460 -22.867  0.00  0.00    +0.139 C 
ATOM     32  C   UNL     1      32.521  -8.130 -22.469  0.00  0.00    +0.039 C 
ATOM     33  C   UNL     1      33.724  -9.829 -23.698  0.00  0.00    +0.039 C 
ATOM     34  C   UNL     1      33.436  -7.170 -22.901  0.00  0.00    +0.033 C 
ATOM     35  C   UNL     1      34.639  -8.868 -24.130  0.00  0.00    +0.033 C 
ATOM     36  C   UNL     1      34.495  -7.539 -23.731  0.00  0.00    +0.140 C 
ENDBRANCH  29  31
ENDBRANCH  28  29
ENDBRANCH  27  28
ENDBRANCH  26  27
ENDBRANCH   1  26
TORSDOF 10
ENDMDL
MODEL 9
REMARK VINA RESULT:      -7.6      6.668     12.028
REMARK  Name = 6917698
REMARK  10 active torsions:
REMARK  status: ('A' for Active; 'I' for Inactive)
REMARK    1  A    between atoms: N_1  and  C_26
REMARK    2  A    between atoms: C_2  and  N_9
REMARK    3  A    between atoms: C_3  and  O_24
REMARK    4  A    between atoms: C_10  and  C_13
REMARK    5  A    between atoms: C_14  and  O_22
REMARK    6  A    between atoms: C_18  and  N_19
REMARK    7  A    between atoms: C_26  and  C_27
REMARK    8  A    between atoms: C_27  and  C_28
REMARK    9  A    between atoms: C_28  and  O_29
REMARK   10  A    between atoms: O_29  and  C_31
REMARK                            x       y       z     vdW  Elec       q    Type
REMARK                         _______ _______ _______ _____ _____    ______ ____
ROOT
ATOM      1  N   UNL     1      33.530 -16.203 -21.466  0.00  0.00    +0.389 N 
ATOM      2  C   UNL     1      35.668 -18.224 -21.519  0.00  0.00    +0.095 C 
ATOM      3  C   UNL     1      34.537 -18.176 -22.554  0.00  0.00    +0.112 C 
ATOM      4  C   UNL     1      35.869 -16.834 -20.913  0.00  0.00    -0.001 C 
ATOM      5  C   UNL     1      33.262 -17.551 -21.982  0.00  0.00    -0.045 C 
ATOM      6  C   UNL     1      34.553 -16.222 -20.411  0.00  0.00    -0.075 C 
ATOM      7  H   UNL     1      33.890 -15.641 -22.237  0.00  0.00    -0.080 HD
ENDROOT
BRANCH   2   9
ATOM      8  O   UNL     1      37.438 -20.315 -20.663  0.00  0.00    -0.270 OA
ATOM      9  N   UNL     1      35.409 -19.206 -20.489  0.00  0.00    -0.300 N 
ATOM     10  C   UNL     1      36.333 -20.181 -20.147  0.00  0.00    +0.249 C 
ATOM     11  H   UNL     1      34.547 -19.182 -20.015  0.00  0.00    +0.150 HD
BRANCH  10  13
ATOM     12 CL   UNL     1      37.502 -22.619 -15.744  0.00  0.00    -0.081 Cl
ATOM     13  C   UNL     1      35.906 -21.132 -19.088  0.00  0.00    +0.088 C 
ATOM     14  C   UNL     1      34.653 -21.743 -19.138  0.00  0.00    +0.144 C 
ATOM     15  C   UNL     1      36.776 -21.410 -18.034  0.00  0.00    +0.020 C 
ATOM     16  C   UNL     1      34.270 -22.633 -18.134  0.00  0.00    +0.052 C 
ATOM     17  C   UNL     1      36.393 -22.300 -17.030  0.00  0.00    +0.071 C 
ATOM     18  C   UNL     1      35.140 -22.910 -17.080  0.00  0.00    +0.055 C 
BRANCH  18  19
ATOM     19  N   UNL     1      34.724 -23.817 -16.078  0.00  0.00    -0.356 N 
ATOM     20  H   UNL     1      34.011 -24.468 -16.268  0.00  0.00    +0.142 HD
ATOM     21  H   UNL     1      35.149 -23.797 -15.190  0.00  0.00    +0.142 HD
ENDBRANCH  18  19
BRANCH  14  22
ATOM     22  O   UNL     1      33.789 -21.483 -20.159  0.00  0.00    -0.471 OA
ATOM     23  C   UNL     1      32.666 -20.654 -19.862  0.00  0.00    +0.252 C 
ENDBRANCH  14  22
ENDBRANCH  10  13
ENDBRANCH   2   9
BRANCH   3  24
ATOM     24  O   UNL     1      34.244 -19.480 -23.044  0.00  0.00    -0.354 OA
ATOM     25  C   UNL     1      34.847 -19.708 -24.309  0.00  0.00    +0.174 C 
ENDBRANCH   3  24
BRANCH   1  26
ATOM     26  C   UNL     1      32.297 -15.588 -20.972  0.00  0.00    -0.073 C 
BRANCH  26  27
ATOM     27  C   UNL     1      32.554 -14.140 -20.570  0.00  0.00    +0.025 C 
BRANCH  27  28
ATOM     28  C   UNL     1      32.501 -13.208 -21.773  0.00  0.00    +0.203 C 
BRANCH  28  29
ATOM     29  O   UNL     1      33.695 -13.362 -22.527  0.00  0.00    -0.476 OA
BRANCH  29  31
ATOM     30  F   UNL     1      33.212 -13.149 -28.002  0.00  0.00    -0.204 F 
ATOM     31  C   UNL     1      33.576 -13.309 -23.892  0.00  0.00    +0.139 C 
ATOM     32  C   UNL     1      33.843 -12.119 -24.570  0.00  0.00    +0.039 C 
ATOM     33  C   UNL     1      33.185 -14.445 -24.603  0.00  0.00    +0.039 C 
ATOM     34  C   UNL     1      33.720 -12.065 -25.958  0.00  0.00    +0.033 C 
ATOM     35  C   UNL     1      33.063 -14.390 -25.991  0.00  0.00    +0.033 C 
ATOM     36  C   UNL     1      33.331 -13.200 -26.668  0.00  0.00    +0.140 C 
ENDBRANCH  29  31
ENDBRANCH  28  29
ENDBRANCH  27  28
ENDBRANCH  26  27
ENDBRANCH   1  26
TORSDOF 10
ENDMDL
