MODEL 1
REMARK VINA RESULT:      -8.8      0.000      0.000
REMARK  Name = 9576891
REMARK  7 active torsions:
REMARK  status: ('A' for Active; 'I' for Inactive)
REMARK    1  A    between atoms: C_1  and  O_2
REMARK    2  A    between atoms: C_1  and  C_4
REMARK    3  A    between atoms: C_1  and  C_12
REMARK    4  A    between atoms: C_4  and  N_5
REMARK    5  A    between atoms: C_12  and  O_13
REMARK    6  A    between atoms: O_13  and  N_15
REMARK    7  A    between atoms: C_16  and  C_18
REMARK                            x       y       z     vdW  Elec       q    Type
REMARK                         _______ _______ _______ _____ _____    ______ ____
ROOT
ATOM      1  C   UNL     1      34.360 -16.979 -24.684  0.00  0.00    +0.136 C 
ENDROOT
BRANCH   1   2
ATOM      2  O   UNL     1      34.982 -16.665 -25.933  0.00  0.00    -0.383 OA
ATOM      3  H   UNL     1      35.894 -16.995 -25.932  0.00  0.00    +0.210 HD
ENDBRANCH   1   2
BRANCH   1   4
ATOM      4  C   UNL     1      34.882 -15.999 -23.631  0.00  0.00    -0.044 C 
BRANCH   4   5
ATOM      5  N   UNL     1      33.811 -15.495 -22.770  0.00  0.00    +0.389 N 
ATOM      6  C   UNL     1      33.465 -14.114 -23.136  0.00  0.00    -0.077 C 
ATOM      7  C   UNL     1      34.202 -15.587 -21.357  0.00  0.00    -0.077 C 
ATOM      8  C   UNL     1      32.312 -13.589 -22.278  0.00  0.00    -0.023 C 
ATOM      9  C   UNL     1      33.075 -15.109 -20.440  0.00  0.00    -0.023 C 
ATOM     10  C   UNL     1      32.636 -13.693 -20.793  0.00  0.00    -0.004 C 
ATOM     11  H   UNL     1      32.983 -16.073 -22.906  0.00  0.00    -0.080 HD
ENDBRANCH   4   5
ENDBRANCH   1   4
BRANCH   1  12
ATOM     12  C   UNL     1      34.651 -18.439 -24.349  0.00  0.00    +0.265 C 
BRANCH  12  13
ATOM     13  O   UNL     1      35.334 -18.498 -23.101  0.00  0.00    -0.374 OA
BRANCH  13  15
ATOM     14 CL   UNL     1      36.903 -19.026 -20.931  0.00  0.00    -0.058 Cl
ATOM     15  N   UNL     1      34.653 -19.404 -22.280  0.00  0.00    -0.071 NA
ATOM     16  C   UNL     1      35.329 -19.717 -21.214  0.00  0.00    +0.178 C 
BRANCH  16  18
ATOM     17  N   UNL     1      32.759 -21.599 -19.262  0.00  0.00    -0.242 NA
ATOM     18  C   UNL     1      34.725 -20.680 -20.240  0.00  0.00    +0.051 C 
ATOM     19  C   UNL     1      35.543 -21.473 -19.483  0.00  0.00    +0.006 C 
ATOM     20  C   UNL     1      33.368 -20.752 -20.122  0.00  0.00    +0.101 C 
ATOM     21  C   UNL     1      34.953 -22.359 -18.587  0.00  0.00    +0.021 C 
ATOM     22  C   UNL     1      33.570 -22.382 -18.515  0.00  0.00    +0.099 C 
ENDBRANCH  16  18
ENDBRANCH  13  15
ENDBRANCH  12  13
ENDBRANCH   1  12
TORSDOF 7
ENDMDL
MODEL 2
REMARK VINA RESULT:      -8.4      2.302      3.141
REMARK  Name = 9576891
REMARK  7 active torsions:
REMARK  status: ('A' for Active; 'I' for Inactive)
REMARK    1  A    between atoms: C_1  and  O_2
REMARK    2  A    between atoms: C_1  and  C_4
REMARK    3  A    between atoms: C_1  and  C_12
REMARK    4  A    between atoms: C_4  and  N_5
REMARK    5  A    between atoms: C_12  and  O_13
REMARK    6  A    between atoms: O_13  and  N_15
REMARK    7  A    between atoms: C_16  and  C_18
REMARK                            x       y       z     vdW  Elec       q    Type
REMARK                         _______ _______ _______ _____ _____    ______ ____
ROOT
ATOM      1  C   UNL     1      32.911 -14.730 -21.137  0.00  0.00    +0.136 C 
ENDROOT
BRANCH   1   2
ATOM      2  O   UNL     1      31.976 -15.805 -21.002  0.00  0.00    -0.383 OA
ATOM      3  H   UNL     1      31.234 -15.667 -21.611  0.00  0.00    +0.210 HD
ENDBRANCH   1   2
BRANCH   1   4
ATOM      4  C   UNL     1      32.483 -13.873 -22.331  0.00  0.00    -0.044 C 
BRANCH   4   5
ATOM      5  N   UNL     1      31.801 -12.649 -21.912  0.00  0.00    +0.389 N 
ATOM      6  C   UNL     1      32.311 -11.493 -22.664  0.00  0.00    -0.077 C 
ATOM      7  C   UNL     1      31.951 -12.447 -20.464  0.00  0.00    -0.077 C 
ATOM      8  C   UNL     1      31.573 -10.211 -22.273  0.00  0.00    -0.023 C 
ATOM      9  C   UNL     1      31.204 -11.196 -20.000  0.00  0.00    -0.023 C 
ATOM     10  C   UNL     1      31.655  -9.961 -20.772  0.00  0.00    -0.004 C 
ATOM     11  H   UNL     1      30.807 -12.742 -22.114  0.00  0.00    -0.080 HD
ENDBRANCH   4   5
ENDBRANCH   1   4
BRANCH   1  12
ATOM     12  C   UNL     1      34.311 -15.319 -21.286  0.00  0.00    +0.265 C 
BRANCH  12  13
ATOM     13  O   UNL     1      34.222 -16.539 -22.015  0.00  0.00    -0.374 OA
BRANCH  13  15
ATOM     14 CL   UNL     1      34.682 -18.880 -23.340  0.00  0.00    -0.058 Cl
ATOM     15  N   UNL     1      34.132 -17.587 -21.093  0.00  0.00    -0.071 NA
ATOM     16  C   UNL     1      34.338 -18.751 -21.637  0.00  0.00    +0.178 C 
BRANCH  16  18
ATOM     17  N   UNL     1      32.928 -21.563 -19.622  0.00  0.00    -0.242 NA
ATOM     18  C   UNL     1      34.272 -19.969 -20.770  0.00  0.00    +0.051 C 
ATOM     19  C   UNL     1      35.433 -20.562 -20.356  0.00  0.00    +0.006 C 
ATOM     20  C   UNL     1      33.057 -20.467 -20.404  0.00  0.00    +0.101 C 
ATOM     21  C   UNL     1      35.341 -21.693 -19.551  0.00  0.00    +0.021 C 
ATOM     22  C   UNL     1      34.077 -22.148 -19.215  0.00  0.00    +0.099 C 
ENDBRANCH  16  18
ENDBRANCH  13  15
ENDBRANCH  12  13
ENDBRANCH   1  12
TORSDOF 7
ENDMDL
MODEL 3
REMARK VINA RESULT:      -8.4      2.289      3.227
REMARK  Name = 9576891
REMARK  7 active torsions:
REMARK  status: ('A' for Active; 'I' for Inactive)
REMARK    1  A    between atoms: C_1  and  O_2
REMARK    2  A    between atoms: C_1  and  C_4
REMARK    3  A    between atoms: C_1  and  C_12
REMARK    4  A    between atoms: C_4  and  N_5
REMARK    5  A    between atoms: C_12  and  O_13
REMARK    6  A    between atoms: O_13  and  N_15
REMARK    7  A    between atoms: C_16  and  C_18
REMARK                            x       y       z     vdW  Elec       q    Type
REMARK                         _______ _______ _______ _____ _____    ______ ____
ROOT
ATOM      1  C   UNL     1      33.655 -14.679 -21.948  0.00  0.00    +0.136 C 
ENDROOT
BRANCH   1   2
ATOM      2  O   UNL     1      32.368 -14.725 -21.326  0.00  0.00    -0.383 OA
ATOM      3  H   UNL     1      32.267 -13.962 -20.735  0.00  0.00    +0.210 HD
ENDBRANCH   1   2
BRANCH   1   4
ATOM      4  C   UNL     1      33.529 -15.277 -23.351  0.00  0.00    -0.044 C 
BRANCH   4   5
ATOM      5  N   UNL     1      33.168 -14.268 -24.348  0.00  0.00    +0.389 N 
ATOM      6  C   UNL     1      33.333 -14.805 -25.706  0.00  0.00    -0.077 C 
ATOM      7  C   UNL     1      33.967 -13.049 -24.158  0.00  0.00    -0.077 C 
ATOM      8  C   UNL     1      32.912 -13.779 -26.760  0.00  0.00    -0.023 C 
ATOM      9  C   UNL     1      33.569 -11.966 -25.161  0.00  0.00    -0.023 C 
ATOM     10  C   UNL     1      33.677 -12.471 -26.595  0.00  0.00    -0.004 C 
ATOM     11  H   UNL     1      32.186 -14.022 -24.224  0.00  0.00    -0.080 HD
ENDBRANCH   4   5
ENDBRANCH   1   4
BRANCH   1  12
ATOM     12  C   UNL     1      34.651 -15.422 -21.061  0.00  0.00    +0.265 C 
BRANCH  12  13
ATOM     13  O   UNL     1      35.052 -16.619 -21.721  0.00  0.00    -0.374 OA
BRANCH  13  15
ATOM     14 CL   UNL     1      34.624 -18.875 -23.195  0.00  0.00    -0.058 Cl
ATOM     15  N   UNL     1      34.852 -17.685 -20.838  0.00  0.00    -0.071 NA
ATOM     16  C   UNL     1      34.638 -18.810 -21.454  0.00  0.00    +0.178 C 
BRANCH  16  18
ATOM     17  N   UNL     1      32.852 -21.554 -19.654  0.00  0.00    -0.242 NA
ATOM     18  C   UNL     1      34.406 -20.042 -20.636  0.00  0.00    +0.051 C 
ATOM     19  C   UNL     1      35.478 -20.737 -20.149  0.00  0.00    +0.006 C 
ATOM     20  C   UNL     1      33.130 -20.451 -20.386  0.00  0.00    +0.101 C 
ATOM     21  C   UNL     1      35.233 -21.878 -19.392  0.00  0.00    +0.021 C 
ATOM     22  C   UNL     1      33.913 -22.239 -19.175  0.00  0.00    +0.099 C 
ENDBRANCH  16  18
ENDBRANCH  13  15
ENDBRANCH  12  13
ENDBRANCH   1  12
TORSDOF 7
ENDMDL
MODEL 4
REMARK VINA RESULT:      -8.3      2.667      7.742
REMARK  Name = 9576891
REMARK  7 active torsions:
REMARK  status: ('A' for Active; 'I' for Inactive)
REMARK    1  A    between atoms: C_1  and  O_2
REMARK    2  A    between atoms: C_1  and  C_4
REMARK    3  A    between atoms: C_1  and  C_12
REMARK    4  A    between atoms: C_4  and  N_5
REMARK    5  A    between atoms: C_12  and  O_13
REMARK    6  A    between atoms: O_13  and  N_15
REMARK    7  A    between atoms: C_16  and  C_18
REMARK                            x       y       z     vdW  Elec       q    Type
REMARK                         _______ _______ _______ _____ _____    ______ ____
ROOT
ATOM      1  C   UNL     1      35.018 -17.515 -21.674  0.00  0.00    +0.136 C 
ENDROOT
BRANCH   1   2
ATOM      2  O   UNL     1      35.150 -16.500 -20.676  0.00  0.00    -0.383 OA
ATOM      3  H   UNL     1      34.875 -16.854 -19.816  0.00  0.00    +0.210 HD
ENDBRANCH   1   2
BRANCH   1   4
ATOM      4  C   UNL     1      35.918 -18.689 -21.283  0.00  0.00    -0.044 C 
BRANCH   4   5
ATOM      5  N   UNL     1      35.266 -19.587 -20.329  0.00  0.00    +0.389 N 
ATOM      6  C   UNL     1      36.077 -20.795 -20.123  0.00  0.00    -0.077 C 
ATOM      7  C   UNL     1      33.913 -19.929 -20.788  0.00  0.00    -0.077 C 
ATOM      8  C   UNL     1      35.434 -21.723 -19.090  0.00  0.00    -0.023 C 
ATOM      9  C   UNL     1      33.198 -20.829 -19.779  0.00  0.00    -0.023 C 
ATOM     10  C   UNL     1      34.008 -22.087 -19.486  0.00  0.00    -0.004 C 
ATOM     11  H   UNL     1      35.183 -19.108 -19.433  0.00  0.00    -0.080 HD
ENDBRANCH   4   5
ENDBRANCH   1   4
BRANCH   1  12
ATOM     12  C   UNL     1      35.367 -16.911 -23.032  0.00  0.00    +0.265 C 
BRANCH  12  13
ATOM     13  O   UNL     1      34.177 -16.411 -23.634  0.00  0.00    -0.374 OA
BRANCH  13  15
ATOM     14 CL   UNL     1      33.125 -14.963 -25.694  0.00  0.00    -0.058 Cl
ATOM     15  N   UNL     1      33.989 -15.098 -23.192  0.00  0.00    -0.071 NA
ATOM     16  C   UNL     1      33.488 -14.327 -24.113  0.00  0.00    +0.178 C 
BRANCH  16  18
ATOM     17  N   UNL     1      32.099 -11.299 -22.423  0.00  0.00    -0.242 NA
ATOM     18  C   UNL     1      33.233 -12.890 -23.782  0.00  0.00    +0.051 C 
ATOM     19  C   UNL     1      33.865 -11.913 -24.501  0.00  0.00    +0.006 C 
ATOM     20  C   UNL     1      32.374 -12.576 -22.771  0.00  0.00    +0.101 C 
ATOM     21  C   UNL     1      33.609 -10.586 -24.172  0.00  0.00    +0.021 C 
ATOM     22  C   UNL     1      32.726 -10.335 -23.134  0.00  0.00    +0.099 C 
ENDBRANCH  16  18
ENDBRANCH  13  15
ENDBRANCH  12  13
ENDBRANCH   1  12
TORSDOF 7
ENDMDL
MODEL 5
REMARK VINA RESULT:      -8.2      2.538      7.601
REMARK  Name = 9576891
REMARK  7 active torsions:
REMARK  status: ('A' for Active; 'I' for Inactive)
REMARK    1  A    between atoms: C_1  and  O_2
REMARK    2  A    between atoms: C_1  and  C_4
REMARK    3  A    between atoms: C_1  and  C_12
REMARK    4  A    between atoms: C_4  and  N_5
REMARK    5  A    between atoms: C_12  and  O_13
REMARK    6  A    between atoms: O_13  and  N_15
REMARK    7  A    between atoms: C_16  and  C_18
REMARK                            x       y       z     vdW  Elec       q    Type
REMARK                         _______ _______ _______ _____ _____    ______ ____
ROOT
ATOM      1  C   UNL     1      35.461 -17.740 -21.540  0.00  0.00    +0.136 C 
ENDROOT
BRANCH   1   2
ATOM      2  O   UNL     1      35.992 -17.494 -22.845  0.00  0.00    -0.383 OA
ATOM      3  H   UNL     1      35.319 -17.699 -23.512  0.00  0.00    +0.210 HD
ENDBRANCH   1   2
BRANCH   1   4
ATOM      4  C   UNL     1      34.430 -18.866 -21.649  0.00  0.00    -0.044 C 
BRANCH   4   5
ATOM      5  N   UNL     1      34.453 -19.747 -20.481  0.00  0.00    +0.389 N 
ATOM      6  C   UNL     1      35.679 -20.556 -20.472  0.00  0.00    -0.077 C 
ATOM      7  C   UNL     1      33.255 -20.598 -20.455  0.00  0.00    -0.077 C 
ATOM      8  C   UNL     1      35.743 -21.448 -19.230  0.00  0.00    -0.023 C 
ATOM      9  C   UNL     1      33.239 -21.491 -19.215  0.00  0.00    -0.023 C 
ATOM     10  C   UNL     1      34.507 -22.332 -19.120  0.00  0.00    -0.004 C 
ATOM     11  H   UNL     1      34.449 -19.173 -19.638  0.00  0.00    -0.080 HD
ENDBRANCH   4   5
ENDBRANCH   1   4
BRANCH   1  12
ATOM     12  C   UNL     1      34.879 -16.437 -20.998  0.00  0.00    +0.265 C 
BRANCH  12  13
ATOM     13  O   UNL     1      33.601 -16.222 -21.590  0.00  0.00    -0.374 OA
BRANCH  13  15
ATOM     14 CL   UNL     1      32.345 -13.799 -21.572  0.00  0.00    -0.058 Cl
ATOM     15  N   UNL     1      33.800 -15.619 -22.836  0.00  0.00    -0.071 NA
ATOM     16  C   UNL     1      33.232 -14.451 -22.922  0.00  0.00    +0.178 C 
BRANCH  16  18
ATOM     17  N   UNL     1      33.161 -13.663 -26.573  0.00  0.00    -0.242 NA
ATOM     18  C   UNL     1      33.361 -13.685 -24.202  0.00  0.00    +0.051 C 
ATOM     19  C   UNL     1      33.773 -12.382 -24.166  0.00  0.00    +0.006 C 
ATOM     20  C   UNL     1      33.065 -14.298 -25.383  0.00  0.00    +0.101 C 
ATOM     21  C   UNL     1      33.883 -11.695 -25.371  0.00  0.00    +0.021 C 
ATOM     22  C   UNL     1      33.568 -12.375 -26.535  0.00  0.00    +0.099 C 
ENDBRANCH  16  18
ENDBRANCH  13  15
ENDBRANCH  12  13
ENDBRANCH   1  12
TORSDOF 7
ENDMDL
MODEL 6
REMARK VINA RESULT:      -8.2      2.726      7.506
REMARK  Name = 9576891
REMARK  7 active torsions:
REMARK  status: ('A' for Active; 'I' for Inactive)
REMARK    1  A    between atoms: C_1  and  O_2
REMARK    2  A    between atoms: C_1  and  C_4
REMARK    3  A    between atoms: C_1  and  C_12
REMARK    4  A    between atoms: C_4  and  N_5
REMARK    5  A    between atoms: C_12  and  O_13
REMARK    6  A    between atoms: O_13  and  N_15
REMARK    7  A    between atoms: C_16  and  C_18
REMARK                            x       y       z     vdW  Elec       q    Type
REMARK                         _______ _______ _______ _____ _____    ______ ____
ROOT
ATOM      1  C   UNL     1      34.722 -17.067 -21.539  0.00  0.00    +0.136 C 
ENDROOT
BRANCH   1   2
ATOM      2  O   UNL     1      35.125 -16.343 -20.373  0.00  0.00    -0.383 OA
ATOM      3  H   UNL     1      34.768 -15.443 -20.412  0.00  0.00    +0.210 HD
ENDBRANCH   1   2
BRANCH   1   4
ATOM      4  C   UNL     1      35.489 -18.392 -21.567  0.00  0.00    -0.044 C 
BRANCH   4   5
ATOM      5  N   UNL     1      35.007 -19.327 -20.550  0.00  0.00    +0.389 N 
ATOM      6  C   UNL     1      35.950 -20.442 -20.389  0.00  0.00    -0.077 C 
ATOM      7  C   UNL     1      33.664 -19.814 -20.895  0.00  0.00    -0.077 C 
ATOM      8  C   UNL     1      35.486 -21.404 -19.293  0.00  0.00    -0.023 C 
ATOM      9  C   UNL     1      33.124 -20.756 -19.818  0.00  0.00    -0.023 C 
ATOM     10  C   UNL     1      34.078 -21.919 -19.569  0.00  0.00    -0.004 C 
ATOM     11  H   UNL     1      34.944 -18.837 -19.658  0.00  0.00    -0.080 HD
ENDBRANCH   4   5
ENDBRANCH   1   4
BRANCH   1  12
ATOM     12  C   UNL     1      34.977 -16.195 -22.765  0.00  0.00    +0.265 C 
BRANCH  12  13
ATOM     13  O   UNL     1      33.725 -15.767 -23.294  0.00  0.00    -0.374 OA
BRANCH  13  15
ATOM     14 CL   UNL     1      33.351 -13.374 -24.551  0.00  0.00    -0.058 Cl
ATOM     15  N   UNL     1      33.152 -14.879 -22.378  0.00  0.00    -0.071 NA
ATOM     16  C   UNL     1      32.935 -13.703 -22.891  0.00  0.00    +0.178 C 
BRANCH  16  18
ATOM     17  N   UNL     1      31.359 -10.477 -21.860  0.00  0.00    -0.242 NA
ATOM     18  C   UNL     1      32.324 -12.646 -22.025  0.00  0.00    +0.051 C 
ATOM     19  C   UNL     1      32.182 -12.875 -20.684  0.00  0.00    +0.006 C 
ATOM     20  C   UNL     1      31.917 -11.472 -22.586  0.00  0.00    +0.101 C 
ATOM     21  C   UNL     1      31.610 -11.875 -19.904  0.00  0.00    +0.021 C 
ATOM     22  C   UNL     1      31.220 -10.706 -20.535  0.00  0.00    +0.099 C 
ENDBRANCH  16  18
ENDBRANCH  13  15
ENDBRANCH  12  13
ENDBRANCH   1  12
TORSDOF 7
ENDMDL
MODEL 7
REMARK VINA RESULT:      -8.2      5.101      9.927
REMARK  Name = 9576891
REMARK  7 active torsions:
REMARK  status: ('A' for Active; 'I' for Inactive)
REMARK    1  A    between atoms: C_1  and  O_2
REMARK    2  A    between atoms: C_1  and  C_4
REMARK    3  A    between atoms: C_1  and  C_12
REMARK    4  A    between atoms: C_4  and  N_5
REMARK    5  A    between atoms: C_12  and  O_13
REMARK    6  A    between atoms: O_13  and  N_15
REMARK    7  A    between atoms: C_16  and  C_18
REMARK                            x       y       z     vdW  Elec       q    Type
REMARK                         _______ _______ _______ _____ _____    ______ ____
ROOT
ATOM      1  C   UNL     1      34.068 -23.944 -14.579  0.00  0.00    +0.136 C 
ENDROOT
BRANCH   1   2
ATOM      2  O   UNL     1      33.260 -23.426 -13.519  0.00  0.00    -0.383 OA
ATOM      3  H   UNL     1      33.520 -22.511 -13.331  0.00  0.00    +0.210 HD
ENDBRANCH   1   2
BRANCH   1   4
ATOM      4  C   UNL     1      35.482 -23.379 -14.421  0.00  0.00    -0.044 C 
BRANCH   4   5
ATOM      5  N   UNL     1      36.486 -24.436 -14.305  0.00  0.00    +0.389 N 
ATOM      6  C   UNL     1      36.636 -24.851 -12.903  0.00  0.00    -0.077 C 
ATOM      7  C   UNL     1      37.769 -23.989 -14.865  0.00  0.00    -0.077 C 
ATOM      8  C   UNL     1      37.647 -25.991 -12.769  0.00  0.00    -0.023 C 
ATOM      9  C   UNL     1      38.819 -25.099 -14.795  0.00  0.00    -0.023 C 
ATOM     10  C   UNL     1      38.995 -25.608 -13.369  0.00  0.00    -0.004 C 
ATOM     11  H   UNL     1      36.174 -25.245 -14.841  0.00  0.00    -0.080 HD
ENDBRANCH   4   5
ENDBRANCH   1   4
BRANCH   1  12
ATOM     12  C   UNL     1      33.416 -23.581 -15.910  0.00  0.00    +0.265 C 
BRANCH  12  13
ATOM     13  O   UNL     1      34.382 -23.715 -16.948  0.00  0.00    -0.374 OA
BRANCH  13  15
ATOM     14 CL   UNL     1      36.424 -22.034 -17.619  0.00  0.00    -0.058 Cl
ATOM     15  N   UNL     1      33.964 -22.931 -18.029  0.00  0.00    -0.071 NA
ATOM     16  C   UNL     1      34.879 -22.093 -18.421  0.00  0.00    +0.178 C 
BRANCH  16  18
ATOM     17  N   UNL     1      35.385 -19.869 -21.380  0.00  0.00    -0.242 NA
ATOM     18  C   UNL     1      34.572 -21.185 -19.571  0.00  0.00    +0.051 C 
ATOM     19  C   UNL     1      33.272 -20.863 -19.845  0.00  0.00    +0.006 C 
ATOM     20  C   UNL     1      35.594 -20.694 -20.328  0.00  0.00    +0.101 C 
ATOM     21  C   UNL     1      33.017 -20.018 -20.920  0.00  0.00    +0.021 C 
ATOM     22  C   UNL     1      34.099 -19.553 -21.648  0.00  0.00    +0.099 C 
ENDBRANCH  16  18
ENDBRANCH  13  15
ENDBRANCH  12  13
ENDBRANCH   1  12
TORSDOF 7
ENDMDL
MODEL 8
REMARK VINA RESULT:      -8.1      4.329      8.825
REMARK  Name = 9576891
REMARK  7 active torsions:
REMARK  status: ('A' for Active; 'I' for Inactive)
REMARK    1  A    between atoms: C_1  and  O_2
REMARK    2  A    between atoms: C_1  and  C_4
REMARK    3  A    between atoms: C_1  and  C_12
REMARK    4  A    between atoms: C_4  and  N_5
REMARK    5  A    between atoms: C_12  and  O_13
REMARK    6  A    between atoms: O_13  and  N_15
REMARK    7  A    between atoms: C_16  and  C_18
REMARK                            x       y       z     vdW  Elec       q    Type
REMARK                         _______ _______ _______ _____ _____    ______ ____
ROOT
ATOM      1  C   UNL     1      33.383 -15.000 -23.503  0.00  0.00    +0.136 C 
ENDROOT
BRANCH   1   2
ATOM      2  O   UNL     1      33.035 -14.312 -22.299  0.00  0.00    -0.383 OA
ATOM      3  H   UNL     1      32.496 -14.892 -21.739  0.00  0.00    +0.210 HD
ENDBRANCH   1   2
BRANCH   1   4
ATOM      4  C   UNL     1      34.901 -15.195 -23.519  0.00  0.00    -0.044 C 
BRANCH   4   5
ATOM      5  N   UNL     1      35.278 -16.588 -23.279  0.00  0.00    +0.389 N 
ATOM      6  C   UNL     1      34.597 -17.476 -24.231  0.00  0.00    -0.077 C 
ATOM      7  C   UNL     1      34.980 -16.969 -21.891  0.00  0.00    -0.077 C 
ATOM      8  C   UNL     1      35.019 -18.933 -24.026  0.00  0.00    -0.023 C 
ATOM      9  C   UNL     1      35.412 -18.408 -21.609  0.00  0.00    -0.023 C 
ATOM     10  C   UNL     1      34.772 -19.383 -22.591  0.00  0.00    -0.004 C 
ATOM     11  H   UNL     1      36.283 -16.685 -23.422  0.00  0.00    -0.080 HD
ENDBRANCH   4   5
ENDBRANCH   1   4
BRANCH   1  12
ATOM     12  C   UNL     1      32.864 -14.194 -24.691  0.00  0.00    +0.265 C 
BRANCH  12  13
ATOM     13  O   UNL     1      33.811 -13.178 -25.008  0.00  0.00    -0.374 OA
BRANCH  13  15
ATOM     14 CL   UNL     1      35.057 -11.005 -26.092  0.00  0.00    -0.058 Cl
ATOM     15  N   UNL     1      33.545 -12.072 -24.194  0.00  0.00    -0.071 NA
ATOM     16  C   UNL     1      34.102 -10.982 -24.635  0.00  0.00    +0.178 C 
BRANCH  16  18
ATOM     17  N   UNL     1      32.608  -8.489 -22.288  0.00  0.00    -0.242 NA
ATOM     18  C   UNL     1      33.904  -9.715 -23.863  0.00  0.00    +0.051 C 
ATOM     19  C   UNL     1      34.788  -8.685 -24.025  0.00  0.00    +0.006 C 
ATOM     20  C   UNL     1      32.844  -9.606 -23.013  0.00  0.00    +0.101 C 
ATOM     21  C   UNL     1      34.579  -7.519 -23.295  0.00  0.00    +0.021 C 
ATOM     22  C   UNL     1      33.484  -7.473 -22.449  0.00  0.00    +0.099 C 
ENDBRANCH  16  18
ENDBRANCH  13  15
ENDBRANCH  12  13
ENDBRANCH   1  12
TORSDOF 7
ENDMDL
MODEL 9
REMARK VINA RESULT:      -8.0      4.899      9.140
REMARK  Name = 9576891
REMARK  7 active torsions:
REMARK  status: ('A' for Active; 'I' for Inactive)
REMARK    1  A    between atoms: C_1  and  O_2
REMARK    2  A    between atoms: C_1  and  C_4
REMARK    3  A    between atoms: C_1  and  C_12
REMARK    4  A    between atoms: C_4  and  N_5
REMARK    5  A    between atoms: C_12  and  O_13
REMARK    6  A    between atoms: O_13  and  N_15
REMARK    7  A    between atoms: C_16  and  C_18
REMARK                            x       y       z     vdW  Elec       q    Type
REMARK                         _______ _______ _______ _____ _____    ______ ____
ROOT
ATOM      1  C   UNL     1      34.568 -23.974 -14.271  0.00  0.00    +0.136 C 
ENDROOT
BRANCH   1   2
ATOM      2  O   UNL     1      34.595 -25.280 -14.855  0.00  0.00    -0.383 OA
ATOM      3  H   UNL     1      33.974 -25.314 -15.599  0.00  0.00    +0.210 HD
ENDBRANCH   1   2
BRANCH   1   4
ATOM      4  C   UNL     1      33.201 -23.774 -13.613  0.00  0.00    -0.044 C 
BRANCH   4   5
ATOM      5  N   UNL     1      32.101 -24.078 -14.529  0.00  0.00    +0.389 N 
ATOM      6  C   UNL     1      31.372 -22.852 -14.883  0.00  0.00    -0.077 C 
ATOM      7  C   UNL     1      31.201 -25.078 -13.937  0.00  0.00    -0.077 C 
ATOM      8  C   UNL     1      30.249 -23.145 -15.880  0.00  0.00    -0.023 C 
ATOM      9  C   UNL     1      30.072 -25.444 -14.901  0.00  0.00    -0.023 C 
ATOM     10  C   UNL     1      29.297 -24.208 -15.343  0.00  0.00    -0.004 C 
ATOM     11  H   UNL     1      32.488 -24.472 -15.386  0.00  0.00    -0.080 HD
ENDBRANCH   4   5
ENDBRANCH   1   4
BRANCH   1  12
ATOM     12  C   UNL     1      34.872 -22.948 -15.360  0.00  0.00    +0.265 C 
BRANCH  12  13
ATOM     13  O   UNL     1      35.083 -23.632 -16.591  0.00  0.00    -0.374 OA
BRANCH  13  15
ATOM     14 CL   UNL     1      36.889 -21.983 -17.802  0.00  0.00    -0.058 Cl
ATOM     15  N   UNL     1      34.419 -22.922 -17.597  0.00  0.00    -0.071 NA
ATOM     16  C   UNL     1      35.205 -22.104 -18.234  0.00  0.00    +0.178 C 
BRANCH  16  18
ATOM     17  N   UNL     1      32.699 -20.500 -20.491  0.00  0.00    -0.242 NA
ATOM     18  C   UNL     1      34.632 -21.275 -19.340  0.00  0.00    +0.051 C 
ATOM     19  C   UNL     1      35.473 -20.577 -20.162  0.00  0.00    +0.006 C 
ATOM     20  C   UNL     1      33.280 -21.228 -19.512  0.00  0.00    +0.101 C 
ATOM     21  C   UNL     1      34.912 -19.815 -21.181  0.00  0.00    +0.021 C 
ATOM     22  C   UNL     1      33.532 -19.811 -21.302  0.00  0.00    +0.099 C 
ENDBRANCH  16  18
ENDBRANCH  13  15
ENDBRANCH  12  13
ENDBRANCH   1  12
TORSDOF 7
ENDMDL
