MODEL 1
REMARK VINA RESULT:      -6.6      0.000      0.000
REMARK  Name = 72
REMARK  4 active torsions:
REMARK  status: ('A' for Active; 'I' for Inactive)
REMARK    1  A    between atoms: C_1  and  C_12
REMARK    2  A    between atoms: C_3  and  O_7
REMARK    3  A    between atoms: C_5  and  O_9
REMARK    4  A    between atoms: C_12  and  O_13
REMARK                            x       y       z     vdW  Elec       q    Type
REMARK                         _______ _______ _______ _____ _____    ______ ____
ROOT
ATOM      1  C   UNL     1      38.979 -25.819 -14.153  0.00  0.00    +0.079 C 
ATOM      2  C   UNL     1      38.888 -25.215 -12.898  0.00  0.00    +0.046 C 
ATOM      3  C   UNL     1      37.636 -24.957 -12.339  0.00  0.00    +0.168 C 
ATOM      4  C   UNL     1      37.819 -26.162 -14.847  0.00  0.00    +0.010 C 
ATOM      5  C   UNL     1      36.476 -25.301 -13.033  0.00  0.00    +0.167 C 
ATOM      6  C   UNL     1      36.568 -25.904 -14.287  0.00  0.00    +0.040 C 
ENDROOT
BRANCH   3   7
ATOM      7  O   UNL     1      37.559 -24.368 -11.112  0.00  0.00    -0.503 OA
ATOM      8  H   UNL     1      38.339 -24.081 -10.680  0.00  0.00    +0.292 HD
ENDBRANCH   3   7
BRANCH   5   9
ATOM      9  O   UNL     1      35.249 -25.053 -12.498  0.00  0.00    -0.503 OA
ATOM     10  H   UNL     1      34.747 -24.320 -12.796  0.00  0.00    +0.292 HD
ENDBRANCH   5   9
BRANCH   1  12
ATOM     11  O   UNL     1      41.253 -26.559 -14.132  0.00  0.00    -0.245 OA
ATOM     12  C   UNL     1      40.283 -26.090 -14.735  0.00  0.00    +0.338 C 
BRANCH  12  13
ATOM     13  O   UNL     1      40.340 -25.769 -16.057  0.00  0.00    -0.477 OA
ATOM     14  H   UNL     1      41.156 -25.521 -16.444  0.00  0.00    +0.295 HD
ENDBRANCH  12  13
ENDBRANCH   1  12
TORSDOF 4
ENDMDL
MODEL 2
REMARK VINA RESULT:      -6.6      7.157      9.307
REMARK  Name = 72
REMARK  4 active torsions:
REMARK  status: ('A' for Active; 'I' for Inactive)
REMARK    1  A    between atoms: C_1  and  C_12
REMARK    2  A    between atoms: C_3  and  O_7
REMARK    3  A    between atoms: C_5  and  O_9
REMARK    4  A    between atoms: C_12  and  O_13
REMARK                            x       y       z     vdW  Elec       q    Type
REMARK                         _______ _______ _______ _____ _____    ______ ____
ROOT
ATOM      1  C   UNL     1      29.327 -23.551 -15.828  0.00  0.00    +0.079 C 
ATOM      2  C   UNL     1      30.350 -22.754 -15.314  0.00  0.00    +0.046 C 
ATOM      3  C   UNL     1      31.295 -23.306 -14.449  0.00  0.00    +0.168 C 
ATOM      4  C   UNL     1      29.248 -24.899 -15.476  0.00  0.00    +0.010 C 
ATOM      5  C   UNL     1      31.217 -24.654 -14.097  0.00  0.00    +0.167 C 
ATOM      6  C   UNL     1      30.194 -25.450 -14.611  0.00  0.00    +0.040 C 
ENDROOT
BRANCH   3   7
ATOM      7  O   UNL     1      32.291 -22.519 -13.954  0.00  0.00    -0.503 OA
ATOM      8  H   UNL     1      32.518 -21.721 -14.390  0.00  0.00    +0.292 HD
ENDBRANCH   3   7
BRANCH   5   9
ATOM      9  O   UNL     1      32.133 -25.203 -13.252  0.00  0.00    -0.503 OA
ATOM     10  H   UNL     1      31.930 -25.304 -12.343  0.00  0.00    +0.292 HD
ENDBRANCH   5   9
BRANCH   1  12
ATOM     11  O   UNL     1      28.039 -21.782 -16.793  0.00  0.00    -0.245 OA
ATOM     12  C   UNL     1      28.343 -22.978 -16.732  0.00  0.00    +0.338 C 
BRANCH  12  13
ATOM     13  O   UNL     1      27.766 -23.913 -17.535  0.00  0.00    -0.477 OA
ATOM     14  H   UNL     1      28.215 -24.714 -17.719  0.00  0.00    +0.295 HD
ENDBRANCH  12  13
ENDBRANCH   1  12
TORSDOF 4
ENDMDL
MODEL 3
REMARK VINA RESULT:      -6.4      1.487      3.863
REMARK  Name = 72
REMARK  4 active torsions:
REMARK  status: ('A' for Active; 'I' for Inactive)
REMARK    1  A    between atoms: C_1  and  C_12
REMARK    2  A    between atoms: C_3  and  O_7
REMARK    3  A    between atoms: C_5  and  O_9
REMARK    4  A    between atoms: C_12  and  O_13
REMARK                            x       y       z     vdW  Elec       q    Type
REMARK                         _______ _______ _______ _____ _____    ______ ____
ROOT
ATOM      1  C   UNL     1      37.373 -24.577 -12.726  0.00  0.00    +0.079 C 
ATOM      2  C   UNL     1      38.498 -25.287 -13.144  0.00  0.00    +0.046 C 
ATOM      3  C   UNL     1      38.431 -26.094 -14.281  0.00  0.00    +0.168 C 
ATOM      4  C   UNL     1      36.180 -24.674 -13.443  0.00  0.00    +0.010 C 
ATOM      5  C   UNL     1      37.238 -26.191 -14.998  0.00  0.00    +0.167 C 
ATOM      6  C   UNL     1      36.113 -25.481 -14.579  0.00  0.00    +0.040 C 
ENDROOT
BRANCH   3   7
ATOM      7  O   UNL     1      39.536 -26.782 -14.680  0.00  0.00    -0.503 OA
ATOM      8  H   UNL     1      40.272 -26.862 -14.105  0.00  0.00    +0.292 HD
ENDBRANCH   3   7
BRANCH   5   9
ATOM      9  O   UNL     1      37.160 -26.975 -16.108  0.00  0.00    -0.503 OA
ATOM     10  H   UNL     1      37.558 -26.695 -16.909  0.00  0.00    +0.292 HD
ENDBRANCH   5   9
BRANCH   1  12
ATOM     11  O   UNL     1      36.746 -23.863 -10.531  0.00  0.00    -0.245 OA
ATOM     12  C   UNL     1      37.442 -23.735 -11.543  0.00  0.00    +0.338 C 
BRANCH  12  13
ATOM     13  O   UNL     1      38.381 -22.756 -11.655  0.00  0.00    -0.477 OA
ATOM     14  H   UNL     1      38.926 -22.543 -10.923  0.00  0.00    +0.295 HD
ENDBRANCH  12  13
ENDBRANCH   1  12
TORSDOF 4
ENDMDL
MODEL 4
REMARK VINA RESULT:      -6.4      6.820      9.148
REMARK  Name = 72
REMARK  4 active torsions:
REMARK  status: ('A' for Active; 'I' for Inactive)
REMARK    1  A    between atoms: C_1  and  C_12
REMARK    2  A    between atoms: C_3  and  O_7
REMARK    3  A    between atoms: C_5  and  O_9
REMARK    4  A    between atoms: C_12  and  O_13
REMARK                            x       y       z     vdW  Elec       q    Type
REMARK                         _______ _______ _______ _____ _____    ______ ____
ROOT
ATOM      1  C   UNL     1      29.689 -23.417 -15.910  0.00  0.00    +0.079 C 
ATOM      2  C   UNL     1      29.519 -24.085 -14.698  0.00  0.00    +0.046 C 
ATOM      3  C   UNL     1      30.586 -24.194 -13.806  0.00  0.00    +0.168 C 
ATOM      4  C   UNL     1      30.926 -22.858 -16.231  0.00  0.00    +0.010 C 
ATOM      5  C   UNL     1      31.824 -23.635 -14.127  0.00  0.00    +0.167 C 
ATOM      6  C   UNL     1      31.993 -22.967 -15.339  0.00  0.00    +0.040 C 
ENDROOT
BRANCH   3   7
ATOM      7  O   UNL     1      30.408 -24.848 -12.624  0.00  0.00    -0.503 OA
ATOM      8  H   UNL     1      31.131 -24.964 -12.039  0.00  0.00    +0.292 HD
ENDBRANCH   3   7
BRANCH   5   9
ATOM      9  O   UNL     1      32.873 -23.735 -13.265  0.00  0.00    -0.503 OA
ATOM     10  H   UNL     1      33.546 -24.369 -13.418  0.00  0.00    +0.292 HD
ENDBRANCH   5   9
BRANCH   1  12
ATOM     11  O   UNL     1      27.928 -24.246 -17.300  0.00  0.00    -0.245 OA
ATOM     12  C   UNL     1      28.577 -23.301 -16.839  0.00  0.00    +0.338 C 
BRANCH  12  13
ATOM     13  O   UNL     1      28.303 -22.009 -17.166  0.00  0.00    -0.477 OA
ATOM     14  H   UNL     1      28.362 -21.730 -18.059  0.00  0.00    +0.295 HD
ENDBRANCH  12  13
ENDBRANCH   1  12
TORSDOF 4
ENDMDL
MODEL 5
REMARK VINA RESULT:      -6.4      8.519      9.517
REMARK  Name = 72
REMARK  4 active torsions:
REMARK  status: ('A' for Active; 'I' for Inactive)
REMARK    1  A    between atoms: C_1  and  C_12
REMARK    2  A    between atoms: C_3  and  O_7
REMARK    3  A    between atoms: C_5  and  O_9
REMARK    4  A    between atoms: C_12  and  O_13
REMARK                            x       y       z     vdW  Elec       q    Type
REMARK                         _______ _______ _______ _____ _____    ______ ____
ROOT
ATOM      1  C   UNL     1      34.364 -21.395 -19.639  0.00  0.00    +0.079 C 
ATOM      2  C   UNL     1      35.560 -20.786 -20.023  0.00  0.00    +0.046 C 
ATOM      3  C   UNL     1      35.534 -19.608 -20.770  0.00  0.00    +0.168 C 
ATOM      4  C   UNL     1      33.144 -20.825 -20.004  0.00  0.00    +0.010 C 
ATOM      5  C   UNL     1      34.313 -19.039 -21.134  0.00  0.00    +0.167 C 
ATOM      6  C   UNL     1      33.119 -19.648 -20.751  0.00  0.00    +0.040 C 
ENDROOT
BRANCH   3   7
ATOM      7  O   UNL     1      36.707 -19.023 -21.138  0.00  0.00    -0.503 OA
ATOM      8  H   UNL     1      37.505 -19.258 -20.705  0.00  0.00    +0.292 HD
ENDBRANCH   3   7
BRANCH   5   9
ATOM      9  O   UNL     1      34.276 -17.890 -21.864  0.00  0.00    -0.503 OA
ATOM     10  H   UNL     1      33.456 -17.561 -22.178  0.00  0.00    +0.292 HD
ENDBRANCH   5   9
BRANCH   1  12
ATOM     11  O   UNL     1      34.782 -22.719 -17.691  0.00  0.00    -0.245 OA
ATOM     12  C   UNL     1      34.390 -22.621 -18.859  0.00  0.00    +0.338 C 
BRANCH  12  13
ATOM     13  O   UNL     1      33.924 -23.692 -19.557  0.00  0.00    -0.477 OA
ATOM     14  H   UNL     1      34.016 -23.720 -20.489  0.00  0.00    +0.295 HD
ENDBRANCH  12  13
ENDBRANCH   1  12
TORSDOF 4
ENDMDL
MODEL 6
REMARK VINA RESULT:      -6.4      8.895      9.655
REMARK  Name = 72
REMARK  4 active torsions:
REMARK  status: ('A' for Active; 'I' for Inactive)
REMARK    1  A    between atoms: C_1  and  C_12
REMARK    2  A    between atoms: C_3  and  O_7
REMARK    3  A    between atoms: C_5  and  O_9
REMARK    4  A    between atoms: C_12  and  O_13
REMARK                            x       y       z     vdW  Elec       q    Type
REMARK                         _______ _______ _______ _____ _____    ______ ____
ROOT
ATOM      1  C   UNL     1      35.070 -19.556 -21.005  0.00  0.00    +0.079 C 
ATOM      2  C   UNL     1      35.657 -20.566 -20.243  0.00  0.00    +0.046 C 
ATOM      3  C   UNL     1      34.855 -21.448 -19.519  0.00  0.00    +0.168 C 
ATOM      4  C   UNL     1      33.681 -19.428 -21.043  0.00  0.00    +0.010 C 
ATOM      5  C   UNL     1      33.466 -21.320 -19.556  0.00  0.00    +0.167 C 
ATOM      6  C   UNL     1      32.880 -20.311 -20.318  0.00  0.00    +0.040 C 
ENDROOT
BRANCH   3   7
ATOM      7  O   UNL     1      35.440 -22.431 -18.778  0.00  0.00    -0.503 OA
ATOM      8  H   UNL     1      36.154 -22.227 -18.207  0.00  0.00    +0.292 HD
ENDBRANCH   3   7
BRANCH   5   9
ATOM      9  O   UNL     1      32.673 -22.175 -18.852  0.00  0.00    -0.503 OA
ATOM     10  H   UNL     1      32.388 -22.978 -19.242  0.00  0.00    +0.292 HD
ENDBRANCH   5   9
BRANCH   1  12
ATOM     11  O   UNL     1      37.140 -18.624 -21.758  0.00  0.00    -0.245 OA
ATOM     12  C   UNL     1      35.905 -18.638 -21.762  0.00  0.00    +0.338 C 
BRANCH  12  13
ATOM     13  O   UNL     1      35.175 -17.762 -22.505  0.00  0.00    -0.477 OA
ATOM     14  H   UNL     1      34.450 -18.070 -23.014  0.00  0.00    +0.295 HD
ENDBRANCH  12  13
ENDBRANCH   1  12
TORSDOF 4
ENDMDL
MODEL 7
REMARK VINA RESULT:      -6.4      1.201      2.216
REMARK  Name = 72
REMARK  4 active torsions:
REMARK  status: ('A' for Active; 'I' for Inactive)
REMARK    1  A    between atoms: C_1  and  C_12
REMARK    2  A    between atoms: C_3  and  O_7
REMARK    3  A    between atoms: C_5  and  O_9
REMARK    4  A    between atoms: C_12  and  O_13
REMARK                            x       y       z     vdW  Elec       q    Type
REMARK                         _______ _______ _______ _____ _____    ______ ____
ROOT
ATOM      1  C   UNL     1      39.083 -25.606 -14.050  0.00  0.00    +0.079 C 
ATOM      2  C   UNL     1      38.082 -26.098 -14.888  0.00  0.00    +0.046 C 
ATOM      3  C   UNL     1      36.740 -25.905 -14.559  0.00  0.00    +0.168 C 
ATOM      4  C   UNL     1      38.741 -24.922 -12.883  0.00  0.00    +0.010 C 
ATOM      5  C   UNL     1      36.399 -25.220 -13.392  0.00  0.00    +0.167 C 
ATOM      6  C   UNL     1      37.399 -24.729 -12.555  0.00  0.00    +0.040 C 
ENDROOT
BRANCH   3   7
ATOM      7  O   UNL     1      35.771 -26.389 -15.385  0.00  0.00    -0.503 OA
ATOM      8  H   UNL     1      35.276 -25.801 -15.923  0.00  0.00    +0.292 HD
ENDBRANCH   3   7
BRANCH   5   9
ATOM      9  O   UNL     1      35.092 -25.026 -13.060  0.00  0.00    -0.503 OA
ATOM     10  H   UNL     1      34.414 -25.322 -13.635  0.00  0.00    +0.292 HD
ENDBRANCH   5   9
BRANCH   1  12
ATOM     11  O   UNL     1      41.045 -26.900 -14.494  0.00  0.00    -0.245 OA
ATOM     12  C   UNL     1      40.481 -25.805 -14.393  0.00  0.00    +0.338 C 
BRANCH  12  13
ATOM     13  O   UNL     1      41.139 -24.632 -14.601  0.00  0.00    -0.477 OA
ATOM     14  H   UNL     1      41.783 -24.340 -13.986  0.00  0.00    +0.295 HD
ENDBRANCH  12  13
ENDBRANCH   1  12
TORSDOF 4
ENDMDL
MODEL 8
REMARK VINA RESULT:      -6.4      2.323      3.934
REMARK  Name = 72
REMARK  4 active torsions:
REMARK  status: ('A' for Active; 'I' for Inactive)
REMARK    1  A    between atoms: C_1  and  C_12
REMARK    2  A    between atoms: C_3  and  O_7
REMARK    3  A    between atoms: C_5  and  O_9
REMARK    4  A    between atoms: C_12  and  O_13
REMARK                            x       y       z     vdW  Elec       q    Type
REMARK                         _______ _______ _______ _____ _____    ______ ____
ROOT
ATOM      1  C   UNL     1      37.470 -24.671 -12.914  0.00  0.00    +0.079 C 
ATOM      2  C   UNL     1      36.492 -24.308 -13.841  0.00  0.00    +0.046 C 
ATOM      3  C   UNL     1      36.244 -25.122 -14.947  0.00  0.00    +0.168 C 
ATOM      4  C   UNL     1      38.199 -25.847 -13.094  0.00  0.00    +0.010 C 
ATOM      5  C   UNL     1      36.973 -26.297 -15.127  0.00  0.00    +0.167 C 
ATOM      6  C   UNL     1      37.950 -26.660 -14.200  0.00  0.00    +0.040 C 
ENDROOT
BRANCH   3   7
ATOM      7  O   UNL     1      35.287 -24.757 -15.845  0.00  0.00    -0.503 OA
ATOM      8  H   UNL     1      34.402 -25.047 -15.731  0.00  0.00    +0.292 HD
ENDBRANCH   3   7
BRANCH   5   9
ATOM      9  O   UNL     1      36.740 -27.099 -16.203  0.00  0.00    -0.503 OA
ATOM     10  H   UNL     1      36.151 -26.820 -16.876  0.00  0.00    +0.292 HD
ENDBRANCH   5   9
BRANCH   1  12
ATOM     11  O   UNL     1      38.609 -22.962 -11.689  0.00  0.00    -0.245 OA
ATOM     12  C   UNL     1      37.728 -23.826 -11.761  0.00  0.00    +0.338 C 
BRANCH  12  13
ATOM     13  O   UNL     1      36.879 -24.080 -10.728  0.00  0.00    -0.477 OA
ATOM     14  H   UNL     1      36.641 -23.393 -10.137  0.00  0.00    +0.295 HD
ENDBRANCH  12  13
ENDBRANCH   1  12
TORSDOF 4
ENDMDL
MODEL 9
REMARK VINA RESULT:      -6.4      9.020      9.872
REMARK  Name = 72
REMARK  4 active torsions:
REMARK  status: ('A' for Active; 'I' for Inactive)
REMARK    1  A    between atoms: C_1  and  C_12
REMARK    2  A    between atoms: C_3  and  O_7
REMARK    3  A    between atoms: C_5  and  O_9
REMARK    4  A    between atoms: C_12  and  O_13
REMARK                            x       y       z     vdW  Elec       q    Type
REMARK                         _______ _______ _______ _____ _____    ______ ____
ROOT
ATOM      1  C   UNL     1      35.431 -19.273 -20.916  0.00  0.00    +0.079 C 
ATOM      2  C   UNL     1      34.144 -19.788 -20.756  0.00  0.00    +0.046 C 
ATOM      3  C   UNL     1      33.953 -20.981 -20.057  0.00  0.00    +0.168 C 
ATOM      4  C   UNL     1      36.525 -19.950 -20.379  0.00  0.00    +0.010 C 
ATOM      5  C   UNL     1      35.048 -21.658 -19.520  0.00  0.00    +0.167 C 
ATOM      6  C   UNL     1      36.334 -21.142 -19.681  0.00  0.00    +0.040 C 
ENDROOT
BRANCH   3   7
ATOM      7  O   UNL     1      32.693 -21.474 -19.906  0.00  0.00    -0.503 OA
ATOM      8  H   UNL     1      32.562 -22.392 -19.768  0.00  0.00    +0.292 HD
ENDBRANCH   3   7
BRANCH   5   9
ATOM      9  O   UNL     1      34.875 -22.823 -18.837  0.00  0.00    -0.503 OA
ATOM     10  H   UNL     1      34.869 -22.820 -17.900  0.00  0.00    +0.292 HD
ENDBRANCH   5   9
BRANCH   1  12
ATOM     11  O   UNL     1      35.166 -16.930 -21.321  0.00  0.00    -0.245 OA
ATOM     12  C   UNL     1      35.630 -18.029 -21.643  0.00  0.00    +0.338 C 
BRANCH  12  13
ATOM     13  O   UNL     1      36.405 -18.191 -22.750  0.00  0.00    -0.477 OA
ATOM     14  H   UNL     1      36.815 -19.017 -22.918  0.00  0.00    +0.295 HD
ENDBRANCH  12  13
ENDBRANCH   1  12
TORSDOF 4
ENDMDL
