MODEL 1
REMARK VINA RESULT:      -6.6      0.000      0.000
REMARK  Name = 3505109
REMARK  3 active torsions:
REMARK  status: ('A' for Active; 'I' for Inactive)
REMARK    1  A    between atoms: C_1  and  N_9
REMARK    2  A    between atoms: C_3  and  O_10
REMARK    3  A    between atoms: C_4  and  O_12
REMARK                            x       y       z     vdW  Elec       q    Type
REMARK                         _______ _______ _______ _____ _____    ______ ____
ROOT
ATOM      1  C   UNL     1      37.457 -24.529 -12.750  0.00  0.00    +0.146 C 
ATOM      2  C   UNL     1      38.567 -25.254 -13.185  0.00  0.00    +0.064 C 
ATOM      3  C   UNL     1      38.466 -26.078 -14.305  0.00  0.00    +0.169 C 
ATOM      4  C   UNL     1      37.257 -26.178 -14.991  0.00  0.00    +0.168 C 
ATOM      5  C   UNL     1      36.246 -24.629 -13.435  0.00  0.00    +0.027 C 
ATOM      6  C   UNL     1      36.147 -25.454 -14.556  0.00  0.00    +0.041 C 
ENDROOT
BRANCH   1   9
ATOM      7  O   UNL     1      38.375 -22.734 -11.630  0.00  0.00    -0.126 OA
ATOM      8  O   UNL     1      36.834 -23.922 -10.614  0.00  0.00    -0.126 OA
ATOM      9  N   UNL     1      37.560 -23.688 -11.610  0.00  0.00    +0.058 N 
ENDBRANCH   1   9
BRANCH   3  10
ATOM     10  O   UNL     1      39.559 -26.779 -14.720  0.00  0.00    -0.503 OA
ATOM     11  H   UNL     1      40.206 -26.364 -15.255  0.00  0.00    +0.292 HD
ENDBRANCH   3  10
BRANCH   4  12
ATOM     12  O   UNL     1      37.147 -26.980 -16.087  0.00  0.00    -0.503 OA
ATOM     13  H   UNL     1      36.388 -26.927 -16.631  0.00  0.00    +0.292 HD
ENDBRANCH   4  12
TORSDOF 3
ENDMDL
MODEL 2
REMARK VINA RESULT:      -6.6      7.503      8.718
REMARK  Name = 3505109
REMARK  3 active torsions:
REMARK  status: ('A' for Active; 'I' for Inactive)
REMARK    1  A    between atoms: C_1  and  N_9
REMARK    2  A    between atoms: C_3  and  O_10
REMARK    3  A    between atoms: C_4  and  O_12
REMARK                            x       y       z     vdW  Elec       q    Type
REMARK                         _______ _______ _______ _____ _____    ______ ____
ROOT
ATOM      1  C   UNL     1      29.298 -23.594 -15.887  0.00  0.00    +0.146 C 
ATOM      2  C   UNL     1      30.292 -22.774 -15.351  0.00  0.00    +0.064 C 
ATOM      3  C   UNL     1      31.230 -23.304 -14.466  0.00  0.00    +0.169 C 
ATOM      4  C   UNL     1      31.175 -24.653 -14.117  0.00  0.00    +0.168 C 
ATOM      5  C   UNL     1      29.242 -24.943 -15.537  0.00  0.00    +0.027 C 
ATOM      6  C   UNL     1      30.181 -25.473 -14.653  0.00  0.00    +0.041 C 
ENDROOT
BRANCH   1   9
ATOM      7  O   UNL     1      27.743 -23.829 -17.574  0.00  0.00    -0.126 OA
ATOM      8  O   UNL     1      28.126 -21.819 -16.780  0.00  0.00    -0.126 OA
ATOM      9  N   UNL     1      28.343 -23.055 -16.790  0.00  0.00    +0.058 N 
ENDBRANCH   1   9
BRANCH   3  10
ATOM     10  O   UNL     1      32.197 -22.494 -13.951  0.00  0.00    -0.503 OA
ATOM     11  H   UNL     1      31.959 -21.698 -13.518  0.00  0.00    +0.292 HD
ENDBRANCH   3  10
BRANCH   4  12
ATOM     12  O   UNL     1      32.087 -25.182 -13.254  0.00  0.00    -0.503 OA
ATOM     13  H   UNL     1      32.146 -26.110 -13.146  0.00  0.00    +0.292 HD
ENDBRANCH   4  12
TORSDOF 3
ENDMDL
MODEL 3
REMARK VINA RESULT:      -6.5      2.074      3.843
REMARK  Name = 3505109
REMARK  3 active torsions:
REMARK  status: ('A' for Active; 'I' for Inactive)
REMARK    1  A    between atoms: C_1  and  N_9
REMARK    2  A    between atoms: C_3  and  O_10
REMARK    3  A    between atoms: C_4  and  O_12
REMARK                            x       y       z     vdW  Elec       q    Type
REMARK                         _______ _______ _______ _____ _____    ______ ____
ROOT
ATOM      1  C   UNL     1      39.084 -25.882 -14.172  0.00  0.00    +0.146 C 
ATOM      2  C   UNL     1      38.995 -25.243 -12.934  0.00  0.00    +0.064 C 
ATOM      3  C   UNL     1      37.746 -24.985 -12.371  0.00  0.00    +0.169 C 
ATOM      4  C   UNL     1      36.586 -25.366 -13.043  0.00  0.00    +0.168 C 
ATOM      5  C   UNL     1      37.923 -26.262 -14.845  0.00  0.00    +0.027 C 
ATOM      6  C   UNL     1      36.674 -26.004 -14.280  0.00  0.00    +0.041 C 
ENDROOT
BRANCH   1   9
ATOM      7  O   UNL     1      40.539 -25.890 -15.961  0.00  0.00    -0.126 OA
ATOM      8  O   UNL     1      41.261 -26.628 -14.023  0.00  0.00    -0.126 OA
ATOM      9  N   UNL     1      40.356 -26.146 -14.746  0.00  0.00    +0.058 N 
ENDBRANCH   1   9
BRANCH   3  10
ATOM     10  O   UNL     1      37.674 -24.363 -11.161  0.00  0.00    -0.503 OA
ATOM     11  H   UNL     1      37.162 -24.737 -10.472  0.00  0.00    +0.292 HD
ENDBRANCH   3  10
BRANCH   4  12
ATOM     12  O   UNL     1      35.360 -25.120 -12.502  0.00  0.00    -0.503 OA
ATOM     13  H   UNL     1      34.892 -24.343 -12.735  0.00  0.00    +0.292 HD
ENDBRANCH   4  12
TORSDOF 3
ENDMDL
MODEL 4
REMARK VINA RESULT:      -6.5      1.068      2.251
REMARK  Name = 3505109
REMARK  3 active torsions:
REMARK  status: ('A' for Active; 'I' for Inactive)
REMARK    1  A    between atoms: C_1  and  N_9
REMARK    2  A    between atoms: C_3  and  O_10
REMARK    3  A    between atoms: C_4  and  O_12
REMARK                            x       y       z     vdW  Elec       q    Type
REMARK                         _______ _______ _______ _____ _____    ______ ____
ROOT
ATOM      1  C   UNL     1      37.353 -24.662 -12.823  0.00  0.00    +0.146 C 
ATOM      2  C   UNL     1      36.426 -24.272 -13.790  0.00  0.00    +0.064 C 
ATOM      3  C   UNL     1      36.216 -25.069 -14.915  0.00  0.00    +0.169 C 
ATOM      4  C   UNL     1      36.931 -26.255 -15.073  0.00  0.00    +0.168 C 
ATOM      5  C   UNL     1      38.069 -25.848 -12.981  0.00  0.00    +0.027 C 
ATOM      6  C   UNL     1      37.858 -26.645 -14.106  0.00  0.00    +0.041 C 
ENDROOT
BRANCH   1   9
ATOM      7  O   UNL     1      36.821 -24.001 -10.678  0.00  0.00    -0.126 OA
ATOM      8  O   UNL     1      38.494 -23.006 -11.693  0.00  0.00    -0.126 OA
ATOM      9  N   UNL     1      37.567 -23.851 -11.676  0.00  0.00    +0.058 N 
ENDBRANCH   1   9
BRANCH   3  10
ATOM     10  O   UNL     1      35.307 -24.678 -15.851  0.00  0.00    -0.503 OA
ATOM     11  H   UNL     1      34.403 -24.593 -15.620  0.00  0.00    +0.292 HD
ENDBRANCH   3  10
BRANCH   4  12
ATOM     12  O   UNL     1      36.733 -27.042 -16.167  0.00  0.00    -0.503 OA
ATOM     13  H   UNL     1      37.154 -27.876 -16.227  0.00  0.00    +0.292 HD
ENDBRANCH   4  12
TORSDOF 3
ENDMDL
MODEL 5
REMARK VINA RESULT:      -6.4     13.255     13.840
REMARK  Name = 3505109
REMARK  3 active torsions:
REMARK  status: ('A' for Active; 'I' for Inactive)
REMARK    1  A    between atoms: C_1  and  N_9
REMARK    2  A    between atoms: C_3  and  O_10
REMARK    3  A    between atoms: C_4  and  O_12
REMARK                            x       y       z     vdW  Elec       q    Type
REMARK                         _______ _______ _______ _____ _____    ______ ____
ROOT
ATOM      1  C   UNL     1      34.579 -16.097 -22.451  0.00  0.00    +0.146 C 
ATOM      2  C   UNL     1      34.786 -17.116 -23.382  0.00  0.00    +0.064 C 
ATOM      3  C   UNL     1      34.438 -16.921 -24.718  0.00  0.00    +0.169 C 
ATOM      4  C   UNL     1      33.883 -15.708 -25.124  0.00  0.00    +0.168 C 
ATOM      5  C   UNL     1      34.023 -14.884 -22.858  0.00  0.00    +0.027 C 
ATOM      6  C   UNL     1      33.675 -14.690 -24.195  0.00  0.00    +0.041 C 
ENDROOT
BRANCH   1   9
ATOM      7  O   UNL     1      34.876 -15.321 -20.300  0.00  0.00    -0.126 OA
ATOM      8  O   UNL     1      35.298 -17.435 -20.716  0.00  0.00    -0.126 OA
ATOM      9  N   UNL     1      34.934 -16.294 -21.091  0.00  0.00    +0.058 N 
ENDBRANCH   1   9
BRANCH   3  10
ATOM     10  O   UNL     1      34.648 -17.924 -25.617  0.00  0.00    -0.503 OA
ATOM     11  H   UNL     1      35.463 -18.384 -25.623  0.00  0.00    +0.292 HD
ENDBRANCH   3  10
BRANCH   4  12
ATOM     12  O   UNL     1      33.540 -15.507 -26.427  0.00  0.00    -0.503 OA
ATOM     13  H   UNL     1      32.781 -15.925 -26.782  0.00  0.00    +0.292 HD
ENDBRANCH   4  12
TORSDOF 3
ENDMDL
MODEL 6
REMARK VINA RESULT:      -6.4      8.218      9.162
REMARK  Name = 3505109
REMARK  3 active torsions:
REMARK  status: ('A' for Active; 'I' for Inactive)
REMARK    1  A    between atoms: C_1  and  N_9
REMARK    2  A    between atoms: C_3  and  O_10
REMARK    3  A    between atoms: C_4  and  O_12
REMARK                            x       y       z     vdW  Elec       q    Type
REMARK                         _______ _______ _______ _____ _____    ______ ____
ROOT
ATOM      1  C   UNL     1      34.434 -21.380 -19.699  0.00  0.00    +0.146 C 
ATOM      2  C   UNL     1      35.617 -20.748 -20.084  0.00  0.00    +0.064 C 
ATOM      3  C   UNL     1      35.568 -19.559 -20.809  0.00  0.00    +0.169 C 
ATOM      4  C   UNL     1      34.337 -19.000 -21.150  0.00  0.00    +0.168 C 
ATOM      5  C   UNL     1      33.202 -20.821 -20.041  0.00  0.00    +0.027 C 
ATOM      6  C   UNL     1      33.154 -19.631 -20.766  0.00  0.00    +0.041 C 
ENDROOT
BRANCH   1   9
ATOM      7  O   UNL     1      33.911 -23.609 -19.420  0.00  0.00    -0.126 OA
ATOM      8  O   UNL     1      35.095 -22.611 -17.864  0.00  0.00    -0.126 OA
ATOM      9  N   UNL     1      34.483 -22.591 -18.959  0.00  0.00    +0.058 N 
ENDBRANCH   1   9
BRANCH   3  10
ATOM     10  O   UNL     1      36.731 -18.951 -21.177  0.00  0.00    -0.503 OA
ATOM     11  H   UNL     1      37.141 -19.176 -21.989  0.00  0.00    +0.292 HD
ENDBRANCH   3  10
BRANCH   4  12
ATOM     12  O   UNL     1      34.278 -17.837 -21.858  0.00  0.00    -0.503 OA
ATOM     13  H   UNL     1      34.805 -17.728 -22.624  0.00  0.00    +0.292 HD
ENDBRANCH   4  12
TORSDOF 3
ENDMDL
MODEL 7
REMARK VINA RESULT:      -6.4      8.646      9.527
REMARK  Name = 3505109
REMARK  3 active torsions:
REMARK  status: ('A' for Active; 'I' for Inactive)
REMARK    1  A    between atoms: C_1  and  N_9
REMARK    2  A    between atoms: C_3  and  O_10
REMARK    3  A    between atoms: C_4  and  O_12
REMARK                            x       y       z     vdW  Elec       q    Type
REMARK                         _______ _______ _______ _____ _____    ______ ____
ROOT
ATOM      1  C   UNL     1      35.122 -19.570 -21.042  0.00  0.00    +0.146 C 
ATOM      2  C   UNL     1      35.683 -20.579 -20.258  0.00  0.00    +0.064 C 
ATOM      3  C   UNL     1      34.858 -21.439 -19.535  0.00  0.00    +0.169 C 
ATOM      4  C   UNL     1      33.473 -21.292 -19.595  0.00  0.00    +0.168 C 
ATOM      5  C   UNL     1      33.736 -19.422 -21.101  0.00  0.00    +0.027 C 
ATOM      6  C   UNL     1      32.912 -20.284 -20.377  0.00  0.00    +0.041 C 
ENDROOT
BRANCH   1   9
ATOM      7  O   UNL     1      35.438 -17.885 -22.584  0.00  0.00    -0.126 OA
ATOM      8  O   UNL     1      37.203 -18.752 -21.608  0.00  0.00    -0.126 OA
ATOM      9  N   UNL     1      35.962 -18.694 -21.780  0.00  0.00    +0.058 N 
ENDBRANCH   1   9
BRANCH   3  10
ATOM     10  O   UNL     1      35.419 -22.422 -18.775  0.00  0.00    -0.503 OA
ATOM     11  H   UNL     1      35.839 -22.207 -17.966  0.00  0.00    +0.292 HD
ENDBRANCH   3  10
BRANCH   4  12
ATOM     12  O   UNL     1      32.658 -22.128 -18.892  0.00  0.00    -0.503 OA
ATOM     13  H   UNL     1      32.955 -22.506 -18.089  0.00  0.00    +0.292 HD
ENDBRANCH   4  12
TORSDOF 3
ENDMDL
MODEL 8
REMARK VINA RESULT:      -6.3     13.371     14.017
REMARK  Name = 3505109
REMARK  3 active torsions:
REMARK  status: ('A' for Active; 'I' for Inactive)
REMARK    1  A    between atoms: C_1  and  N_9
REMARK    2  A    between atoms: C_3  and  O_10
REMARK    3  A    between atoms: C_4  and  O_12
REMARK                            x       y       z     vdW  Elec       q    Type
REMARK                         _______ _______ _______ _____ _____    ______ ____
ROOT
ATOM      1  C   UNL     1      34.652 -16.325 -22.435  0.00  0.00    +0.146 C 
ATOM      2  C   UNL     1      33.906 -15.204 -22.800  0.00  0.00    +0.064 C 
ATOM      3  C   UNL     1      33.568 -14.997 -24.137  0.00  0.00    +0.169 C 
ATOM      4  C   UNL     1      33.975 -15.910 -25.109  0.00  0.00    +0.168 C 
ATOM      5  C   UNL     1      35.061 -17.238 -23.407  0.00  0.00    +0.027 C 
ATOM      6  C   UNL     1      34.721 -17.031 -24.744  0.00  0.00    +0.041 C 
ENDROOT
BRANCH   1   9
ATOM      7  O   UNL     1      35.389 -17.674 -20.716  0.00  0.00    -0.126 OA
ATOM      8  O   UNL     1      34.897 -15.583 -20.265  0.00  0.00    -0.126 OA
ATOM      9  N   UNL     1      34.996 -16.537 -21.073  0.00  0.00    +0.058 N 
ENDBRANCH   1   9
BRANCH   3  10
ATOM     10  O   UNL     1      32.837 -13.899 -24.480  0.00  0.00    -0.503 OA
ATOM     11  H   UNL     1      32.206 -13.551 -23.882  0.00  0.00    +0.292 HD
ENDBRANCH   3  10
BRANCH   4  12
ATOM     12  O   UNL     1      33.650 -15.718 -26.418  0.00  0.00    -0.503 OA
ATOM     13  H   UNL     1      33.290 -16.422 -26.919  0.00  0.00    +0.292 HD
ENDBRANCH   4  12
TORSDOF 3
ENDMDL
MODEL 9
REMARK VINA RESULT:      -6.3     13.050     13.991
REMARK  Name = 3505109
REMARK  3 active torsions:
REMARK  status: ('A' for Active; 'I' for Inactive)
REMARK    1  A    between atoms: C_1  and  N_9
REMARK    2  A    between atoms: C_3  and  O_10
REMARK    3  A    between atoms: C_4  and  O_12
REMARK                            x       y       z     vdW  Elec       q    Type
REMARK                         _______ _______ _______ _____ _____    ______ ____
ROOT
ATOM      1  C   UNL     1      34.467 -16.304 -23.975  0.00  0.00    +0.146 C 
ATOM      2  C   UNL     1      34.876 -17.258 -23.043  0.00  0.00    +0.064 C 
ATOM      3  C   UNL     1      35.012 -16.907 -21.701  0.00  0.00    +0.169 C 
ATOM      4  C   UNL     1      34.740 -15.603 -21.290  0.00  0.00    +0.168 C 
ATOM      5  C   UNL     1      34.195 -14.999 -23.564  0.00  0.00    +0.027 C 
ATOM      6  C   UNL     1      34.331 -14.649 -22.221  0.00  0.00    +0.041 C 
ENDROOT
BRANCH   1   9
ATOM      7  O   UNL     1      33.931 -15.795 -26.160  0.00  0.00    -0.126 OA
ATOM      8  O   UNL     1      34.600 -17.833 -25.697  0.00  0.00    -0.126 OA
ATOM      9  N   UNL     1      34.326 -16.661 -25.343  0.00  0.00    +0.058 N 
ENDBRANCH   1   9
BRANCH   3  10
ATOM     10  O   UNL     1      35.410 -17.849 -20.800  0.00  0.00    -0.503 OA
ATOM     11  H   UNL     1      36.234 -18.281 -20.907  0.00  0.00    +0.292 HD
ENDBRANCH   3  10
BRANCH   4  12
ATOM     12  O   UNL     1      34.869 -15.249 -19.980  0.00  0.00    -0.503 OA
ATOM     13  H   UNL     1      35.219 -14.411 -19.754  0.00  0.00    +0.292 HD
ENDBRANCH   4  12
TORSDOF 3
ENDMDL
