MODEL 1
REMARK VINA RESULT:      -7.2      0.000      0.000
REMARK  Name = 69590
REMARK  1 active torsions:
REMARK  status: ('A' for Active; 'I' for Inactive)
REMARK    1  A    between atoms: C_3  and  C_8
REMARK                            x       y       z     vdW  Elec       q    Type
REMARK                         _______ _______ _______ _____ _____    ______ ____
ROOT
ATOM      1  N   UNL     1      34.681 -17.036 -21.554  0.00  0.00    -0.315 N 
ATOM      2  N   UNL     1      35.520 -16.931 -23.608  0.00  0.00    -0.314 N 
ATOM      3  C   UNL     1      34.946 -18.324 -21.919  0.00  0.00    +0.060 C 
ATOM      4  C   UNL     1      35.463 -18.236 -23.188  0.00  0.00    +0.074 C 
ATOM      5  C   UNL     1      35.042 -16.234 -22.601  0.00  0.00    +0.182 C 
ATOM      6  H   UNL     1      34.300 -16.739 -20.697  0.00  0.00    +0.148 HD
ATOM      7  H   UNL     1      35.848 -16.591 -24.472  0.00  0.00    +0.148 HD
ENDROOT
BRANCH   3   8
ATOM      8  C   UNL     1      34.694 -19.457 -21.063  0.00  0.00    +0.014 C 
ATOM      9  C   UNL     1      33.386 -19.788 -20.709  0.00  0.00    +0.001 C 
ATOM     10  C   UNL     1      35.760 -20.221 -20.588  0.00  0.00    +0.001 C 
ATOM     11  C   UNL     1      33.144 -20.883 -19.879  0.00  0.00    +0.000 C 
ATOM     12  C   UNL     1      35.517 -21.316 -19.758  0.00  0.00    +0.000 C 
ATOM     13  C   UNL     1      34.209 -21.647 -19.404  0.00  0.00    +0.000 C 
ENDBRANCH   3   8
TORSDOF 1
ENDMDL
MODEL 2
REMARK VINA RESULT:      -7.2      0.071      1.458
REMARK  Name = 69590
REMARK  1 active torsions:
REMARK  status: ('A' for Active; 'I' for Inactive)
REMARK    1  A    between atoms: C_3  and  C_8
REMARK                            x       y       z     vdW  Elec       q    Type
REMARK                         _______ _______ _______ _____ _____    ______ ____
ROOT
ATOM      1  N   UNL     1      34.675 -16.994 -21.528  0.00  0.00    -0.315 N 
ATOM      2  N   UNL     1      35.498 -16.872 -23.587  0.00  0.00    -0.314 N 
ATOM      3  C   UNL     1      34.916 -18.280 -21.914  0.00  0.00    +0.060 C 
ATOM      4  C   UNL     1      35.423 -18.182 -23.185  0.00  0.00    +0.074 C 
ATOM      5  C   UNL     1      35.039 -16.183 -22.566  0.00  0.00    +0.182 C 
ATOM      6  H   UNL     1      34.306 -16.704 -20.662  0.00  0.00    +0.148 HD
ATOM      7  H   UNL     1      35.823 -16.525 -24.449  0.00  0.00    +0.148 HD
ENDROOT
BRANCH   3   8
ATOM      8  C   UNL     1      34.653 -19.422 -21.072  0.00  0.00    +0.014 C 
ATOM      9  C   UNL     1      35.713 -20.171 -20.560  0.00  0.00    +0.001 C 
ATOM     10  C   UNL     1      33.337 -19.777 -20.771  0.00  0.00    +0.001 C 
ATOM     11  C   UNL     1      35.457 -21.275 -19.747  0.00  0.00    +0.000 C 
ATOM     12  C   UNL     1      33.083 -20.882 -19.958  0.00  0.00    +0.000 C 
ATOM     13  C   UNL     1      34.143 -21.631 -19.446  0.00  0.00    +0.000 C 
ENDBRANCH   3   8
TORSDOF 1
ENDMDL
MODEL 3
REMARK VINA RESULT:      -6.8      2.077      4.614
REMARK  Name = 69590
REMARK  1 active torsions:
REMARK  status: ('A' for Active; 'I' for Inactive)
REMARK    1  A    between atoms: C_3  and  C_8
REMARK                            x       y       z     vdW  Elec       q    Type
REMARK                         _______ _______ _______ _____ _____    ______ ____
ROOT
ATOM      1  N   UNL     1      35.028 -20.621 -20.274  0.00  0.00    -0.315 N 
ATOM      2  N   UNL     1      33.043 -21.305 -19.552  0.00  0.00    -0.314 N 
ATOM      3  C   UNL     1      34.109 -19.816 -20.881  0.00  0.00    +0.060 C 
ATOM      4  C   UNL     1      32.892 -20.255 -20.422  0.00  0.00    +0.074 C 
ATOM      5  C   UNL     1      34.341 -21.501 -19.485  0.00  0.00    +0.182 C 
ATOM      6  H   UNL     1      36.005 -20.576 -20.384  0.00  0.00    +0.148 HD
ATOM      7  H   UNL     1      32.336 -21.803 -19.081  0.00  0.00    +0.148 HD
ENDROOT
BRANCH   3   8
ATOM      8  C   UNL     1      34.464 -18.757 -21.794  0.00  0.00    +0.014 C 
ATOM      9  C   UNL     1      34.561 -17.443 -21.336  0.00  0.00    +0.001 C 
ATOM     10  C   UNL     1      34.708 -19.048 -23.137  0.00  0.00    +0.001 C 
ATOM     11  C   UNL     1      34.903 -16.420 -22.220  0.00  0.00    +0.000 C 
ATOM     12  C   UNL     1      35.050 -18.024 -24.020  0.00  0.00    +0.000 C 
ATOM     13  C   UNL     1      35.147 -16.710 -23.562  0.00  0.00    +0.000 C 
ENDBRANCH   3   8
TORSDOF 1
ENDMDL
MODEL 4
REMARK VINA RESULT:      -6.6      2.024      4.604
REMARK  Name = 69590
REMARK  1 active torsions:
REMARK  status: ('A' for Active; 'I' for Inactive)
REMARK    1  A    between atoms: C_3  and  C_8
REMARK                            x       y       z     vdW  Elec       q    Type
REMARK                         _______ _______ _______ _____ _____    ______ ____
ROOT
ATOM      1  N   UNL     1      34.618 -20.228 -20.959  0.00  0.00    -0.315 N 
ATOM      2  N   UNL     1      36.464 -20.346 -19.730  0.00  0.00    -0.314 N 
ATOM      3  C   UNL     1      35.487 -19.326 -21.498  0.00  0.00    +0.060 C 
ATOM      4  C   UNL     1      36.618 -19.415 -20.727  0.00  0.00    +0.074 C 
ATOM      5  C   UNL     1      35.248 -20.817 -19.898  0.00  0.00    +0.182 C 
ATOM      6  H   UNL     1      33.705 -20.420 -21.274  0.00  0.00    +0.148 HD
ATOM      7  H   UNL     1      37.119 -20.605 -19.042  0.00  0.00    +0.148 HD
ENDROOT
BRANCH   3   8
ATOM      8  C   UNL     1      35.169 -18.508 -22.644  0.00  0.00    +0.014 C 
ATOM      9  C   UNL     1      34.798 -19.107 -23.848  0.00  0.00    +0.001 C 
ATOM     10  C   UNL     1      35.236 -17.118 -22.546  0.00  0.00    +0.001 C 
ATOM     11  C   UNL     1      34.493 -18.315 -24.955  0.00  0.00    +0.000 C 
ATOM     12  C   UNL     1      34.930 -16.327 -23.654  0.00  0.00    +0.000 C 
ATOM     13  C   UNL     1      34.558 -16.926 -24.858  0.00  0.00    +0.000 C 
ENDBRANCH   3   8
TORSDOF 1
ENDMDL
MODEL 5
REMARK VINA RESULT:      -6.5      3.536      5.727
REMARK  Name = 69590
REMARK  1 active torsions:
REMARK  status: ('A' for Active; 'I' for Inactive)
REMARK    1  A    between atoms: C_3  and  C_8
REMARK                            x       y       z     vdW  Elec       q    Type
REMARK                         _______ _______ _______ _____ _____    ______ ____
ROOT
ATOM      1  N   UNL     1      32.427 -22.548 -18.129  0.00  0.00    -0.315 N 
ATOM      2  N   UNL     1      33.751 -23.596 -16.686  0.00  0.00    -0.314 N 
ATOM      3  C   UNL     1      33.698 -22.155 -18.430  0.00  0.00    +0.060 C 
ATOM      4  C   UNL     1      34.498 -22.813 -17.529  0.00  0.00    +0.074 C 
ATOM      5  C   UNL     1      32.508 -23.413 -17.074  0.00  0.00    +0.182 C 
ATOM      6  H   UNL     1      31.604 -22.261 -18.586  0.00  0.00    +0.148 HD
ATOM      7  H   UNL     1      34.073 -24.169 -15.953  0.00  0.00    +0.148 HD
ENDROOT
BRANCH   3   8
ATOM      8  C   UNL     1      34.011 -21.236 -19.498  0.00  0.00    +0.014 C 
ATOM      9  C   UNL     1      35.333 -21.073 -19.914  0.00  0.00    +0.001 C 
ATOM     10  C   UNL     1      32.991 -20.510 -20.113  0.00  0.00    +0.001 C 
ATOM     11  C   UNL     1      35.634 -20.183 -20.945  0.00  0.00    +0.000 C 
ATOM     12  C   UNL     1      33.293 -19.621 -21.144  0.00  0.00    +0.000 C 
ATOM     13  C   UNL     1      34.615 -19.458 -21.560  0.00  0.00    +0.000 C 
ENDBRANCH   3   8
TORSDOF 1
ENDMDL
MODEL 6
REMARK VINA RESULT:      -6.4      1.847      4.771
REMARK  Name = 69590
REMARK  1 active torsions:
REMARK  status: ('A' for Active; 'I' for Inactive)
REMARK    1  A    between atoms: C_3  and  C_8
REMARK                            x       y       z     vdW  Elec       q    Type
REMARK                         _______ _______ _______ _____ _____    ______ ____
ROOT
ATOM      1  N   UNL     1      36.313 -19.000 -20.703  0.00  0.00    -0.315 N 
ATOM      2  N   UNL     1      34.881 -20.669 -20.391  0.00  0.00    -0.314 N 
ATOM      3  C   UNL     1      35.092 -18.525 -21.083  0.00  0.00    +0.060 C 
ATOM      4  C   UNL     1      34.225 -19.569 -20.883  0.00  0.00    +0.074 C 
ATOM      5  C   UNL     1      36.138 -20.293 -20.295  0.00  0.00    +0.182 C 
ATOM      6  H   UNL     1      37.163 -18.504 -20.719  0.00  0.00    +0.148 HD
ATOM      7  H   UNL     1      34.498 -21.546 -20.161  0.00  0.00    +0.148 HD
ENDROOT
BRANCH   3   8
ATOM      8  C   UNL     1      34.882 -17.185 -21.575  0.00  0.00    +0.014 C 
ATOM      9  C   UNL     1      34.928 -16.929 -22.946  0.00  0.00    +0.001 C 
ATOM     10  C   UNL     1      34.634 -16.145 -20.679  0.00  0.00    +0.001 C 
ATOM     11  C   UNL     1      34.726 -15.633 -23.420  0.00  0.00    +0.000 C 
ATOM     12  C   UNL     1      34.432 -14.849 -21.154  0.00  0.00    +0.000 C 
ATOM     13  C   UNL     1      34.478 -14.593 -22.525  0.00  0.00    +0.000 C 
ENDBRANCH   3   8
TORSDOF 1
ENDMDL
MODEL 7
REMARK VINA RESULT:      -6.4      2.697      5.704
REMARK  Name = 69590
REMARK  1 active torsions:
REMARK  status: ('A' for Active; 'I' for Inactive)
REMARK    1  A    between atoms: C_3  and  C_8
REMARK                            x       y       z     vdW  Elec       q    Type
REMARK                         _______ _______ _______ _____ _____    ______ ____
ROOT
ATOM      1  N   UNL     1      35.791 -17.790 -23.049  0.00  0.00    -0.315 N 
ATOM      2  N   UNL     1      35.613 -17.934 -20.840  0.00  0.00    -0.314 N 
ATOM      3  C   UNL     1      34.940 -16.792 -22.674  0.00  0.00    +0.060 C 
ATOM      4  C   UNL     1      34.845 -16.899 -21.309  0.00  0.00    +0.074 C 
ATOM      5  C   UNL     1      36.169 -18.451 -21.914  0.00  0.00    +0.182 C 
ATOM      6  H   UNL     1      36.079 -17.997 -23.968  0.00  0.00    +0.148 HD
ATOM      7  H   UNL     1      35.724 -18.226 -19.907  0.00  0.00    +0.148 HD
ENDROOT
BRANCH   3   8
ATOM      8  C   UNL     1      34.332 -15.877 -23.610  0.00  0.00    +0.014 C 
ATOM      9  C   UNL     1      34.016 -14.578 -23.211  0.00  0.00    +0.001 C 
ATOM     10  C   UNL     1      34.058 -16.293 -24.913  0.00  0.00    +0.001 C 
ATOM     11  C   UNL     1      33.427 -13.695 -24.115  0.00  0.00    +0.000 C 
ATOM     12  C   UNL     1      33.469 -15.409 -25.817  0.00  0.00    +0.000 C 
ATOM     13  C   UNL     1      33.153 -14.110 -25.418  0.00  0.00    +0.000 C 
ENDBRANCH   3   8
TORSDOF 1
ENDMDL
MODEL 8
REMARK VINA RESULT:      -6.4      2.734      4.058
REMARK  Name = 69590
REMARK  1 active torsions:
REMARK  status: ('A' for Active; 'I' for Inactive)
REMARK    1  A    between atoms: C_3  and  C_8
REMARK                            x       y       z     vdW  Elec       q    Type
REMARK                         _______ _______ _______ _____ _____    ______ ____
ROOT
ATOM      1  N   UNL     1      34.379 -13.899 -23.110  0.00  0.00    -0.315 N 
ATOM      2  N   UNL     1      33.202 -13.502 -24.951  0.00  0.00    -0.314 N 
ATOM      3  C   UNL     1      34.154 -15.117 -23.683  0.00  0.00    +0.060 C 
ATOM      4  C   UNL     1      33.428 -14.849 -24.816  0.00  0.00    +0.074 C 
ATOM      5  C   UNL     1      33.788 -12.959 -23.906  0.00  0.00    +0.182 C 
ATOM      6  H   UNL     1      34.875 -13.729 -22.276  0.00  0.00    +0.148 HD
ATOM      7  H   UNL     1      32.711 -13.044 -25.670  0.00  0.00    +0.148 HD
ENDROOT
BRANCH   3   8
ATOM      8  C   UNL     1      34.633 -16.357 -23.121  0.00  0.00    +0.014 C 
ATOM      9  C   UNL     1      34.912 -17.439 -23.956  0.00  0.00    +0.001 C 
ATOM     10  C   UNL     1      34.816 -16.472 -21.743  0.00  0.00    +0.001 C 
ATOM     11  C   UNL     1      35.374 -18.638 -23.411  0.00  0.00    +0.000 C 
ATOM     12  C   UNL     1      35.278 -17.671 -21.200  0.00  0.00    +0.000 C 
ATOM     13  C   UNL     1      35.557 -18.754 -22.034  0.00  0.00    +0.000 C 
ENDBRANCH   3   8
TORSDOF 1
ENDMDL
MODEL 9
REMARK VINA RESULT:      -6.4      2.731      4.038
REMARK  Name = 69590
REMARK  1 active torsions:
REMARK  status: ('A' for Active; 'I' for Inactive)
REMARK    1  A    between atoms: C_3  and  C_8
REMARK                            x       y       z     vdW  Elec       q    Type
REMARK                         _______ _______ _______ _____ _____    ______ ____
ROOT
ATOM      1  N   UNL     1      34.377 -13.900 -23.068  0.00  0.00    -0.315 N 
ATOM      2  N   UNL     1      33.223 -13.477 -24.918  0.00  0.00    -0.314 N 
ATOM      3  C   UNL     1      34.160 -15.109 -23.661  0.00  0.00    +0.060 C 
ATOM      4  C   UNL     1      33.447 -14.825 -24.799  0.00  0.00    +0.074 C 
ATOM      5  C   UNL     1      33.795 -12.948 -23.858  0.00  0.00    +0.182 C 
ATOM      6  H   UNL     1      34.862 -13.742 -22.226  0.00  0.00    +0.148 HD
ATOM      7  H   UNL     1      32.740 -13.007 -25.636  0.00  0.00    +0.148 HD
ENDROOT
BRANCH   3   8
ATOM      8  C   UNL     1      34.632 -16.357 -23.112  0.00  0.00    +0.014 C 
ATOM      9  C   UNL     1      34.827 -16.486 -21.737  0.00  0.00    +0.001 C 
ATOM     10  C   UNL     1      34.895 -17.435 -23.959  0.00  0.00    +0.001 C 
ATOM     11  C   UNL     1      35.285 -17.692 -21.208  0.00  0.00    +0.000 C 
ATOM     12  C   UNL     1      35.353 -18.641 -23.428  0.00  0.00    +0.000 C 
ATOM     13  C   UNL     1      35.548 -18.770 -22.053  0.00  0.00    +0.000 C 
ENDBRANCH   3   8
TORSDOF 1
ENDMDL
