MODEL 1
REMARK VINA RESULT:      -6.9      0.000      0.000
REMARK  Name = 5288150
REMARK  9 active torsions:
REMARK  status: ('A' for Active; 'I' for Inactive)
REMARK    1  A    between atoms: C_2  and  O_7
REMARK    2  A    between atoms: C_3  and  O_9
REMARK    3  A    between atoms: C_4  and  O_11
REMARK    4  A    between atoms: C_5  and  C_19
REMARK    5  A    between atoms: C_6  and  O_13
REMARK    6  A    between atoms: O_13  and  C_14
REMARK    7  A    between atoms: C_14  and  C_15
REMARK    8  A    between atoms: C_15  and  C_17
REMARK    9  A    between atoms: C_19  and  O_20
REMARK                            x       y       z     vdW  Elec       q    Type
REMARK                         _______ _______ _______ _____ _____    ______ ____
ROOT
ATOM      1  O   UNL     1      36.454 -23.359 -13.908  0.00  0.00    -0.326 OA
ATOM      2  C   UNL     1      37.050 -26.182 -13.806  0.00  0.00    +0.172 C 
ATOM      3  C   UNL     1      37.611 -25.193 -12.782  0.00  0.00    +0.169 C 
ATOM      4  C   UNL     1      36.685 -25.463 -15.103  0.00  0.00    +0.196 C 
ATOM      5  C   UNL     1      36.698 -23.968 -12.636  0.00  0.00    +0.176 C 
ATOM      6  C   UNL     1      35.815 -24.232 -14.842  0.00  0.00    +0.266 C 
ENDROOT
BRANCH   2   7
ATOM      7  O   UNL     1      38.056 -27.161 -14.081  0.00  0.00    -0.379 OA
ATOM      8  H   UNL     1      38.845 -26.722 -14.435  0.00  0.00    +0.211 HD
ENDBRANCH   2   7
BRANCH   3   9
ATOM      9  O   UNL     1      37.733 -25.871 -11.535  0.00  0.00    -0.379 OA
ATOM     10  H   UNL     1      37.740 -26.829 -11.686  0.00  0.00    +0.211 HD
ENDBRANCH   3   9
BRANCH   4  11
ATOM     11  O   UNL     1      36.011 -26.368 -15.970  0.00  0.00    -0.378 OA
ATOM     12  H   UNL     1      35.423 -25.873 -16.561  0.00  0.00    +0.211 HD
ENDBRANCH   4  11
BRANCH   6  13
ATOM     13  O   UNL     1      34.489 -24.574 -14.441  0.00  0.00    -0.329 OA
BRANCH  13  14
ATOM     14  C   UNL     1      33.524 -23.798 -15.135  0.00  0.00    +0.147 C 
BRANCH  14  15
ATOM     15  C   UNL     1      34.162 -23.177 -16.371  0.00  0.00    +0.064 C 
BRANCH  15  17
ATOM     16  O   UNL     1      33.692 -23.830 -18.689  0.00  0.00    -0.351 OA
ATOM     17  C   UNL     1      33.219 -23.136 -17.537  0.00  0.00    +0.147 C 
ATOM     18  C   UNL     1      33.586 -22.404 -18.784  0.00  0.00    +0.172 C 
ENDBRANCH  15  17
ENDBRANCH  14  15
ENDBRANCH  13  14
ENDBRANCH   6  13
BRANCH   5  19
ATOM     19  C   UNL     1      37.314 -22.898 -11.739  0.00  0.00    +0.169 C 
BRANCH  19  20
ATOM     20  O   UNL     1      38.714 -23.103 -11.690  0.00  0.00    -0.379 OA
ATOM     21  H   UNL     1      39.161 -22.254 -11.550  0.00  0.00    +0.211 HD
ENDBRANCH  19  20
ENDBRANCH   5  19
TORSDOF 9
ENDMDL
MODEL 2
REMARK VINA RESULT:      -6.9      1.588      2.731
REMARK  Name = 5288150
REMARK  9 active torsions:
REMARK  status: ('A' for Active; 'I' for Inactive)
REMARK    1  A    between atoms: C_2  and  O_7
REMARK    2  A    between atoms: C_3  and  O_9
REMARK    3  A    between atoms: C_4  and  O_11
REMARK    4  A    between atoms: C_5  and  C_19
REMARK    5  A    between atoms: C_6  and  O_13
REMARK    6  A    between atoms: O_13  and  C_14
REMARK    7  A    between atoms: C_14  and  C_15
REMARK    8  A    between atoms: C_15  and  C_17
REMARK    9  A    between atoms: C_19  and  O_20
REMARK                            x       y       z     vdW  Elec       q    Type
REMARK                         _______ _______ _______ _____ _____    ______ ____
ROOT
ATOM      1  O   UNL     1      36.825 -25.313 -13.965  0.00  0.00    -0.326 OA
ATOM      2  C   UNL     1      36.716 -23.613 -11.634  0.00  0.00    +0.172 C 
ATOM      3  C   UNL     1      37.999 -24.331 -12.060  0.00  0.00    +0.169 C 
ATOM      4  C   UNL     1      35.488 -24.333 -12.187  0.00  0.00    +0.196 C 
ATOM      5  C   UNL     1      38.005 -24.605 -13.570  0.00  0.00    +0.176 C 
ATOM      6  C   UNL     1      35.618 -24.601 -13.687  0.00  0.00    +0.266 C 
ENDROOT
BRANCH   2   7
ATOM      7  O   UNL     1      36.655 -23.614 -10.205  0.00  0.00    -0.379 OA
ATOM      8  H   UNL     1      37.470 -23.998  -9.847  0.00  0.00    +0.211 HD
ENDBRANCH   2   7
BRANCH   3   9
ATOM      9  O   UNL     1      39.105 -23.507 -11.701  0.00  0.00    -0.379 OA
ATOM     10  H   UNL     1      39.351 -22.949 -12.455  0.00  0.00    +0.211 HD
ENDBRANCH   3   9
BRANCH   4  11
ATOM     11  O   UNL     1      34.326 -23.555 -11.923  0.00  0.00    -0.378 OA
ATOM     12  H   UNL     1      34.185 -22.928 -12.649  0.00  0.00    +0.211 HD
ENDBRANCH   4  11
BRANCH   6  13
ATOM     13  O   UNL     1      35.501 -23.413 -14.468  0.00  0.00    -0.329 OA
BRANCH  13  14
ATOM     14  C   UNL     1      34.339 -23.442 -15.283  0.00  0.00    +0.147 C 
BRANCH  14  15
ATOM     15  C   UNL     1      34.714 -23.098 -16.718  0.00  0.00    +0.064 C 
BRANCH  15  17
ATOM     16  O   UNL     1      33.843 -23.581 -18.960  0.00  0.00    -0.351 OA
ATOM     17  C   UNL     1      33.533 -23.140 -17.641  0.00  0.00    +0.147 C 
ATOM     18  C   UNL     1      33.445 -22.213 -18.806  0.00  0.00    +0.172 C 
ENDBRANCH  15  17
ENDBRANCH  14  15
ENDBRANCH  13  14
ENDBRANCH   6  13
BRANCH   5  19
ATOM     19  C   UNL     1      39.199 -25.457 -13.992  0.00  0.00    +0.169 C 
BRANCH  19  20
ATOM     20  O   UNL     1      40.323 -24.611 -14.151  0.00  0.00    -0.379 OA
ATOM     21  H   UNL     1      40.066 -23.825 -14.658  0.00  0.00    +0.211 HD
ENDBRANCH  19  20
ENDBRANCH   5  19
TORSDOF 9
ENDMDL
MODEL 3
REMARK VINA RESULT:      -6.8      2.302      2.400
REMARK  Name = 5288150
REMARK  9 active torsions:
REMARK  status: ('A' for Active; 'I' for Inactive)
REMARK    1  A    between atoms: C_2  and  O_7
REMARK    2  A    between atoms: C_3  and  O_9
REMARK    3  A    between atoms: C_4  and  O_11
REMARK    4  A    between atoms: C_5  and  C_19
REMARK    5  A    between atoms: C_6  and  O_13
REMARK    6  A    between atoms: O_13  and  C_14
REMARK    7  A    between atoms: C_14  and  C_15
REMARK    8  A    between atoms: C_15  and  C_17
REMARK    9  A    between atoms: C_19  and  O_20
REMARK                            x       y       z     vdW  Elec       q    Type
REMARK                         _______ _______ _______ _____ _____    ______ ____
ROOT
ATOM      1  O   UNL     1      38.074 -23.442 -13.689  0.00  0.00    -0.326 OA
ATOM      2  C   UNL     1      36.708 -25.986 -13.721  0.00  0.00    +0.172 C 
ATOM      3  C   UNL     1      36.732 -25.088 -12.481  0.00  0.00    +0.169 C 
ATOM      4  C   UNL     1      37.895 -25.676 -14.630  0.00  0.00    +0.196 C 
ATOM      5  C   UNL     1      36.915 -23.614 -12.867  0.00  0.00    +0.176 C 
ATOM      6  C   UNL     1      38.015 -24.178 -14.913  0.00  0.00    +0.266 C 
ENDROOT
BRANCH   2   7
ATOM      7  O   UNL     1      36.792 -27.347 -13.290  0.00  0.00    -0.379 OA
ATOM      8  H   UNL     1      37.557 -27.454 -12.704  0.00  0.00    +0.211 HD
ENDBRANCH   2   7
BRANCH   3   9
ATOM      9  O   UNL     1      35.503 -25.269 -11.783  0.00  0.00    -0.379 OA
ATOM     10  H   UNL     1      34.827 -24.684 -12.161  0.00  0.00    +0.211 HD
ENDBRANCH   3   9
BRANCH   4  11
ATOM     11  O   UNL     1      37.756 -26.399 -15.849  0.00  0.00    -0.378 OA
ATOM     12  H   UNL     1      38.634 -26.581 -16.219  0.00  0.00    +0.211 HD
ENDBRANCH   4  11
BRANCH   6  13
ATOM     13  O   UNL     1      36.989 -23.700 -15.781  0.00  0.00    -0.329 OA
BRANCH  13  14
ATOM     14  C   UNL     1      37.366 -22.483 -16.406  0.00  0.00    +0.147 C 
BRANCH  14  15
ATOM     15  C   UNL     1      36.223 -21.983 -17.280  0.00  0.00    +0.064 C 
BRANCH  15  17
ATOM     16  O   UNL     1      36.251 -20.466 -19.208  0.00  0.00    -0.351 OA
ATOM     17  C   UNL     1      36.656 -21.733 -18.694  0.00  0.00    +0.147 C 
ATOM     18  C   UNL     1      35.648 -21.629 -19.789  0.00  0.00    +0.172 C 
ENDBRANCH  15  17
ENDBRANCH  14  15
ENDBRANCH  13  14
ENDBRANCH   6  13
BRANCH   5  19
ATOM     19  C   UNL     1      37.099 -22.720 -11.644  0.00  0.00    +0.169 C 
BRANCH  19  20
ATOM     20  O   UNL     1      37.148 -23.540 -10.491  0.00  0.00    -0.379 OA
ATOM     21  H   UNL     1      36.531 -23.199  -9.825  0.00  0.00    +0.211 HD
ENDBRANCH  19  20
ENDBRANCH   5  19
TORSDOF 9
ENDMDL
MODEL 4
REMARK VINA RESULT:      -6.8      2.053      3.436
REMARK  Name = 5288150
REMARK  9 active torsions:
REMARK  status: ('A' for Active; 'I' for Inactive)
REMARK    1  A    between atoms: C_2  and  O_7
REMARK    2  A    between atoms: C_3  and  O_9
REMARK    3  A    between atoms: C_4  and  O_11
REMARK    4  A    between atoms: C_5  and  C_19
REMARK    5  A    between atoms: C_6  and  O_13
REMARK    6  A    between atoms: O_13  and  C_14
REMARK    7  A    between atoms: C_14  and  C_15
REMARK    8  A    between atoms: C_15  and  C_17
REMARK    9  A    between atoms: C_19  and  O_20
REMARK                            x       y       z     vdW  Elec       q    Type
REMARK                         _______ _______ _______ _____ _____    ______ ____
ROOT
ATOM      1  O   UNL     1      36.639 -25.043 -14.268  0.00  0.00    -0.326 OA
ATOM      2  C   UNL     1      36.684 -23.675 -11.726  0.00  0.00    +0.172 C 
ATOM      3  C   UNL     1      37.926 -24.352 -12.309  0.00  0.00    +0.169 C 
ATOM      4  C   UNL     1      35.413 -24.289 -12.309  0.00  0.00    +0.196 C 
ATOM      5  C   UNL     1      37.854 -24.418 -13.841  0.00  0.00    +0.176 C 
ATOM      6  C   UNL     1      35.465 -24.353 -13.836  0.00  0.00    +0.266 C 
ENDROOT
BRANCH   2   7
ATOM      7  O   UNL     1      36.690 -23.869 -10.310  0.00  0.00    -0.379 OA
ATOM      8  H   UNL     1      35.994 -23.328  -9.906  0.00  0.00    +0.211 HD
ENDBRANCH   2   7
BRANCH   3   9
ATOM      9  O   UNL     1      39.069 -23.606 -11.899  0.00  0.00    -0.379 OA
ATOM     10  H   UNL     1      38.791 -22.885 -11.313  0.00  0.00    +0.211 HD
ENDBRANCH   3   9
BRANCH   4  11
ATOM     11  O   UNL     1      34.285 -23.532 -11.884  0.00  0.00    -0.378 OA
ATOM     12  H   UNL     1      33.639 -23.483 -12.605  0.00  0.00    +0.211 HD
ENDBRANCH   4  11
BRANCH   6  13
ATOM     13  O   UNL     1      35.341 -23.067 -14.442  0.00  0.00    -0.329 OA
BRANCH  13  14
ATOM     14  C   UNL     1      34.454 -23.100 -15.549  0.00  0.00    +0.147 C 
BRANCH  14  15
ATOM     15  C   UNL     1      33.189 -23.858 -15.166  0.00  0.00    +0.064 C 
BRANCH  15  17
ATOM     16  O   UNL     1      31.829 -23.271 -13.210  0.00  0.00    -0.351 OA
ATOM     17  C   UNL     1      32.149 -22.960 -14.564  0.00  0.00    +0.147 C 
ATOM     18  C   UNL     1      30.808 -23.496 -14.190  0.00  0.00    +0.172 C 
ENDBRANCH  15  17
ENDBRANCH  14  15
ENDBRANCH  13  14
ENDBRANCH   6  13
BRANCH   5  19
ATOM     19  C   UNL     1      39.005 -25.228 -14.434  0.00  0.00    +0.169 C 
BRANCH  19  20
ATOM     20  O   UNL     1      39.513 -26.088 -13.431  0.00  0.00    -0.379 OA
ATOM     21  H   UNL     1      38.822 -26.709 -13.156  0.00  0.00    +0.211 HD
ENDBRANCH  19  20
ENDBRANCH   5  19
TORSDOF 9
ENDMDL
MODEL 5
REMARK VINA RESULT:      -6.7      4.177      6.475
REMARK  Name = 5288150
REMARK  9 active torsions:
REMARK  status: ('A' for Active; 'I' for Inactive)
REMARK    1  A    between atoms: C_2  and  O_7
REMARK    2  A    between atoms: C_3  and  O_9
REMARK    3  A    between atoms: C_4  and  O_11
REMARK    4  A    between atoms: C_5  and  C_19
REMARK    5  A    between atoms: C_6  and  O_13
REMARK    6  A    between atoms: O_13  and  C_14
REMARK    7  A    between atoms: C_14  and  C_15
REMARK    8  A    between atoms: C_15  and  C_17
REMARK    9  A    between atoms: C_19  and  O_20
REMARK                            x       y       z     vdW  Elec       q    Type
REMARK                         _______ _______ _______ _____ _____    ______ ____
ROOT
ATOM      1  O   UNL     1      30.723 -22.645 -15.924  0.00  0.00    -0.326 OA
ATOM      2  C   UNL     1      30.743 -24.501 -13.713  0.00  0.00    +0.172 C 
ATOM      3  C   UNL     1      29.489 -24.248 -14.554  0.00  0.00    +0.169 C 
ATOM      4  C   UNL     1      31.696 -23.311 -13.799  0.00  0.00    +0.196 C 
ATOM      5  C   UNL     1      29.855 -23.783 -15.970  0.00  0.00    +0.176 C 
ATOM      6  C   UNL     1      31.956 -22.898 -15.249  0.00  0.00    +0.266 C 
ENDROOT
BRANCH   2   7
ATOM      7  O   UNL     1      30.342 -24.681 -12.353  0.00  0.00    -0.379 OA
ATOM      8  H   UNL     1      29.725 -23.976 -12.102  0.00  0.00    +0.211 HD
ENDBRANCH   2   7
BRANCH   3   9
ATOM      9  O   UNL     1      28.743 -25.461 -14.608  0.00  0.00    -0.379 OA
ATOM     10  H   UNL     1      27.794 -25.259 -14.593  0.00  0.00    +0.211 HD
ENDBRANCH   3   9
BRANCH   4  11
ATOM     11  O   UNL     1      32.921 -23.641 -13.153  0.00  0.00    -0.378 OA
ATOM     12  H   UNL     1      32.878 -24.551 -12.823  0.00  0.00    +0.211 HD
ENDBRANCH   4  11
BRANCH   6  13
ATOM     13  O   UNL     1      32.771 -23.838 -15.948  0.00  0.00    -0.329 OA
BRANCH  13  14
ATOM     14  C   UNL     1      33.833 -23.191 -16.633  0.00  0.00    +0.147 C 
BRANCH  14  15
ATOM     15  C   UNL     1      33.571 -23.231 -18.133  0.00  0.00    +0.064 C 
BRANCH  15  17
ATOM     16  O   UNL     1      32.768 -21.915 -20.042  0.00  0.00    -0.351 OA
ATOM     17  C   UNL     1      33.188 -21.888 -18.680  0.00  0.00    +0.147 C 
ATOM     18  C   UNL     1      34.002 -21.245 -19.752  0.00  0.00    +0.172 C 
ENDBRANCH  15  17
ENDBRANCH  14  15
ENDBRANCH  13  14
ENDBRANCH   6  13
BRANCH   5  19
ATOM     19  C   UNL     1      28.624 -23.374 -16.775  0.00  0.00    +0.169 C 
BRANCH  19  20
ATOM     20  O   UNL     1      27.993 -24.546 -17.257  0.00  0.00    -0.379 OA
ATOM     21  H   UNL     1      28.608 -25.293 -17.197  0.00  0.00    +0.211 HD
ENDBRANCH  19  20
ENDBRANCH   5  19
TORSDOF 9
ENDMDL
MODEL 6
REMARK VINA RESULT:      -6.6      3.484      6.820
REMARK  Name = 5288150
REMARK  9 active torsions:
REMARK  status: ('A' for Active; 'I' for Inactive)
REMARK    1  A    between atoms: C_2  and  O_7
REMARK    2  A    between atoms: C_3  and  O_9
REMARK    3  A    between atoms: C_4  and  O_11
REMARK    4  A    between atoms: C_5  and  C_19
REMARK    5  A    between atoms: C_6  and  O_13
REMARK    6  A    between atoms: O_13  and  C_14
REMARK    7  A    between atoms: C_14  and  C_15
REMARK    8  A    between atoms: C_15  and  C_17
REMARK    9  A    between atoms: C_19  and  O_20
REMARK                            x       y       z     vdW  Elec       q    Type
REMARK                         _______ _______ _______ _____ _____    ______ ____
ROOT
ATOM      1  O   UNL     1      30.543 -22.674 -15.980  0.00  0.00    -0.326 OA
ATOM      2  C   UNL     1      30.605 -24.494 -13.739  0.00  0.00    +0.172 C 
ATOM      3  C   UNL     1      29.345 -24.282 -14.582  0.00  0.00    +0.169 C 
ATOM      4  C   UNL     1      31.532 -23.285 -13.845  0.00  0.00    +0.196 C 
ATOM      5  C   UNL     1      29.701 -23.832 -16.006  0.00  0.00    +0.176 C 
ATOM      6  C   UNL     1      31.782 -22.890 -15.301  0.00  0.00    +0.266 C 
ENDROOT
BRANCH   2   7
ATOM      7  O   UNL     1      30.208 -24.661 -12.375  0.00  0.00    -0.379 OA
ATOM      8  H   UNL     1      30.741 -25.360 -11.967  0.00  0.00    +0.211 HD
ENDBRANCH   2   7
BRANCH   3   9
ATOM      9  O   UNL     1      28.626 -25.511 -14.617  0.00  0.00    -0.379 OA
ATOM     10  H   UNL     1      29.133 -26.197 -14.154  0.00  0.00    +0.211 HD
ENDBRANCH   3   9
BRANCH   4  11
ATOM     11  O   UNL     1      32.764 -23.577 -13.194  0.00  0.00    -0.378 OA
ATOM     12  H   UNL     1      33.498 -23.417 -13.806  0.00  0.00    +0.211 HD
ENDBRANCH   4  11
BRANCH   6  13
ATOM     13  O   UNL     1      32.617 -23.822 -15.986  0.00  0.00    -0.329 OA
BRANCH  13  14
ATOM     14  C   UNL     1      33.613 -23.160 -16.750  0.00  0.00    +0.147 C 
BRANCH  14  15
ATOM     15  C   UNL     1      34.929 -23.162 -15.983  0.00  0.00    +0.064 C 
BRANCH  15  17
ATOM     16  O   UNL     1      35.446 -24.460 -13.966  0.00  0.00    -0.351 OA
ATOM     17  C   UNL     1      35.230 -24.499 -15.374  0.00  0.00    +0.147 C 
ATOM     18  C   UNL     1      36.573 -24.782 -14.790  0.00  0.00    +0.172 C 
ENDBRANCH  15  17
ENDBRANCH  14  15
ENDBRANCH  13  14
ENDBRANCH   6  13
BRANCH   5  19
ATOM     19  C   UNL     1      28.461 -23.463 -16.816  0.00  0.00    +0.169 C 
BRANCH  19  20
ATOM     20  O   UNL     1      27.836 -24.657 -17.251  0.00  0.00    -0.379 OA
ATOM     21  H   UNL     1      26.985 -24.760 -16.797  0.00  0.00    +0.211 HD
ENDBRANCH  19  20
ENDBRANCH   5  19
TORSDOF 9
ENDMDL
MODEL 7
REMARK VINA RESULT:      -6.6      1.815      2.368
REMARK  Name = 5288150
REMARK  9 active torsions:
REMARK  status: ('A' for Active; 'I' for Inactive)
REMARK    1  A    between atoms: C_2  and  O_7
REMARK    2  A    between atoms: C_3  and  O_9
REMARK    3  A    between atoms: C_4  and  O_11
REMARK    4  A    between atoms: C_5  and  C_19
REMARK    5  A    between atoms: C_6  and  O_13
REMARK    6  A    between atoms: O_13  and  C_14
REMARK    7  A    between atoms: C_14  and  C_15
REMARK    8  A    between atoms: C_15  and  C_17
REMARK    9  A    between atoms: C_19  and  O_20
REMARK                            x       y       z     vdW  Elec       q    Type
REMARK                         _______ _______ _______ _____ _____    ______ ____
ROOT
ATOM      1  O   UNL     1      36.143 -23.410 -13.747  0.00  0.00    -0.326 OA
ATOM      2  C   UNL     1      37.093 -26.133 -13.892  0.00  0.00    +0.172 C 
ATOM      3  C   UNL     1      37.627 -25.137 -12.860  0.00  0.00    +0.169 C 
ATOM      4  C   UNL     1      36.512 -25.397 -15.098  0.00  0.00    +0.196 C 
ATOM      5  C   UNL     1      36.588 -24.052 -12.547  0.00  0.00    +0.176 C 
ATOM      6  C   UNL     1      35.527 -24.306 -14.674  0.00  0.00    +0.266 C 
ENDROOT
BRANCH   2   7
ATOM      7  O   UNL     1      38.179 -26.956 -14.325  0.00  0.00    -0.379 OA
ATOM      8  H   UNL     1      37.842 -27.658 -14.903  0.00  0.00    +0.211 HD
ENDBRANCH   2   7
BRANCH   3   9
ATOM      9  O   UNL     1      37.958 -25.862 -11.678  0.00  0.00    -0.379 OA
ATOM     10  H   UNL     1      37.147 -26.069 -11.188  0.00  0.00    +0.211 HD
ENDBRANCH   3   9
BRANCH   4  11
ATOM     11  O   UNL     1      35.872 -26.333 -15.958  0.00  0.00    -0.378 OA
ATOM     12  H   UNL     1      35.217 -25.874 -16.506  0.00  0.00    +0.211 HD
ENDBRANCH   4  11
BRANCH   6  13
ATOM     13  O   UNL     1      34.301 -24.839 -14.175  0.00  0.00    -0.329 OA
BRANCH  13  14
ATOM     14  C   UNL     1      33.348 -23.813 -13.944  0.00  0.00    +0.147 C 
BRANCH  14  15
ATOM     15  C   UNL     1      32.143 -24.022 -14.852  0.00  0.00    +0.064 C 
BRANCH  15  17
ATOM     16  O   UNL     1      30.461 -25.802 -14.709  0.00  0.00    -0.351 OA
ATOM     17  C   UNL     1      30.974 -24.609 -14.120  0.00  0.00    +0.147 C 
ATOM     18  C   UNL     1      29.622 -24.640 -14.749  0.00  0.00    +0.172 C 
ENDBRANCH  15  17
ENDBRANCH  14  15
ENDBRANCH  13  14
ENDBRANCH   6  13
BRANCH   5  19
ATOM     19  C   UNL     1      37.154 -22.962 -11.641  0.00  0.00    +0.169 C 
BRANCH  19  20
ATOM     20  O   UNL     1      38.567 -23.040 -11.671  0.00  0.00    -0.379 OA
ATOM     21  H   UNL     1      38.838 -23.962 -11.798  0.00  0.00    +0.211 HD
ENDBRANCH  19  20
ENDBRANCH   5  19
TORSDOF 9
ENDMDL
MODEL 8
REMARK VINA RESULT:      -6.6      2.136      2.582
REMARK  Name = 5288150
REMARK  9 active torsions:
REMARK  status: ('A' for Active; 'I' for Inactive)
REMARK    1  A    between atoms: C_2  and  O_7
REMARK    2  A    between atoms: C_3  and  O_9
REMARK    3  A    between atoms: C_4  and  O_11
REMARK    4  A    between atoms: C_5  and  C_19
REMARK    5  A    between atoms: C_6  and  O_13
REMARK    6  A    between atoms: O_13  and  C_14
REMARK    7  A    between atoms: C_14  and  C_15
REMARK    8  A    between atoms: C_15  and  C_17
REMARK    9  A    between atoms: C_19  and  O_20
REMARK                            x       y       z     vdW  Elec       q    Type
REMARK                         _______ _______ _______ _____ _____    ______ ____
ROOT
ATOM      1  O   UNL     1      34.953 -23.455 -12.914  0.00  0.00    -0.326 OA
ATOM      2  C   UNL     1      35.992 -25.437 -14.738  0.00  0.00    +0.172 C 
ATOM      3  C   UNL     1      36.512 -25.295 -13.306  0.00  0.00    +0.169 C 
ATOM      4  C   UNL     1      35.363 -24.129 -15.213  0.00  0.00    +0.196 C 
ATOM      5  C   UNL     1      35.443 -24.692 -12.385  0.00  0.00    +0.176 C 
ATOM      6  C   UNL     1      34.349 -23.589 -14.202  0.00  0.00    +0.266 C 
ENDROOT
BRANCH   2   7
ATOM      7  O   UNL     1      37.097 -25.760 -15.586  0.00  0.00    -0.379 OA
ATOM      8  H   UNL     1      37.522 -26.571 -15.269  0.00  0.00    +0.211 HD
ENDBRANCH   2   7
BRANCH   3   9
ATOM      9  O   UNL     1      36.890 -26.589 -12.844  0.00  0.00    -0.379 OA
ATOM     10  H   UNL     1      37.054 -27.169 -13.604  0.00  0.00    +0.211 HD
ENDBRANCH   3   9
BRANCH   4  11
ATOM     11  O   UNL     1      34.738 -24.338 -16.475  0.00  0.00    -0.378 OA
ATOM     12  H   UNL     1      35.354 -24.098 -17.184  0.00  0.00    +0.211 HD
ENDBRANCH   4  11
BRANCH   6  13
ATOM     13  O   UNL     1      33.152 -24.364 -14.160  0.00  0.00    -0.329 OA
BRANCH  13  14
ATOM     14  C   UNL     1      32.061 -23.603 -13.665  0.00  0.00    +0.147 C 
BRANCH  14  15
ATOM     15  C   UNL     1      31.564 -22.658 -14.751  0.00  0.00    +0.064 C 
BRANCH  15  17
ATOM     16  O   UNL     1      30.631 -22.546 -17.017  0.00  0.00    -0.351 OA
ATOM     17  C   UNL     1      31.024 -23.394 -15.941  0.00  0.00    +0.147 C 
ATOM     18  C   UNL     1      29.591 -23.256 -16.332  0.00  0.00    +0.172 C 
ENDBRANCH  15  17
ENDBRANCH  14  15
ENDBRANCH  13  14
ENDBRANCH   6  13
BRANCH   5  19
ATOM     19  C   UNL     1      35.989 -24.395 -10.991  0.00  0.00    +0.169 C 
BRANCH  19  20
ATOM     20  O   UNL     1      35.240 -25.139 -10.047  0.00  0.00    -0.379 OA
ATOM     21  H   UNL     1      34.405 -24.682  -9.864  0.00  0.00    +0.211 HD
ENDBRANCH  19  20
ENDBRANCH   5  19
TORSDOF 9
ENDMDL
MODEL 9
REMARK VINA RESULT:      -6.5      2.011      5.292
REMARK  Name = 5288150
REMARK  9 active torsions:
REMARK  status: ('A' for Active; 'I' for Inactive)
REMARK    1  A    between atoms: C_2  and  O_7
REMARK    2  A    between atoms: C_3  and  O_9
REMARK    3  A    between atoms: C_4  and  O_11
REMARK    4  A    between atoms: C_5  and  C_19
REMARK    5  A    between atoms: C_6  and  O_13
REMARK    6  A    between atoms: O_13  and  C_14
REMARK    7  A    between atoms: C_14  and  C_15
REMARK    8  A    between atoms: C_15  and  C_17
REMARK    9  A    between atoms: C_19  and  O_20
REMARK                            x       y       z     vdW  Elec       q    Type
REMARK                         _______ _______ _______ _____ _____    ______ ____
ROOT
ATOM      1  O   UNL     1      36.601 -23.107 -14.133  0.00  0.00    -0.326 OA
ATOM      2  C   UNL     1      33.969 -23.955 -14.963  0.00  0.00    +0.172 C 
ATOM      3  C   UNL     1      34.823 -23.004 -15.805  0.00  0.00    +0.169 C 
ATOM      4  C   UNL     1      34.394 -23.902 -13.497  0.00  0.00    +0.196 C 
ATOM      5  C   UNL     1      36.319 -23.212 -15.532  0.00  0.00    +0.176 C 
ATOM      6  C   UNL     1      35.906 -24.072 -13.340  0.00  0.00    +0.266 C 
ENDROOT
BRANCH   2   7
ATOM      7  O   UNL     1      32.604 -23.545 -15.070  0.00  0.00    -0.379 OA
ATOM      8  H   UNL     1      32.564 -22.586 -15.206  0.00  0.00    +0.211 HD
ENDBRANCH   2   7
BRANCH   3   9
ATOM      9  O   UNL     1      34.531 -23.249 -17.179  0.00  0.00    -0.379 OA
ATOM     10  H   UNL     1      33.588 -23.093 -17.343  0.00  0.00    +0.211 HD
ENDBRANCH   3   9
BRANCH   4  11
ATOM     11  O   UNL     1      33.706 -24.914 -12.770  0.00  0.00    -0.378 OA
ATOM     12  H   UNL     1      33.023 -24.507 -12.216  0.00  0.00    +0.211 HD
ENDBRANCH   4  11
BRANCH   6  13
ATOM     13  O   UNL     1      36.339 -25.404 -13.609  0.00  0.00    -0.329 OA
BRANCH  13  14
ATOM     14  C   UNL     1      37.189 -25.888 -12.580  0.00  0.00    +0.147 C 
BRANCH  14  15
ATOM     15  C   UNL     1      38.642 -25.617 -12.950  0.00  0.00    +0.064 C 
BRANCH  15  17
ATOM     16  O   UNL     1      40.009 -26.737 -14.652  0.00  0.00    -0.351 OA
ATOM     17  C   UNL     1      38.913 -25.860 -14.405  0.00  0.00    +0.147 C 
ATOM     18  C   UNL     1      40.171 -25.365 -15.035  0.00  0.00    +0.172 C 
ENDBRANCH  15  17
ENDBRANCH  14  15
ENDBRANCH  13  14
ENDBRANCH   6  13
BRANCH   5  19
ATOM     19  C   UNL     1      37.181 -22.171 -16.241  0.00  0.00    +0.169 C 
BRANCH  19  20
ATOM     20  O   UNL     1      37.131 -22.418 -17.634  0.00  0.00    -0.379 OA
ATOM     21  H   UNL     1      36.268 -22.143 -17.981  0.00  0.00    +0.211 HD
ENDBRANCH  19  20
ENDBRANCH   5  19
TORSDOF 9
ENDMDL
