MODEL 1
REMARK VINA RESULT:      -6.8      0.000      0.000
REMARK  Name = 46936889
REMARK  9 active torsions:
REMARK  status: ('A' for Active; 'I' for Inactive)
REMARK    1  A    between atoms: N_2  and  C_8
REMARK    2  A    between atoms: N_3  and  N_7
REMARK    3  A    between atoms: N_3  and  C_18
REMARK    4  A    between atoms: C_8  and  P_10
REMARK    5  A    between atoms: P_10  and  O_12
REMARK    6  A    between atoms: P_10  and  O_15
REMARK    7  A    between atoms: O_12  and  C_13
REMARK    8  A    between atoms: O_15  and  C_16
REMARK    9  A    between atoms: C_18  and  C_20
REMARK                            x       y       z     vdW  Elec       q    Type
REMARK                         _______ _______ _______ _____ _____    ______ ____
ROOT
ATOM      1  O   UNL     1      32.609 -19.821 -20.979  0.00  0.00    -0.251 OA
ATOM      2  N   UNL     1      34.791 -19.412 -21.587  0.00  0.00    -0.279 N 
ATOM      3  N   UNL     1      34.293 -21.007 -19.917  0.00  0.00    -0.163 N 
ATOM      4  C   UNL     1      33.813 -20.064 -20.839  0.00  0.00    +0.321 C 
ATOM      5  H   UNL     1      35.735 -19.647 -21.433  0.00  0.00    +0.152 HD
ENDROOT
BRANCH   3   7
ATOM      6  O   UNL     1      36.400 -20.284 -19.402  0.00  0.00    -0.078 OA
ATOM      7  N   UNL     1      35.755 -21.267 -19.783  0.00  0.00    +0.054 NA
ENDBRANCH   3   7
BRANCH   2   8
ATOM      8  C   UNL     1      34.481 -18.401 -22.588  0.00  0.00    +0.178 C 
ATOM      9  C   UNL     1      35.352 -18.571 -23.823  0.00  0.00    +0.035 C 
BRANCH   8  10
ATOM     10  P   UNL     1      34.623 -16.804 -21.780  0.00  0.00    +0.361 P 
ATOM     11  O   UNL     1      35.391 -16.824 -20.490  0.00  0.00    -0.256 OA
BRANCH  10  12
ATOM     12  O   UNL     1      35.257 -15.836 -22.914  0.00  0.00    -0.293 OA
BRANCH  12  13
ATOM     13  C   UNL     1      34.441 -14.846 -23.518  0.00  0.00    +0.151 C 
ATOM     14  C   UNL     1      33.819 -15.418 -24.773  0.00  0.00    +0.035 C 
ENDBRANCH  12  13
ENDBRANCH  10  12
BRANCH  10  15
ATOM     15  O   UNL     1      33.115 -16.228 -21.659  0.00  0.00    -0.293 OA
BRANCH  15  16
ATOM     16  C   UNL     1      32.648 -15.695 -20.434  0.00  0.00    +0.151 C 
ATOM     17  C   UNL     1      32.712 -14.183 -20.499  0.00  0.00    +0.035 C 
ENDBRANCH  15  16
ENDBRANCH  10  15
ENDBRANCH   8  10
ENDBRANCH   2   8
BRANCH   3  18
ATOM     18  C   UNL     1      33.374 -21.755 -19.068  0.00  0.00    +0.134 C 
BRANCH  18  20
ATOM     19 CL   UNL     1      33.011 -23.305 -16.851  0.00  0.00    -0.112 Cl
ATOM     20  C   UNL     1      34.093 -22.718 -18.139  0.00  0.00    +0.118 C 
ENDBRANCH  18  20
ENDBRANCH   3  18
TORSDOF 9
ENDMDL
MODEL 2
REMARK VINA RESULT:      -6.7      7.531      9.426
REMARK  Name = 46936889
REMARK  9 active torsions:
REMARK  status: ('A' for Active; 'I' for Inactive)
REMARK    1  A    between atoms: N_2  and  C_8
REMARK    2  A    between atoms: N_3  and  N_7
REMARK    3  A    between atoms: N_3  and  C_18
REMARK    4  A    between atoms: C_8  and  P_10
REMARK    5  A    between atoms: P_10  and  O_12
REMARK    6  A    between atoms: P_10  and  O_15
REMARK    7  A    between atoms: O_12  and  C_13
REMARK    8  A    between atoms: O_15  and  C_16
REMARK    9  A    between atoms: C_18  and  C_20
REMARK                            x       y       z     vdW  Elec       q    Type
REMARK                         _______ _______ _______ _____ _____    ______ ____
ROOT
ATOM      1  O   UNL     1      34.136 -23.727 -16.708  0.00  0.00    -0.251 OA
ATOM      2  N   UNL     1      34.832 -24.421 -14.627  0.00  0.00    -0.279 N 
ATOM      3  N   UNL     1      32.620 -23.662 -14.957  0.00  0.00    -0.163 N 
ATOM      4  C   UNL     1      33.881 -23.925 -15.515  0.00  0.00    +0.321 C 
ATOM      5  H   UNL     1      34.572 -24.558 -13.688  0.00  0.00    +0.152 HD
ENDROOT
BRANCH   3   7
ATOM      6  O   UNL     1      32.228 -25.113 -13.234  0.00  0.00    -0.078 OA
ATOM      7  N   UNL     1      32.358 -23.916 -13.511  0.00  0.00    +0.054 NA
ENDBRANCH   3   7
BRANCH   2   8
ATOM      8  C   UNL     1      36.195 -24.746 -15.025  0.00  0.00    +0.178 C 
ATOM      9  C   UNL     1      36.452 -26.241 -14.915  0.00  0.00    +0.035 C 
BRANCH   8  10
ATOM     10  P   UNL     1      37.288 -23.719 -14.041  0.00  0.00    +0.361 P 
ATOM     11  O   UNL     1      38.537 -24.408 -13.571  0.00  0.00    -0.256 OA
BRANCH  10  12
ATOM     12  O   UNL     1      37.559 -22.417 -14.968  0.00  0.00    -0.293 OA
BRANCH  12  13
ATOM     13  C   UNL     1      37.733 -22.584 -16.365  0.00  0.00    +0.151 C 
ATOM     14  C   UNL     1      36.914 -21.540 -17.093  0.00  0.00    +0.035 C 
ENDBRANCH  12  13
ENDBRANCH  10  12
BRANCH  10  15
ATOM     15  O   UNL     1      36.375 -23.098 -12.858  0.00  0.00    -0.293 OA
BRANCH  15  16
ATOM     16  C   UNL     1      36.631 -23.428 -11.506  0.00  0.00    +0.151 C 
ATOM     17  C   UNL     1      35.679 -24.525 -11.077  0.00  0.00    +0.035 C 
ENDBRANCH  15  16
ENDBRANCH  10  15
ENDBRANCH   8  10
ENDBRANCH   2   8
BRANCH   3  18
ATOM     18  C   UNL     1      31.536 -23.135 -15.777  0.00  0.00    +0.134 C 
BRANCH  18  20
ATOM     19 CL   UNL     1      29.173 -24.335 -15.123  0.00  0.00    -0.112 Cl
ATOM     20  C   UNL     1      30.255 -22.926 -14.986  0.00  0.00    +0.118 C 
ENDBRANCH  18  20
ENDBRANCH   3  18
TORSDOF 9
ENDMDL
MODEL 3
REMARK VINA RESULT:      -6.6      7.530      9.773
REMARK  Name = 46936889
REMARK  9 active torsions:
REMARK  status: ('A' for Active; 'I' for Inactive)
REMARK    1  A    between atoms: N_2  and  C_8
REMARK    2  A    between atoms: N_3  and  N_7
REMARK    3  A    between atoms: N_3  and  C_18
REMARK    4  A    between atoms: C_8  and  P_10
REMARK    5  A    between atoms: P_10  and  O_12
REMARK    6  A    between atoms: P_10  and  O_15
REMARK    7  A    between atoms: O_12  and  C_13
REMARK    8  A    between atoms: O_15  and  C_16
REMARK    9  A    between atoms: C_18  and  C_20
REMARK                            x       y       z     vdW  Elec       q    Type
REMARK                         _______ _______ _______ _____ _____    ______ ____
ROOT
ATOM      1  O   UNL     1      32.227 -25.051 -13.104  0.00  0.00    -0.251 OA
ATOM      2  N   UNL     1      33.843 -24.114 -14.448  0.00  0.00    -0.279 N 
ATOM      3  N   UNL     1      31.554 -23.731 -14.886  0.00  0.00    -0.163 N 
ATOM      4  C   UNL     1      32.521 -24.347 -14.076  0.00  0.00    +0.321 C 
ATOM      5  H   UNL     1      34.018 -23.545 -15.232  0.00  0.00    +0.152 HD
ENDROOT
BRANCH   3   7
ATOM      6  O   UNL     1      32.564 -23.515 -16.926  0.00  0.00    -0.078 OA
ATOM      7  N   UNL     1      31.956 -22.890 -16.050  0.00  0.00    +0.054 NA
ENDBRANCH   3   7
BRANCH   2   8
ATOM      8  C   UNL     1      34.979 -24.674 -13.729  0.00  0.00    +0.178 C 
ATOM      9  C   UNL     1      35.449 -23.730 -12.634  0.00  0.00    +0.035 C 
BRANCH   8  10
ATOM     10  P   UNL     1      36.223 -25.086 -14.955  0.00  0.00    +0.361 P 
ATOM     11  O   UNL     1      36.036 -26.425 -15.608  0.00  0.00    -0.256 OA
BRANCH  10  12
ATOM     12  O   UNL     1      36.200 -23.836 -15.987  0.00  0.00    -0.293 OA
BRANCH  12  13
ATOM     13  C   UNL     1      37.129 -22.780 -15.819  0.00  0.00    +0.151 C 
ATOM     14  C   UNL     1      37.028 -21.839 -17.001  0.00  0.00    +0.035 C 
ENDBRANCH  12  13
ENDBRANCH  10  12
BRANCH  10  15
ATOM     15  O   UNL     1      37.654 -24.885 -14.225  0.00  0.00    -0.293 OA
BRANCH  15  16
ATOM     16  C   UNL     1      38.643 -25.894 -14.297  0.00  0.00    +0.151 C 
ATOM     17  C   UNL     1      39.906 -25.306 -14.890  0.00  0.00    +0.035 C 
ENDBRANCH  15  16
ENDBRANCH  10  15
ENDBRANCH   8  10
ENDBRANCH   2   8
BRANCH   3  18
ATOM     18  C   UNL     1      30.132 -23.899 -14.609  0.00  0.00    +0.134 C 
BRANCH  18  20
ATOM     19 CL   UNL     1      28.407 -23.961 -16.722  0.00  0.00    -0.112 Cl
ATOM     20  C   UNL     1      29.456 -24.845 -15.586  0.00  0.00    +0.118 C 
ENDBRANCH  18  20
ENDBRANCH   3  18
TORSDOF 9
ENDMDL
MODEL 4
REMARK VINA RESULT:      -6.6      4.448      7.145
REMARK  Name = 46936889
REMARK  9 active torsions:
REMARK  status: ('A' for Active; 'I' for Inactive)
REMARK    1  A    between atoms: N_2  and  C_8
REMARK    2  A    between atoms: N_3  and  N_7
REMARK    3  A    between atoms: N_3  and  C_18
REMARK    4  A    between atoms: C_8  and  P_10
REMARK    5  A    between atoms: P_10  and  O_12
REMARK    6  A    between atoms: P_10  and  O_15
REMARK    7  A    between atoms: O_12  and  C_13
REMARK    8  A    between atoms: O_15  and  C_16
REMARK    9  A    between atoms: C_18  and  C_20
REMARK                            x       y       z     vdW  Elec       q    Type
REMARK                         _______ _______ _______ _____ _____    ______ ____
ROOT
ATOM      1  O   UNL     1      32.780 -14.684 -22.675  0.00  0.00    -0.251 OA
ATOM      2  N   UNL     1      34.106 -16.491 -23.195  0.00  0.00    -0.279 N 
ATOM      3  N   UNL     1      33.416 -14.989 -24.882  0.00  0.00    -0.163 N 
ATOM      4  C   UNL     1      33.392 -15.341 -23.524  0.00  0.00    +0.321 C 
ATOM      5  H   UNL     1      34.575 -16.975 -23.913  0.00  0.00    +0.152 HD
ENDROOT
BRANCH   3   7
ATOM      6  O   UNL     1      33.765 -16.978 -25.954  0.00  0.00    -0.078 OA
ATOM      7  N   UNL     1      34.169 -15.813 -25.871  0.00  0.00    +0.054 NA
ENDBRANCH   3   7
BRANCH   2   8
ATOM      8  C   UNL     1      34.191 -17.011 -21.838  0.00  0.00    +0.178 C 
ATOM      9  C   UNL     1      34.886 -16.020 -20.917  0.00  0.00    +0.035 C 
BRANCH   8  10
ATOM     10  P   UNL     1      34.975 -18.622 -21.941  0.00  0.00    +0.361 P 
ATOM     11  O   UNL     1      35.804 -18.834 -23.176  0.00  0.00    -0.256 OA
BRANCH  10  12
ATOM     12  O   UNL     1      35.804 -18.755 -20.555  0.00  0.00    -0.293 OA
BRANCH  12  13
ATOM     13  C   UNL     1      36.926 -19.619 -20.498  0.00  0.00    +0.151 C 
ATOM     14  C   UNL     1      36.537 -20.886 -19.766  0.00  0.00    +0.035 C 
ENDBRANCH  12  13
ENDBRANCH  10  12
BRANCH  10  15
ATOM     15  O   UNL     1      33.795 -19.709 -21.727  0.00  0.00    -0.293 OA
BRANCH  15  16
ATOM     16  C   UNL     1      32.904 -19.594 -20.633  0.00  0.00    +0.151 C 
ATOM     17  C   UNL     1      32.997 -20.845 -19.787  0.00  0.00    +0.035 C 
ENDBRANCH  15  16
ENDBRANCH  10  15
ENDBRANCH   8  10
ENDBRANCH   2   8
BRANCH   3  18
ATOM     18  C   UNL     1      32.705 -13.809 -25.359  0.00  0.00    +0.134 C 
BRANCH  18  20
ATOM     19 CL   UNL     1      34.164 -11.579 -25.948  0.00  0.00    -0.112 Cl
ATOM     20  C   UNL     1      33.434 -13.109 -26.494  0.00  0.00    +0.118 C 
ENDBRANCH  18  20
ENDBRANCH   3  18
TORSDOF 9
ENDMDL
MODEL 5
REMARK VINA RESULT:      -6.5      7.322      9.525
REMARK  Name = 46936889
REMARK  9 active torsions:
REMARK  status: ('A' for Active; 'I' for Inactive)
REMARK    1  A    between atoms: N_2  and  C_8
REMARK    2  A    between atoms: N_3  and  N_7
REMARK    3  A    between atoms: N_3  and  C_18
REMARK    4  A    between atoms: C_8  and  P_10
REMARK    5  A    between atoms: P_10  and  O_12
REMARK    6  A    between atoms: P_10  and  O_15
REMARK    7  A    between atoms: O_12  and  C_13
REMARK    8  A    between atoms: O_15  and  C_16
REMARK    9  A    between atoms: C_18  and  C_20
REMARK                            x       y       z     vdW  Elec       q    Type
REMARK                         _______ _______ _______ _____ _____    ______ ____
ROOT
ATOM      1  O   UNL     1      33.377 -23.013 -14.342  0.00  0.00    -0.251 OA
ATOM      2  N   UNL     1      34.847 -23.185 -16.105  0.00  0.00    -0.279 N 
ATOM      3  N   UNL     1      32.517 -23.268 -16.478  0.00  0.00    -0.163 N 
ATOM      4  C   UNL     1      33.567 -23.144 -15.557  0.00  0.00    +0.321 C 
ATOM      5  H   UNL     1      34.938 -23.291 -17.079  0.00  0.00    +0.152 HD
ENDROOT
BRANCH   3   7
ATOM      6  O   UNL     1      32.799 -22.356 -18.556  0.00  0.00    -0.078 OA
ATOM      7  N   UNL     1      32.794 -23.425 -17.935  0.00  0.00    +0.054 NA
ENDBRANCH   3   7
BRANCH   2   8
ATOM      8  C   UNL     1      36.057 -23.076 -15.303  0.00  0.00    +0.178 C 
ATOM      9  C   UNL     1      37.143 -22.321 -16.054  0.00  0.00    +0.035 C 
BRANCH   8  10
ATOM     10  P   UNL     1      36.506 -24.740 -14.802  0.00  0.00    +0.361 P 
ATOM     11  O   UNL     1      35.783 -25.830 -15.541  0.00  0.00    -0.256 OA
BRANCH  10  12
ATOM     12  O   UNL     1      38.118 -24.788 -14.963  0.00  0.00    -0.293 OA
BRANCH  12  13
ATOM     13  C   UNL     1      38.836 -25.889 -14.433  0.00  0.00    +0.151 C 
ATOM     14  C   UNL     1      40.294 -25.506 -14.292  0.00  0.00    +0.035 C 
ENDBRANCH  12  13
ENDBRANCH  10  12
BRANCH  10  15
ATOM     15  O   UNL     1      36.332 -24.786 -13.193  0.00  0.00    -0.293 OA
BRANCH  15  16
ATOM     16  C   UNL     1      36.201 -23.588 -12.452  0.00  0.00    +0.151 C 
ATOM     17  C   UNL     1      37.552 -23.209 -11.883  0.00  0.00    +0.035 C 
ENDBRANCH  15  16
ENDBRANCH  10  15
ENDBRANCH   8  10
ENDBRANCH   2   8
BRANCH   3  18
ATOM     18  C   UNL     1      31.128 -23.246 -16.035  0.00  0.00    +0.134 C 
BRANCH  18  20
ATOM     19 CL   UNL     1      30.672 -25.063 -14.050  0.00  0.00    -0.112 Cl
ATOM     20  C   UNL     1      30.577 -24.639 -15.777  0.00  0.00    +0.118 C 
ENDBRANCH  18  20
ENDBRANCH   3  18
TORSDOF 9
ENDMDL
MODEL 6
REMARK VINA RESULT:      -6.5      2.918      4.574
REMARK  Name = 46936889
REMARK  9 active torsions:
REMARK  status: ('A' for Active; 'I' for Inactive)
REMARK    1  A    between atoms: N_2  and  C_8
REMARK    2  A    between atoms: N_3  and  N_7
REMARK    3  A    between atoms: N_3  and  C_18
REMARK    4  A    between atoms: C_8  and  P_10
REMARK    5  A    between atoms: P_10  and  O_12
REMARK    6  A    between atoms: P_10  and  O_15
REMARK    7  A    between atoms: O_12  and  C_13
REMARK    8  A    between atoms: O_15  and  C_16
REMARK    9  A    between atoms: C_18  and  C_20
REMARK                            x       y       z     vdW  Elec       q    Type
REMARK                         _______ _______ _______ _____ _____    ______ ____
ROOT
ATOM      1  O   UNL     1      35.203 -16.364 -20.303  0.00  0.00    -0.251 OA
ATOM      2  N   UNL     1      34.191 -15.889 -22.315  0.00  0.00    -0.279 N 
ATOM      3  N   UNL     1      35.104 -18.030 -21.911  0.00  0.00    -0.163 N 
ATOM      4  C   UNL     1      34.855 -16.735 -21.430  0.00  0.00    +0.321 C 
ATOM      5  H   UNL     1      33.938 -16.239 -23.200  0.00  0.00    +0.152 HD
ENDROOT
BRANCH   3   7
ATOM      6  O   UNL     1      35.209 -17.788 -24.182  0.00  0.00    -0.078 OA
ATOM      7  N   UNL     1      34.666 -18.433 -23.279  0.00  0.00    +0.054 NA
ENDBRANCH   3   7
BRANCH   2   8
ATOM      8  C   UNL     1      33.852 -14.511 -21.991  0.00  0.00    +0.178 C 
ATOM      9  C   UNL     1      32.845 -14.450 -20.853  0.00  0.00    +0.035 C 
BRANCH   8  10
ATOM     10  P   UNL     1      33.315 -13.731 -23.515  0.00  0.00    +0.361 P 
ATOM     11  O   UNL     1      31.838 -13.473 -23.597  0.00  0.00    -0.256 OA
BRANCH  10  12
ATOM     12  O   UNL     1      34.228 -12.396 -23.627  0.00  0.00    -0.293 OA
BRANCH  12  13
ATOM     13  C   UNL     1      33.725 -11.268 -24.323  0.00  0.00    +0.151 C 
ATOM     14  C   UNL     1      34.787 -10.762 -25.276  0.00  0.00    +0.035 C 
ENDBRANCH  12  13
ENDBRANCH  10  12
BRANCH  10  15
ATOM     15  O   UNL     1      33.908 -14.639 -24.716  0.00  0.00    -0.293 OA
BRANCH  15  16
ATOM     16  C   UNL     1      33.105 -14.960 -25.837  0.00  0.00    +0.151 C 
ATOM     17  C   UNL     1      33.273 -13.883 -26.888  0.00  0.00    +0.035 C 
ENDBRANCH  15  16
ENDBRANCH  10  15
ENDBRANCH   8  10
ENDBRANCH   2   8
BRANCH   3  18
ATOM     18  C   UNL     1      35.797 -19.013 -21.086  0.00  0.00    +0.134 C 
BRANCH  18  20
ATOM     19 CL   UNL     1      33.226 -19.759 -20.554  0.00  0.00    -0.112 Cl
ATOM     20  C   UNL     1      34.932 -20.222 -20.772  0.00  0.00    +0.118 C 
ENDBRANCH  18  20
ENDBRANCH   3  18
TORSDOF 9
ENDMDL
MODEL 7
REMARK VINA RESULT:      -6.5      4.295      6.870
REMARK  Name = 46936889
REMARK  9 active torsions:
REMARK  status: ('A' for Active; 'I' for Inactive)
REMARK    1  A    between atoms: N_2  and  C_8
REMARK    2  A    between atoms: N_3  and  N_7
REMARK    3  A    between atoms: N_3  and  C_18
REMARK    4  A    between atoms: C_8  and  P_10
REMARK    5  A    between atoms: P_10  and  O_12
REMARK    6  A    between atoms: P_10  and  O_15
REMARK    7  A    between atoms: O_12  and  C_13
REMARK    8  A    between atoms: O_15  and  C_16
REMARK    9  A    between atoms: C_18  and  C_20
REMARK                            x       y       z     vdW  Elec       q    Type
REMARK                         _______ _______ _______ _____ _____    ______ ____
ROOT
ATOM      1  O   UNL     1      34.115 -16.873 -25.959  0.00  0.00    -0.251 OA
ATOM      2  N   UNL     1      34.366 -16.468 -23.708  0.00  0.00    -0.279 N 
ATOM      3  N   UNL     1      33.238 -14.915 -25.085  0.00  0.00    -0.163 N 
ATOM      4  C   UNL     1      33.919 -16.138 -24.985  0.00  0.00    +0.321 C 
ATOM      5  H   UNL     1      34.180 -15.844 -22.969  0.00  0.00    +0.152 HD
ENDROOT
BRANCH   3   7
ATOM      6  O   UNL     1      34.073 -13.637 -23.382  0.00  0.00    -0.078 OA
ATOM      7  N   UNL     1      33.025 -14.061 -23.881  0.00  0.00    +0.054 NA
ENDBRANCH   3   7
BRANCH   2   8
ATOM      8  C   UNL     1      35.094 -17.694 -23.414  0.00  0.00    +0.178 C 
ATOM      9  C   UNL     1      34.768 -18.778 -24.430  0.00  0.00    +0.035 C 
BRANCH   8  10
ATOM     10  P   UNL     1      34.730 -18.125 -21.710  0.00  0.00    +0.361 P 
ATOM     11  O   UNL     1      35.938 -18.243 -20.825  0.00  0.00    -0.256 OA
BRANCH  10  12
ATOM     12  O   UNL     1      33.665 -17.002 -21.231  0.00  0.00    -0.293 OA
BRANCH  12  13
ATOM     13  C   UNL     1      34.133 -15.838 -20.572  0.00  0.00    +0.151 C 
ATOM     14  C   UNL     1      32.964 -14.910 -20.318  0.00  0.00    +0.035 C 
ENDBRANCH  12  13
ENDBRANCH  10  12
BRANCH  10  15
ATOM     15  O   UNL     1      33.806 -19.453 -21.772  0.00  0.00    -0.293 OA
BRANCH  15  16
ATOM     16  C   UNL     1      32.969 -19.795 -20.684  0.00  0.00    +0.151 C 
ATOM     17  C   UNL     1      33.631 -20.891 -19.877  0.00  0.00    +0.035 C 
ENDBRANCH  15  16
ENDBRANCH  10  15
ENDBRANCH   8  10
ENDBRANCH   2   8
BRANCH   3  18
ATOM     18  C   UNL     1      32.723 -14.450 -26.367  0.00  0.00    +0.134 C 
BRANCH  18  20
ATOM     19 CL   UNL     1      33.748 -11.922 -26.262  0.00  0.00    -0.112 Cl
ATOM     20  C   UNL     1      33.683 -13.507 -27.073  0.00  0.00    +0.118 C 
ENDBRANCH  18  20
ENDBRANCH   3  18
TORSDOF 9
ENDMDL
MODEL 8
REMARK VINA RESULT:      -6.5      8.150     10.267
REMARK  Name = 46936889
REMARK  9 active torsions:
REMARK  status: ('A' for Active; 'I' for Inactive)
REMARK    1  A    between atoms: N_2  and  C_8
REMARK    2  A    between atoms: N_3  and  N_7
REMARK    3  A    between atoms: N_3  and  C_18
REMARK    4  A    between atoms: C_8  and  P_10
REMARK    5  A    between atoms: P_10  and  O_12
REMARK    6  A    between atoms: P_10  and  O_15
REMARK    7  A    between atoms: O_12  and  C_13
REMARK    8  A    between atoms: O_15  and  C_16
REMARK    9  A    between atoms: C_18  and  C_20
REMARK                            x       y       z     vdW  Elec       q    Type
REMARK                         _______ _______ _______ _____ _____    ______ ____
ROOT
ATOM      1  O   UNL     1      34.367 -23.797 -16.680  0.00  0.00    -0.251 OA
ATOM      2  N   UNL     1      35.043 -24.599 -14.632  0.00  0.00    -0.279 N 
ATOM      3  N   UNL     1      32.922 -23.591 -14.881  0.00  0.00    -0.163 N 
ATOM      4  C   UNL     1      34.127 -23.984 -15.482  0.00  0.00    +0.321 C 
ATOM      5  H   UNL     1      34.798 -24.722 -13.686  0.00  0.00    +0.152 HD
ENDROOT
BRANCH   3   7
ATOM      6  O   UNL     1      32.452 -25.023 -13.161  0.00  0.00    -0.078 OA
ATOM      7  N   UNL     1      32.676 -23.838 -13.431  0.00  0.00    +0.054 NA
ENDBRANCH   3   7
BRANCH   2   8
ATOM      8  C   UNL     1      36.347 -25.069 -15.077  0.00  0.00    +0.178 C 
ATOM      9  C   UNL     1      36.655 -26.444 -14.506  0.00  0.00    +0.035 C 
BRANCH   8  10
ATOM     10  P   UNL     1      37.537 -23.793 -14.654  0.00  0.00    +0.361 P 
ATOM     11  O   UNL     1      37.835 -22.825 -15.763  0.00  0.00    -0.256 OA
BRANCH  10  12
ATOM     12  O   UNL     1      36.929 -23.105 -13.319  0.00  0.00    -0.293 OA
BRANCH  12  13
ATOM     13  C   UNL     1      37.389 -23.531 -12.048  0.00  0.00    +0.151 C 
ATOM     14  C   UNL     1      36.226 -24.112 -11.272  0.00  0.00    +0.035 C 
ENDBRANCH  12  13
ENDBRANCH  10  12
BRANCH  10  15
ATOM     15  O   UNL     1      38.832 -24.566 -14.068  0.00  0.00    -0.293 OA
BRANCH  15  16
ATOM     16  C   UNL     1      39.865 -24.996 -14.936  0.00  0.00    +0.151 C 
ATOM     17  C   UNL     1      40.599 -26.154 -14.293  0.00  0.00    +0.035 C 
ENDBRANCH  15  16
ENDBRANCH  10  15
ENDBRANCH   8  10
ENDBRANCH   2   8
BRANCH   3  18
ATOM     18  C   UNL     1      31.879 -22.932 -15.658  0.00  0.00    +0.134 C 
BRANCH  18  20
ATOM     19 CL   UNL     1      29.176 -22.724 -15.349  0.00  0.00    -0.112 Cl
ATOM     20  C   UNL     1      30.593 -23.740 -15.712  0.00  0.00    +0.118 C 
ENDBRANCH  18  20
ENDBRANCH   3  18
TORSDOF 9
ENDMDL
MODEL 9
REMARK VINA RESULT:      -6.4      3.013      4.281
REMARK  Name = 46936889
REMARK  9 active torsions:
REMARK  status: ('A' for Active; 'I' for Inactive)
REMARK    1  A    between atoms: N_2  and  C_8
REMARK    2  A    between atoms: N_3  and  N_7
REMARK    3  A    between atoms: N_3  and  C_18
REMARK    4  A    between atoms: C_8  and  P_10
REMARK    5  A    between atoms: P_10  and  O_12
REMARK    6  A    between atoms: P_10  and  O_15
REMARK    7  A    between atoms: O_12  and  C_13
REMARK    8  A    between atoms: O_15  and  C_16
REMARK    9  A    between atoms: C_18  and  C_20
REMARK                            x       y       z     vdW  Elec       q    Type
REMARK                         _______ _______ _______ _____ _____    ______ ____
ROOT
ATOM      1  O   UNL     1      35.204 -16.362 -20.185  0.00  0.00    -0.251 OA
ATOM      2  N   UNL     1      34.107 -15.702 -22.097  0.00  0.00    -0.279 N 
ATOM      3  N   UNL     1      35.160 -17.814 -21.991  0.00  0.00    -0.163 N 
ATOM      4  C   UNL     1      34.847 -16.609 -21.342  0.00  0.00    +0.321 C 
ATOM      5  H   UNL     1      33.850 -15.953 -23.014  0.00  0.00    +0.152 HD
ENDROOT
BRANCH   3   7
ATOM      6  O   UNL     1      35.268 -17.354 -24.228  0.00  0.00    -0.078 OA
ATOM      7  N   UNL     1      34.708 -18.068 -23.389  0.00  0.00    +0.054 NA
ENDBRANCH   3   7
BRANCH   2   8
ATOM      8  C   UNL     1      33.694 -14.401 -21.592  0.00  0.00    +0.178 C 
ATOM      9  C   UNL     1      32.646 -14.547 -20.500  0.00  0.00    +0.035 C 
BRANCH   8  10
ATOM     10  P   UNL     1      33.176 -13.429 -23.009  0.00  0.00    +0.361 P 
ATOM     11  O   UNL     1      34.193 -12.432 -23.487  0.00  0.00    -0.256 OA
BRANCH  10  12
ATOM     12  O   UNL     1      32.756 -14.531 -24.121  0.00  0.00    -0.293 OA
BRANCH  12  13
ATOM     13  C   UNL     1      32.834 -14.195 -25.495  0.00  0.00    +0.151 C 
ATOM     14  C   UNL     1      33.108 -15.449 -26.296  0.00  0.00    +0.035 C 
ENDBRANCH  12  13
ENDBRANCH  10  12
BRANCH  10  15
ATOM     15  O   UNL     1      31.741 -12.793 -22.615  0.00  0.00    -0.293 OA
BRANCH  15  16
ATOM     16  C   UNL     1      31.637 -11.429 -22.249  0.00  0.00    +0.151 C 
ATOM     17  C   UNL     1      30.934 -11.330 -20.912  0.00  0.00    +0.035 C 
ENDBRANCH  15  16
ENDBRANCH  10  15
ENDBRANCH   8  10
ENDBRANCH   2   8
BRANCH   3  18
ATOM     18  C   UNL     1      35.935 -18.847 -21.314  0.00  0.00    +0.134 C 
BRANCH  18  20
ATOM     19 CL   UNL     1      33.445 -19.727 -20.625  0.00  0.00    -0.112 Cl
ATOM     20  C   UNL     1      35.129 -20.110 -21.063  0.00  0.00    +0.118 C 
ENDBRANCH  18  20
ENDBRANCH   3  18
TORSDOF 9
ENDMDL
