MODEL 1
REMARK VINA RESULT:      -9.1      0.000      0.000
REMARK  Name = 5287417
REMARK  5 active torsions:
REMARK  status: ('A' for Active; 'I' for Inactive)
REMARK    1  A    between atoms: C_8  and  O_17
REMARK    2  A    between atoms: C_13  and  C_24
REMARK    3  A    between atoms: C_15  and  O_19
REMARK    4  A    between atoms: C_16  and  O_21
REMARK    5  A    between atoms: C_24  and  O_25
REMARK                            x       y       z     vdW  Elec       q    Type
REMARK                         _______ _______ _______ _____ _____    ______ ____
ROOT
ATOM      1  O   UNL     1      30.963 -22.993 -14.458  0.00  0.00    -0.329 OA
ATOM      2  O   UNL     1      34.804 -23.260 -16.034  0.00  0.00    -0.458 OA
ATOM      3  O   UNL     1      34.276 -24.425 -12.162  0.00  0.00    -0.287 OA
ATOM      4  C   UNL     1      31.078 -23.363 -15.835  0.00  0.00    +0.126 C 
ATOM      5  C   UNL     1      32.433 -22.890 -16.369  0.00  0.00    +0.094 C 
ATOM      6  C   UNL     1      33.293 -23.682 -14.191  0.00  0.00    +0.103 A 
ATOM      7  C   UNL     1      33.550 -23.303 -15.455  0.00  0.00    +0.129 A 
ATOM      8  C   UNL     1      31.902 -23.681 -13.617  0.00  0.00    +0.266 C 
ATOM      9  C   UNL     1      34.430 -24.082 -13.326  0.00  0.00    +0.202 A 
ATOM     10  C   UNL     1      35.765 -24.042 -13.947  0.00  0.00    +0.083 A 
ATOM     11  C   UNL     1      35.882 -23.631 -15.273  0.00  0.00    +0.151 A 
ATOM     12  C   UNL     1      29.929 -22.715 -16.597  0.00  0.00    +0.033 C 
ATOM     13  C   UNL     1      36.900 -24.409 -13.220  0.00  0.00    +0.118 C 
ATOM     14  C   UNL     1      37.137 -23.584 -15.881  0.00  0.00    +0.077 C 
ATOM     15  C   UNL     1      38.154 -24.362 -13.831  0.00  0.00    +0.174 C 
ATOM     16  C   UNL     1      38.272 -23.950 -15.158  0.00  0.00    +0.171 C 
ENDROOT
BRANCH   8  17
ATOM     17  O   UNL     1      31.499 -25.028 -13.377  0.00  0.00    -0.324 OA
ATOM     18  C   UNL     1      30.086 -25.136 -13.292  0.00  0.00    +0.177 C 
ENDBRANCH   8  17
BRANCH  15  19
ATOM     19  O   UNL     1      39.278 -24.716 -13.141  0.00  0.00    -0.503 OA
ATOM     20  H   UNL     1      39.663 -24.114 -12.534  0.00  0.00    +0.292 HD
ENDBRANCH  15  19
BRANCH  16  21
ATOM     21  O   UNL     1      39.493 -23.900 -15.764  0.00  0.00    -0.503 OA
ATOM     22  H   UNL     1      40.012 -23.123 -15.707  0.00  0.00    +0.292 HD
ENDBRANCH  16  21
BRANCH  13  24
ATOM     23  O   UNL     1      36.995 -24.120 -10.847  0.00  0.00    -0.245 OA
ATOM     24  C   UNL     1      36.852 -24.850 -11.828  0.00  0.00    +0.341 C 
BRANCH  24  25
ATOM     25  O   UNL     1      36.623 -26.186 -11.720  0.00  0.00    -0.477 OA
ATOM     26  H   UNL     1      37.185 -26.716 -11.189  0.00  0.00    +0.295 HD
ENDBRANCH  24  25
ENDBRANCH  13  24
TORSDOF 5
ENDMDL
MODEL 2
REMARK VINA RESULT:      -9.0      2.740      5.800
REMARK  Name = 5287417
REMARK  5 active torsions:
REMARK  status: ('A' for Active; 'I' for Inactive)
REMARK    1  A    between atoms: C_8  and  O_17
REMARK    2  A    between atoms: C_13  and  C_24
REMARK    3  A    between atoms: C_15  and  O_19
REMARK    4  A    between atoms: C_16  and  O_21
REMARK    5  A    between atoms: C_24  and  O_25
REMARK                            x       y       z     vdW  Elec       q    Type
REMARK                         _______ _______ _______ _____ _____    ______ ____
ROOT
ATOM      1  O   UNL     1      35.789 -21.525 -19.922  0.00  0.00    -0.329 OA
ATOM      2  O   UNL     1      32.253 -22.486 -17.952  0.00  0.00    -0.458 OA
ATOM      3  O   UNL     1      35.758 -23.361 -16.059  0.00  0.00    -0.287 OA
ATOM      4  C   UNL     1      34.687 -20.629 -20.088  0.00  0.00    +0.126 C 
ATOM      5  C   UNL     1      33.384 -21.376 -19.785  0.00  0.00    +0.094 C 
ATOM      6  C   UNL     1      34.670 -22.358 -17.915  0.00  0.00    +0.103 A 
ATOM      7  C   UNL     1      33.475 -22.114 -18.480  0.00  0.00    +0.129 A 
ATOM      8  C   UNL     1      35.965 -21.944 -18.560  0.00  0.00    +0.266 C 
ATOM      9  C   UNL     1      34.708 -23.091 -16.626  0.00  0.00    +0.202 A 
ATOM     10  C   UNL     1      33.405 -23.480 -16.061  0.00  0.00    +0.083 A 
ATOM     11  C   UNL     1      32.242 -23.157 -16.756  0.00  0.00    +0.151 A 
ATOM     12  C   UNL     1      34.705 -20.115 -21.521  0.00  0.00    +0.033 C 
ATOM     13  C   UNL     1      33.332 -24.165 -14.846  0.00  0.00    +0.118 C 
ATOM     14  C   UNL     1      30.996 -23.517 -16.240  0.00  0.00    +0.077 C 
ATOM     15  C   UNL     1      32.085 -24.525 -14.332  0.00  0.00    +0.174 C 
ATOM     16  C   UNL     1      30.920 -24.202 -15.028  0.00  0.00    +0.171 C 
ENDROOT
BRANCH   8  17
ATOM     17  O   UNL     1      36.569 -20.920 -17.772  0.00  0.00    -0.324 OA
ATOM     18  C   UNL     1      37.601 -21.443 -16.951  0.00  0.00    +0.177 C 
ENDBRANCH   8  17
BRANCH  15  19
ATOM     19  O   UNL     1      31.988 -25.195 -13.146  0.00  0.00    -0.503 OA
ATOM     20  H   UNL     1      32.106 -24.736 -12.338  0.00  0.00    +0.292 HD
ENDBRANCH  15  19
BRANCH  16  21
ATOM     21  O   UNL     1      29.698 -24.548 -14.534  0.00  0.00    -0.503 OA
ATOM     22  H   UNL     1      29.303 -24.033 -13.858  0.00  0.00    +0.292 HD
ENDBRANCH  16  21
BRANCH  13  24
ATOM     23  O   UNL     1      34.881 -23.974 -13.032  0.00  0.00    -0.245 OA
ATOM     24  C   UNL     1      34.509 -24.536 -14.063  0.00  0.00    +0.341 C 
BRANCH  24  25
ATOM     25  O   UNL     1      35.170 -25.595 -14.600  0.00  0.00    -0.477 OA
ATOM     26  H   UNL     1      35.789 -25.460 -15.291  0.00  0.00    +0.295 HD
ENDBRANCH  24  25
ENDBRANCH  13  24
TORSDOF 5
ENDMDL
MODEL 3
REMARK VINA RESULT:      -8.6     10.748     13.200
REMARK  Name = 5287417
REMARK  5 active torsions:
REMARK  status: ('A' for Active; 'I' for Inactive)
REMARK    1  A    between atoms: C_8  and  O_17
REMARK    2  A    between atoms: C_13  and  C_24
REMARK    3  A    between atoms: C_15  and  O_19
REMARK    4  A    between atoms: C_16  and  O_21
REMARK    5  A    between atoms: C_24  and  O_25
REMARK                            x       y       z     vdW  Elec       q    Type
REMARK                         _______ _______ _______ _____ _____    ______ ____
ROOT
ATOM      1  O   UNL     1      31.483 -11.885 -21.843  0.00  0.00    -0.329 OA
ATOM      2  O   UNL     1      33.300 -15.444 -20.686  0.00  0.00    -0.458 OA
ATOM      3  O   UNL     1      33.316 -14.530 -24.660  0.00  0.00    -0.287 OA
ATOM      4  C   UNL     1      32.177 -11.885 -20.592  0.00  0.00    +0.126 C 
ATOM      5  C   UNL     1      32.290 -13.325 -20.083  0.00  0.00    +0.094 C 
ATOM      6  C   UNL     1      32.789 -13.861 -22.444  0.00  0.00    +0.103 A 
ATOM      7  C   UNL     1      32.811 -14.239 -21.155  0.00  0.00    +0.129 A 
ATOM      8  C   UNL     1      32.219 -12.541 -22.887  0.00  0.00    +0.266 C 
ATOM      9  C   UNL     1      33.316 -14.798 -23.467  0.00  0.00    +0.202 A 
ATOM     10  C   UNL     1      33.843 -16.079 -22.964  0.00  0.00    +0.083 A 
ATOM     11  C   UNL     1      33.806 -16.336 -21.596  0.00  0.00    +0.151 A 
ATOM     12  C   UNL     1      31.394 -11.017 -19.616  0.00  0.00    +0.033 C 
ATOM     13  C   UNL     1      34.371 -17.026 -23.845  0.00  0.00    +0.118 C 
ATOM     14  C   UNL     1      34.298 -17.543 -21.098  0.00  0.00    +0.077 C 
ATOM     15  C   UNL     1      34.862 -18.233 -23.345  0.00  0.00    +0.174 C 
ATOM     16  C   UNL     1      34.826 -18.490 -21.975  0.00  0.00    +0.171 C 
ENDROOT
BRANCH   8  17
ATOM     17  O   UNL     1      33.277 -11.719 -23.376  0.00  0.00    -0.324 OA
ATOM     18  C   UNL     1      32.835 -10.389 -23.600  0.00  0.00    +0.177 C 
ENDBRANCH   8  17
BRANCH  15  19
ATOM     19  O   UNL     1      35.383 -19.174 -24.186  0.00  0.00    -0.503 OA
ATOM     20  H   UNL     1      36.296 -19.380 -24.150  0.00  0.00    +0.292 HD
ENDBRANCH  15  19
BRANCH  16  21
ATOM     21  O   UNL     1      35.304 -19.666 -21.477  0.00  0.00    -0.503 OA
ATOM     22  H   UNL     1      34.975 -19.998 -20.665  0.00  0.00    +0.292 HD
ENDBRANCH  16  21
BRANCH  13  24
ATOM     23  O   UNL     1      35.402 -16.344 -25.894  0.00  0.00    -0.245 OA
ATOM     24  C   UNL     1      34.441 -16.824 -25.291  0.00  0.00    +0.341 C 
BRANCH  24  25
ATOM     25  O   UNL     1      33.310 -17.234 -25.923  0.00  0.00    -0.477 OA
ATOM     26  H   UNL     1      32.754 -17.873 -25.520  0.00  0.00    +0.295 HD
ENDBRANCH  24  25
ENDBRANCH  13  24
TORSDOF 5
ENDMDL
MODEL 4
REMARK VINA RESULT:      -8.6     11.788     14.276
REMARK  Name = 5287417
REMARK  5 active torsions:
REMARK  status: ('A' for Active; 'I' for Inactive)
REMARK    1  A    between atoms: C_8  and  O_17
REMARK    2  A    between atoms: C_13  and  C_24
REMARK    3  A    between atoms: C_15  and  O_19
REMARK    4  A    between atoms: C_16  and  O_21
REMARK    5  A    between atoms: C_24  and  O_25
REMARK                            x       y       z     vdW  Elec       q    Type
REMARK                         _______ _______ _______ _____ _____    ______ ____
ROOT
ATOM      1  O   UNL     1      30.948 -11.415 -21.129  0.00  0.00    -0.329 OA
ATOM      2  O   UNL     1      33.386 -14.785 -21.243  0.00  0.00    -0.458 OA
ATOM      3  O   UNL     1      32.257 -13.160 -24.808  0.00  0.00    -0.287 OA
ATOM      4  C   UNL     1      31.942 -11.535 -20.106  0.00  0.00    +0.126 C 
ATOM      5  C   UNL     1      32.343 -13.007 -19.969  0.00  0.00    +0.094 C 
ATOM      6  C   UNL     1      32.260 -13.007 -22.439  0.00  0.00    +0.103 A 
ATOM      7  C   UNL     1      32.662 -13.609 -21.307  0.00  0.00    +0.129 A 
ATOM      8  C   UNL     1      31.451 -11.738 -22.434  0.00  0.00    +0.266 C 
ATOM      9  C   UNL     1      32.599 -13.641 -23.737  0.00  0.00    +0.202 A 
ATOM     10  C   UNL     1      33.377 -14.890 -23.667  0.00  0.00    +0.083 A 
ATOM     11  C   UNL     1      33.730 -15.398 -22.419  0.00  0.00    +0.151 A 
ATOM     12  C   UNL     1      31.352 -11.002 -18.808  0.00  0.00    +0.033 C 
ATOM     13  C   UNL     1      33.756 -15.559 -24.833  0.00  0.00    +0.118 C 
ATOM     14  C   UNL     1      34.466 -16.581 -22.329  0.00  0.00    +0.077 C 
ATOM     15  C   UNL     1      34.492 -16.741 -24.741  0.00  0.00    +0.174 C 
ATOM     16  C   UNL     1      34.845 -17.251 -23.491  0.00  0.00    +0.171 C 
ENDROOT
BRANCH   8  17
ATOM     17  O   UNL     1      32.247 -10.680 -22.964  0.00  0.00    -0.324 OA
ATOM     18  C   UNL     1      31.534  -9.453 -22.970  0.00  0.00    +0.177 C 
ENDBRANCH   8  17
BRANCH  15  19
ATOM     19  O   UNL     1      34.874 -17.413 -25.867  0.00  0.00    -0.503 OA
ATOM     20  H   UNL     1      35.771 -17.400 -26.138  0.00  0.00    +0.292 HD
ENDBRANCH  15  19
BRANCH  16  21
ATOM     21  O   UNL     1      35.564 -18.405 -23.391  0.00  0.00    -0.503 OA
ATOM     22  H   UNL     1      35.616 -18.854 -22.570  0.00  0.00    +0.292 HD
ENDBRANCH  16  21
BRANCH  13  24
ATOM     23  O   UNL     1      34.097 -14.293 -26.836  0.00  0.00    -0.245 OA
ATOM     24  C   UNL     1      33.422 -15.084 -26.174  0.00  0.00    +0.341 C 
BRANCH  24  25
ATOM     25  O   UNL     1      32.260 -15.618 -26.634  0.00  0.00    -0.477 OA
ATOM     26  H   UNL     1      31.442 -15.348 -26.265  0.00  0.00    +0.295 HD
ENDBRANCH  24  25
ENDBRANCH  13  24
TORSDOF 5
ENDMDL
MODEL 5
REMARK VINA RESULT:      -8.3      3.088      5.423
REMARK  Name = 5287417
REMARK  5 active torsions:
REMARK  status: ('A' for Active; 'I' for Inactive)
REMARK    1  A    between atoms: C_8  and  O_17
REMARK    2  A    between atoms: C_13  and  C_24
REMARK    3  A    between atoms: C_15  and  O_19
REMARK    4  A    between atoms: C_16  and  O_21
REMARK    5  A    between atoms: C_24  and  O_25
REMARK                            x       y       z     vdW  Elec       q    Type
REMARK                         _______ _______ _______ _____ _____    ______ ____
ROOT
ATOM      1  O   UNL     1      34.900 -21.158 -20.595  0.00  0.00    -0.329 OA
ATOM      2  O   UNL     1      32.927 -22.614 -17.235  0.00  0.00    -0.458 OA
ATOM      3  O   UNL     1      37.001 -22.773 -17.238  0.00  0.00    -0.287 OA
ATOM      4  C   UNL     1      33.709 -20.475 -20.193  0.00  0.00    +0.126 C 
ATOM      5  C   UNL     1      32.855 -21.419 -19.342  0.00  0.00    +0.094 C 
ATOM      6  C   UNL     1      35.015 -22.068 -18.330  0.00  0.00    +0.103 A 
ATOM      7  C   UNL     1      33.673 -22.064 -18.260  0.00  0.00    +0.129 A 
ATOM      8  C   UNL     1      35.763 -21.471 -19.491  0.00  0.00    +0.266 C 
ATOM      9  C   UNL     1      35.779 -22.718 -17.237  0.00  0.00    +0.202 A 
ATOM     10  C   UNL     1      34.983 -23.297 -16.142  0.00  0.00    +0.083 A 
ATOM     11  C   UNL     1      33.593 -23.215 -16.198  0.00  0.00    +0.151 A 
ATOM     12  C   UNL     1      32.965 -20.040 -21.447  0.00  0.00    +0.033 C 
ATOM     13  C   UNL     1      35.608 -23.922 -15.060  0.00  0.00    +0.118 C 
ATOM     14  C   UNL     1      32.819 -23.758 -15.173  0.00  0.00    +0.077 C 
ATOM     15  C   UNL     1      34.832 -24.465 -14.035  0.00  0.00    +0.174 C 
ATOM     16  C   UNL     1      33.440 -24.383 -14.092  0.00  0.00    +0.171 C 
ENDROOT
BRANCH   8  17
ATOM     17  O   UNL     1      36.474 -20.319 -19.041  0.00  0.00    -0.324 OA
ATOM     18  C   UNL     1      37.157 -19.685 -20.111  0.00  0.00    +0.177 C 
ENDBRANCH   8  17
BRANCH  15  19
ATOM     19  O   UNL     1      35.420 -25.080 -12.968  0.00  0.00    -0.503 OA
ATOM     20  H   UNL     1      36.344 -25.002 -12.833  0.00  0.00    +0.292 HD
ENDBRANCH  15  19
BRANCH  16  21
ATOM     21  O   UNL     1      32.673 -24.910 -13.095  0.00  0.00    -0.503 OA
ATOM     22  H   UNL     1      32.200 -25.705 -13.240  0.00  0.00    +0.292 HD
ENDBRANCH  16  21
BRANCH  13  24
ATOM     23  O   UNL     1      37.790 -23.246 -14.345  0.00  0.00    -0.245 OA
ATOM     24  C   UNL     1      37.059 -24.044 -14.934  0.00  0.00    +0.341 C 
BRANCH  24  25
ATOM     25  O   UNL     1      37.536 -25.159 -15.548  0.00  0.00    -0.477 OA
ATOM     26  H   UNL     1      38.136 -25.079 -16.264  0.00  0.00    +0.295 HD
ENDBRANCH  24  25
ENDBRANCH  13  24
TORSDOF 5
ENDMDL
MODEL 6
REMARK VINA RESULT:      -8.2      2.803      6.263
REMARK  Name = 5287417
REMARK  5 active torsions:
REMARK  status: ('A' for Active; 'I' for Inactive)
REMARK    1  A    between atoms: C_8  and  O_17
REMARK    2  A    between atoms: C_13  and  C_24
REMARK    3  A    between atoms: C_15  and  O_19
REMARK    4  A    between atoms: C_16  and  O_21
REMARK    5  A    between atoms: C_24  and  O_25
REMARK                            x       y       z     vdW  Elec       q    Type
REMARK                         _______ _______ _______ _____ _____    ______ ____
ROOT
ATOM      1  O   UNL     1      36.023 -22.384 -18.688  0.00  0.00    -0.329 OA
ATOM      2  O   UNL     1      31.925 -22.413 -17.972  0.00  0.00    -0.458 OA
ATOM      3  O   UNL     1      34.365 -23.724 -14.980  0.00  0.00    -0.287 OA
ATOM      4  C   UNL     1      35.255 -21.317 -19.253  0.00  0.00    +0.126 C 
ATOM      5  C   UNL     1      33.793 -21.759 -19.369  0.00  0.00    +0.094 C 
ATOM      6  C   UNL     1      34.171 -22.749 -17.135  0.00  0.00    +0.103 A 
ATOM      7  C   UNL     1      33.301 -22.347 -18.078  0.00  0.00    +0.129 A 
ATOM      8  C   UNL     1      35.661 -22.670 -17.328  0.00  0.00    +0.266 C 
ATOM      9  C   UNL     1      33.636 -23.324 -15.877  0.00  0.00    +0.202 A 
ATOM     10  C   UNL     1      32.169 -23.387 -15.762  0.00  0.00    +0.083 A 
ATOM     11  C   UNL     1      31.387 -22.928 -16.820  0.00  0.00    +0.151 A 
ATOM     12  C   UNL     1      35.840 -20.984 -20.619  0.00  0.00    +0.033 C 
ATOM     13  C   UNL     1      31.566 -23.901 -14.612  0.00  0.00    +0.118 C 
ATOM     14  C   UNL     1      29.996 -22.980 -16.735  0.00  0.00    +0.077 C 
ATOM     15  C   UNL     1      30.173 -23.953 -14.529  0.00  0.00    +0.174 C 
ATOM     16  C   UNL     1      29.390 -23.493 -15.588  0.00  0.00    +0.171 C 
ENDROOT
BRANCH   8  17
ATOM     17  O   UNL     1      36.193 -21.698 -16.431  0.00  0.00    -0.324 OA
ATOM     18  C   UNL     1      37.549 -21.976 -16.115  0.00  0.00    +0.177 C 
ENDBRANCH   8  17
BRANCH  15  19
ATOM     19  O   UNL     1      29.561 -24.451 -13.415  0.00  0.00    -0.503 OA
ATOM     20  H   UNL     1      29.962 -24.349 -12.575  0.00  0.00    +0.292 HD
ENDBRANCH  15  19
BRANCH  16  21
ATOM     21  O   UNL     1      28.030 -23.538 -15.516  0.00  0.00    -0.503 OA
ATOM     22  H   UNL     1      27.551 -22.786 -15.228  0.00  0.00    +0.292 HD
ENDBRANCH  16  21
BRANCH  13  24
ATOM     23  O   UNL     1      32.452 -25.587 -13.163  0.00  0.00    -0.245 OA
ATOM     24  C   UNL     1      32.322 -24.400 -13.465  0.00  0.00    +0.341 C 
BRANCH  24  25
ATOM     25  O   UNL     1      32.886 -23.394 -12.745  0.00  0.00    -0.477 OA
ATOM     26  H   UNL     1      32.359 -22.883 -12.163  0.00  0.00    +0.295 HD
ENDBRANCH  24  25
ENDBRANCH  13  24
TORSDOF 5
ENDMDL
MODEL 7
REMARK VINA RESULT:      -7.9     10.496     13.457
REMARK  Name = 5287417
REMARK  5 active torsions:
REMARK  status: ('A' for Active; 'I' for Inactive)
REMARK    1  A    between atoms: C_8  and  O_17
REMARK    2  A    between atoms: C_13  and  C_24
REMARK    3  A    between atoms: C_15  and  O_19
REMARK    4  A    between atoms: C_16  and  O_21
REMARK    5  A    between atoms: C_24  and  O_25
REMARK                            x       y       z     vdW  Elec       q    Type
REMARK                         _______ _______ _______ _____ _____    ______ ____
ROOT
ATOM      1  O   UNL     1      35.841 -19.042 -22.697  0.00  0.00    -0.329 OA
ATOM      2  O   UNL     1      33.642 -16.074 -20.783  0.00  0.00    -0.458 OA
ATOM      3  O   UNL     1      34.321 -15.628 -24.779  0.00  0.00    -0.287 OA
ATOM      4  C   UNL     1      34.957 -19.458 -21.652  0.00  0.00    +0.126 C 
ATOM      5  C   UNL     1      34.673 -18.267 -20.733  0.00  0.00    +0.094 C 
ATOM      6  C   UNL     1      34.527 -16.986 -22.843  0.00  0.00    +0.103 A 
ATOM      7  C   UNL     1      34.274 -17.055 -21.524  0.00  0.00    +0.129 A 
ATOM      8  C   UNL     1      35.243 -18.084 -23.583  0.00  0.00    +0.266 C 
ATOM      9  C   UNL     1      34.113 -15.768 -23.582  0.00  0.00    +0.202 A 
ATOM     10  C   UNL     1      33.433 -14.728 -22.791  0.00  0.00    +0.083 A 
ATOM     11  C   UNL     1      33.233 -14.936 -21.428  0.00  0.00    +0.151 A 
ATOM     12  C   UNL     1      35.626 -20.594 -20.890  0.00  0.00    +0.033 C 
ATOM     13  C   UNL     1      32.995 -13.547 -23.395  0.00  0.00    +0.118 C 
ATOM     14  C   UNL     1      32.593 -13.963 -20.659  0.00  0.00    +0.077 C 
ATOM     15  C   UNL     1      32.355 -12.575 -22.624  0.00  0.00    +0.174 C 
ATOM     16  C   UNL     1      32.155 -12.783 -21.260  0.00  0.00    +0.171 C 
ENDROOT
BRANCH   8  17
ATOM     17  O   UNL     1      34.331 -18.705 -24.486  0.00  0.00    -0.324 OA
ATOM     18  C   UNL     1      34.892 -19.874 -25.063  0.00  0.00    +0.177 C 
ENDBRANCH   8  17
BRANCH  15  19
ATOM     19  O   UNL     1      31.918 -11.413 -23.192  0.00  0.00    -0.503 OA
ATOM     20  H   UNL     1      32.536 -10.767 -23.471  0.00  0.00    +0.292 HD
ENDBRANCH  15  19
BRANCH  16  21
ATOM     21  O   UNL     1      31.530 -11.840 -20.498  0.00  0.00    -0.503 OA
ATOM     22  H   UNL     1      32.030 -11.158 -20.096  0.00  0.00    +0.292 HD
ENDBRANCH  16  21
BRANCH  13  24
ATOM     23  O   UNL     1      33.980 -12.461 -25.286  0.00  0.00    -0.245 OA
ATOM     24  C   UNL     1      33.170 -13.262 -24.818  0.00  0.00    +0.341 C 
BRANCH  24  25
ATOM     25  O   UNL     1      32.328 -13.992 -25.596  0.00  0.00    -0.477 OA
ATOM     26  H   UNL     1      31.442 -13.712 -25.717  0.00  0.00    +0.295 HD
ENDBRANCH  24  25
ENDBRANCH  13  24
TORSDOF 5
ENDMDL
MODEL 8
REMARK VINA RESULT:      -7.9     11.250     14.140
REMARK  Name = 5287417
REMARK  5 active torsions:
REMARK  status: ('A' for Active; 'I' for Inactive)
REMARK    1  A    between atoms: C_8  and  O_17
REMARK    2  A    between atoms: C_13  and  C_24
REMARK    3  A    between atoms: C_15  and  O_19
REMARK    4  A    between atoms: C_16  and  O_21
REMARK    5  A    between atoms: C_24  and  O_25
REMARK                            x       y       z     vdW  Elec       q    Type
REMARK                         _______ _______ _______ _____ _____    ______ ____
ROOT
ATOM      1  O   UNL     1      35.334 -18.023 -22.509  0.00  0.00    -0.329 OA
ATOM      2  O   UNL     1      32.879 -15.093 -20.866  0.00  0.00    -0.458 OA
ATOM      3  O   UNL     1      34.569 -14.313 -24.494  0.00  0.00    -0.287 OA
ATOM      4  C   UNL     1      34.194 -18.469 -21.768  0.00  0.00    +0.126 C 
ATOM      5  C   UNL     1      33.749 -17.355 -20.816  0.00  0.00    +0.094 C 
ATOM      6  C   UNL     1      34.208 -15.866 -22.736  0.00  0.00    +0.103 A 
ATOM      7  C   UNL     1      33.627 -16.043 -21.537  0.00  0.00    +0.129 A 
ATOM      8  C   UNL     1      35.029 -16.939 -23.399  0.00  0.00    +0.266 C 
ATOM      9  C   UNL     1      34.058 -14.553 -23.409  0.00  0.00    +0.202 A 
ATOM     10  C   UNL     1      33.255 -13.544 -22.696  0.00  0.00    +0.083 A 
ATOM     11  C   UNL     1      32.706 -13.869 -21.457  0.00  0.00    +0.151 A 
ATOM     12  C   UNL     1      34.588 -19.723 -21.001  0.00  0.00    +0.033 C 
ATOM     13  C   UNL     1      33.046 -12.279 -23.250  0.00  0.00    +0.118 C 
ATOM     14  C   UNL     1      31.944 -12.929 -20.763  0.00  0.00    +0.077 C 
ATOM     15  C   UNL     1      32.283 -11.340 -22.554  0.00  0.00    +0.174 C 
ATOM     16  C   UNL     1      31.733 -11.664 -21.313  0.00  0.00    +0.171 C 
ENDROOT
BRANCH   8  17
ATOM     17  O   UNL     1      34.344 -17.394 -24.563  0.00  0.00    -0.324 OA
ATOM     18  C   UNL     1      34.595 -18.771 -24.803  0.00  0.00    +0.177 C 
ENDBRANCH   8  17
BRANCH  15  19
ATOM     19  O   UNL     1      32.064 -10.097 -23.075  0.00  0.00    -0.503 OA
ATOM     20  H   UNL     1      32.790  -9.566 -23.338  0.00  0.00    +0.292 HD
ENDBRANCH  15  19
BRANCH  16  21
ATOM     21  O   UNL     1      30.986 -10.754 -20.626  0.00  0.00    -0.503 OA
ATOM     22  H   UNL     1      30.366 -10.220 -21.080  0.00  0.00    +0.292 HD
ENDBRANCH  16  21
BRANCH  13  24
ATOM     23  O   UNL     1      33.084 -12.124 -25.638  0.00  0.00    -0.245 OA
ATOM     24  C   UNL     1      33.589 -11.871 -24.543  0.00  0.00    +0.341 C 
BRANCH  24  25
ATOM     25  O   UNL     1      34.741 -11.161 -24.415  0.00  0.00    -0.477 OA
ATOM     26  H   UNL     1      34.731 -10.323 -23.995  0.00  0.00    +0.295 HD
ENDBRANCH  24  25
ENDBRANCH  13  24
TORSDOF 5
ENDMDL
MODEL 9
REMARK VINA RESULT:      -7.7     13.300     15.640
REMARK  Name = 5287417
REMARK  5 active torsions:
REMARK  status: ('A' for Active; 'I' for Inactive)
REMARK    1  A    between atoms: C_8  and  O_17
REMARK    2  A    between atoms: C_13  and  C_24
REMARK    3  A    between atoms: C_15  and  O_19
REMARK    4  A    between atoms: C_16  and  O_21
REMARK    5  A    between atoms: C_24  and  O_25
REMARK                            x       y       z     vdW  Elec       q    Type
REMARK                         _______ _______ _______ _____ _____    ______ ____
ROOT
ATOM      1  O   UNL     1      32.909 -15.399 -23.194  0.00  0.00    -0.329 OA
ATOM      2  O   UNL     1      33.039 -11.340 -24.095  0.00  0.00    -0.458 OA
ATOM      3  O   UNL     1      32.065 -12.387 -20.276  0.00  0.00    -0.287 OA
ATOM      4  C   UNL     1      33.912 -14.969 -24.119  0.00  0.00    +0.126 C 
ATOM      5  C   UNL     1      33.484 -13.634 -24.736  0.00  0.00    +0.094 C 
ATOM      6  C   UNL     1      32.770 -13.080 -22.435  0.00  0.00    +0.103 A 
ATOM      7  C   UNL     1      33.068 -12.656 -23.675  0.00  0.00    +0.129 A 
ATOM      8  C   UNL     1      32.799 -14.535 -22.052  0.00  0.00    +0.266 C 
ATOM      9  C   UNL     1      32.364 -12.076 -21.421  0.00  0.00    +0.202 A 
ATOM     10  C   UNL     1      32.340 -10.673 -21.869  0.00  0.00    +0.083 A 
ATOM     11  C   UNL     1      32.679 -10.377 -23.187  0.00  0.00    +0.151 A 
ATOM     12  C   UNL     1      34.064 -16.044 -25.187  0.00  0.00    +0.033 C 
ATOM     13  C   UNL     1      31.982  -9.650 -20.987  0.00  0.00    +0.118 C 
ATOM     14  C   UNL     1      32.662  -9.056 -23.634  0.00  0.00    +0.077 C 
ATOM     15  C   UNL     1      31.965  -8.328 -21.436  0.00  0.00    +0.174 C 
ATOM     16  C   UNL     1      32.304  -8.032 -22.756  0.00  0.00    +0.171 C 
ENDROOT
BRANCH   8  17
ATOM     17  O   UNL     1      33.865 -14.750 -21.129  0.00  0.00    -0.324 OA
ATOM     18  C   UNL     1      34.050 -16.133 -20.869  0.00  0.00    +0.177 C 
ENDBRANCH   8  17
BRANCH  15  19
ATOM     19  O   UNL     1      31.618  -7.312 -20.593  0.00  0.00    -0.503 OA
ATOM     20  H   UNL     1      31.180  -6.555 -20.929  0.00  0.00    +0.292 HD
ENDBRANCH  15  19
BRANCH  16  21
ATOM     21  O   UNL     1      32.292  -6.744 -23.204  0.00  0.00    -0.503 OA
ATOM     22  H   UNL     1      31.984  -6.058 -22.646  0.00  0.00    +0.292 HD
ENDBRANCH  16  21
BRANCH  13  24
ATOM     23  O   UNL     1      30.477 -10.132 -19.190  0.00  0.00    -0.245 OA
ATOM     24  C   UNL     1      31.615  -9.886 -19.593  0.00  0.00    +0.341 C 
BRANCH  24  25
ATOM     25  O   UNL     1      32.686  -9.807 -18.759  0.00  0.00    -0.477 OA
ATOM     26  H   UNL     1      33.336  -9.144 -18.893  0.00  0.00    +0.295 HD
ENDBRANCH  24  25
ENDBRANCH  13  24
TORSDOF 5
ENDMDL
