MODEL 1
REMARK VINA RESULT:      -5.7      0.000      0.000
REMARK  Name = 10894
REMARK  1 active torsions:
REMARK  status: ('A' for Active; 'I' for Inactive)
REMARK    1  A    between atoms: C_2  and  O_8
REMARK                            x       y       z     vdW  Elec       q    Type
REMARK                         _______ _______ _______ _____ _____    ______ ____
ROOT
ATOM      1  I   UNL     1      35.707 -18.184 -22.267  0.00  0.00    -0.043 I 
ATOM      2  C   UNL     1      33.532 -21.507 -19.454  0.00  0.00    +0.134 C 
ATOM      3  C   UNL     1      34.920 -21.513 -19.594  0.00  0.00    +0.037 C 
ATOM      4  C   UNL     1      32.768 -20.549 -20.119  0.00  0.00    +0.037 C 
ATOM      5  C   UNL     1      35.543 -20.561 -20.401  0.00  0.00    +0.009 C 
ATOM      6  C   UNL     1      33.391 -19.596 -20.925  0.00  0.00    +0.009 C 
ATOM      7  C   UNL     1      34.779 -19.603 -21.066  0.00  0.00    +0.030 C 
ENDROOT
BRANCH   2   8
ATOM      8  O   UNL     1      32.924 -22.436 -18.667  0.00  0.00    -0.506 OA
ATOM      9  H   UNL     1      33.283 -22.647 -17.828  0.00  0.00    +0.292 HD
ENDBRANCH   2   8
TORSDOF 1
ENDMDL
MODEL 2
REMARK VINA RESULT:      -5.4      4.805      5.771
REMARK  Name = 10894
REMARK  1 active torsions:
REMARK  status: ('A' for Active; 'I' for Inactive)
REMARK    1  A    between atoms: C_2  and  O_8
REMARK                            x       y       z     vdW  Elec       q    Type
REMARK                         _______ _______ _______ _____ _____    ______ ____
ROOT
ATOM      1  I   UNL     1      35.422 -19.531 -21.081  0.00  0.00    -0.043 I 
ATOM      2  C   UNL     1      34.490 -16.806 -25.005  0.00  0.00    +0.134 C 
ATOM      3  C   UNL     1      34.404 -18.196 -25.085  0.00  0.00    +0.037 C 
ATOM      4  C   UNL     1      34.842 -16.197 -23.801  0.00  0.00    +0.037 C 
ATOM      5  C   UNL     1      34.672 -18.977 -23.961  0.00  0.00    +0.009 C 
ATOM      6  C   UNL     1      35.109 -16.978 -22.676  0.00  0.00    +0.009 C 
ATOM      7  C   UNL     1      35.024 -18.368 -22.756  0.00  0.00    +0.030 C 
ENDROOT
BRANCH   2   8
ATOM      8  O   UNL     1      34.229 -16.044 -26.102  0.00  0.00    -0.506 OA
ATOM      9  H   UNL     1      34.029 -15.134 -26.004  0.00  0.00    +0.292 HD
ENDBRANCH   2   8
TORSDOF 1
ENDMDL
MODEL 3
REMARK VINA RESULT:      -5.4      4.972      5.947
REMARK  Name = 10894
REMARK  1 active torsions:
REMARK  status: ('A' for Active; 'I' for Inactive)
REMARK    1  A    between atoms: C_2  and  O_8
REMARK                            x       y       z     vdW  Elec       q    Type
REMARK                         _______ _______ _______ _____ _____    ______ ____
ROOT
ATOM      1  I   UNL     1      35.707 -19.118 -21.157  0.00  0.00    -0.043 I 
ATOM      2  C   UNL     1      34.355 -16.612 -25.104  0.00  0.00    +0.134 C 
ATOM      3  C   UNL     1      34.673 -15.938 -23.925  0.00  0.00    +0.037 C 
ATOM      4  C   UNL     1      34.425 -18.004 -25.152  0.00  0.00    +0.037 C 
ATOM      5  C   UNL     1      35.060 -16.656 -22.794  0.00  0.00    +0.009 C 
ATOM      6  C   UNL     1      34.812 -18.722 -24.021  0.00  0.00    +0.009 C 
ATOM      7  C   UNL     1      35.130 -18.048 -22.842  0.00  0.00    +0.030 C 
ENDROOT
BRANCH   2   8
ATOM      8  O   UNL     1      33.977 -15.911 -26.207  0.00  0.00    -0.506 OA
ATOM      9  H   UNL     1      33.161 -15.451 -26.214  0.00  0.00    +0.292 HD
ENDBRANCH   2   8
TORSDOF 1
ENDMDL
MODEL 4
REMARK VINA RESULT:      -5.2      3.983      4.841
REMARK  Name = 10894
REMARK  1 active torsions:
REMARK  status: ('A' for Active; 'I' for Inactive)
REMARK    1  A    between atoms: C_2  and  O_8
REMARK                            x       y       z     vdW  Elec       q    Type
REMARK                         _______ _______ _______ _____ _____    ______ ____
ROOT
ATOM      1  I   UNL     1      33.411 -20.566 -20.313  0.00  0.00    -0.043 I 
ATOM      2  C   UNL     1      35.201 -17.001 -23.101  0.00  0.00    +0.134 C 
ATOM      3  C   UNL     1      35.225 -18.320 -23.555  0.00  0.00    +0.037 C 
ATOM      4  C   UNL     1      34.663 -16.704 -21.849  0.00  0.00    +0.037 C 
ATOM      5  C   UNL     1      34.712 -19.342 -22.756  0.00  0.00    +0.009 C 
ATOM      6  C   UNL     1      34.150 -17.725 -21.050  0.00  0.00    +0.009 C 
ATOM      7  C   UNL     1      34.175 -19.044 -21.504  0.00  0.00    +0.030 C 
ENDROOT
BRANCH   2   8
ATOM      8  O   UNL     1      35.701 -16.004 -23.881  0.00  0.00    -0.506 OA
ATOM      9  H   UNL     1      35.343 -15.850 -24.733  0.00  0.00    +0.292 HD
ENDBRANCH   2   8
TORSDOF 1
ENDMDL
MODEL 5
REMARK VINA RESULT:      -5.1      3.148      3.579
REMARK  Name = 10894
REMARK  1 active torsions:
REMARK  status: ('A' for Active; 'I' for Inactive)
REMARK    1  A    between atoms: C_2  and  O_8
REMARK                            x       y       z     vdW  Elec       q    Type
REMARK                         _______ _______ _______ _____ _____    ______ ____
ROOT
ATOM      1  I   UNL     1      33.678 -22.838 -18.396  0.00  0.00    -0.043 I 
ATOM      2  C   UNL     1      34.950 -19.144 -21.299  0.00  0.00    +0.134 C 
ATOM      3  C   UNL     1      35.934 -19.931 -20.700  0.00  0.00    +0.037 C 
ATOM      4  C   UNL     1      33.602 -19.415 -21.066  0.00  0.00    +0.037 C 
ATOM      5  C   UNL     1      35.569 -20.990 -19.868  0.00  0.00    +0.009 C 
ATOM      6  C   UNL     1      33.238 -20.474 -20.234  0.00  0.00    +0.009 C 
ATOM      7  C   UNL     1      34.221 -21.261 -19.635  0.00  0.00    +0.030 C 
ENDROOT
BRANCH   2   8
ATOM      8  O   UNL     1      35.306 -18.111 -22.110  0.00  0.00    -0.506 OA
ATOM      9  H   UNL     1      36.139 -17.696 -22.003  0.00  0.00    +0.292 HD
ENDBRANCH   2   8
TORSDOF 1
ENDMDL
MODEL 6
REMARK VINA RESULT:      -5.1      1.401      2.334
REMARK  Name = 10894
REMARK  1 active torsions:
REMARK  status: ('A' for Active; 'I' for Inactive)
REMARK    1  A    between atoms: C_2  and  O_8
REMARK                            x       y       z     vdW  Elec       q    Type
REMARK                         _______ _______ _______ _____ _____    ______ ____
ROOT
ATOM      1  I   UNL     1      34.907 -16.691 -22.492  0.00  0.00    -0.043 I 
ATOM      2  C   UNL     1      35.173 -20.876 -20.021  0.00  0.00    +0.134 C 
ATOM      3  C   UNL     1      33.930 -20.365 -20.397  0.00  0.00    +0.037 C 
ATOM      4  C   UNL     1      36.339 -20.187 -20.354  0.00  0.00    +0.037 C 
ATOM      5  C   UNL     1      33.854 -19.166 -21.105  0.00  0.00    +0.009 C 
ATOM      6  C   UNL     1      36.263 -18.988 -21.062  0.00  0.00    +0.009 C 
ATOM      7  C   UNL     1      35.021 -18.478 -21.437  0.00  0.00    +0.030 C 
ENDROOT
BRANCH   2   8
ATOM      8  O   UNL     1      35.247 -22.046 -19.330  0.00  0.00    -0.506 OA
ATOM      9  H   UNL     1      35.957 -22.638 -19.485  0.00  0.00    +0.292 HD
ENDBRANCH   2   8
TORSDOF 1
ENDMDL
MODEL 7
REMARK VINA RESULT:      -5.1      5.080      6.033
REMARK  Name = 10894
REMARK  1 active torsions:
REMARK  status: ('A' for Active; 'I' for Inactive)
REMARK    1  A    between atoms: C_2  and  O_8
REMARK                            x       y       z     vdW  Elec       q    Type
REMARK                         _______ _______ _______ _____ _____    ______ ____
ROOT
ATOM      1  I   UNL     1      35.037 -19.278 -21.297  0.00  0.00    -0.043 I 
ATOM      2  C   UNL     1      34.472 -14.665 -22.742  0.00  0.00    +0.134 C 
ATOM      3  C   UNL     1      34.683 -15.670 -23.685  0.00  0.00    +0.037 C 
ATOM      4  C   UNL     1      34.424 -14.981 -21.384  0.00  0.00    +0.037 C 
ATOM      5  C   UNL     1      34.844 -16.993 -23.271  0.00  0.00    +0.009 C 
ATOM      6  C   UNL     1      34.585 -16.304 -20.970  0.00  0.00    +0.009 C 
ATOM      7  C   UNL     1      34.796 -17.309 -21.914  0.00  0.00    +0.030 C 
ENDROOT
BRANCH   2   8
ATOM      8  O   UNL     1      34.314 -13.375 -23.146  0.00  0.00    -0.506 OA
ATOM      9  H   UNL     1      33.455 -13.013 -23.232  0.00  0.00    +0.292 HD
ENDBRANCH   2   8
TORSDOF 1
ENDMDL
MODEL 8
REMARK VINA RESULT:      -5.1      5.143      6.095
REMARK  Name = 10894
REMARK  1 active torsions:
REMARK  status: ('A' for Active; 'I' for Inactive)
REMARK    1  A    between atoms: C_2  and  O_8
REMARK                            x       y       z     vdW  Elec       q    Type
REMARK                         _______ _______ _______ _____ _____    ______ ____
ROOT
ATOM      1  I   UNL     1      35.097 -19.195 -21.357  0.00  0.00    -0.043 I 
ATOM      2  C   UNL     1      34.436 -14.576 -22.743  0.00  0.00    +0.134 C 
ATOM      3  C   UNL     1      34.411 -14.908 -21.389  0.00  0.00    +0.037 C 
ATOM      4  C   UNL     1      34.651 -15.567 -23.701  0.00  0.00    +0.037 C 
ATOM      5  C   UNL     1      34.600 -16.232 -20.992  0.00  0.00    +0.009 C 
ATOM      6  C   UNL     1      34.841 -16.891 -23.303  0.00  0.00    +0.009 C 
ATOM      7  C   UNL     1      34.815 -17.223 -21.949  0.00  0.00    +0.030 C 
ENDROOT
BRANCH   2   8
ATOM      8  O   UNL     1      34.252 -13.285 -23.131  0.00  0.00    -0.506 OA
ATOM      9  H   UNL     1      34.562 -12.584 -22.592  0.00  0.00    +0.292 HD
ENDBRANCH   2   8
TORSDOF 1
ENDMDL
MODEL 9
REMARK VINA RESULT:      -5.0      9.890     10.479
REMARK  Name = 10894
REMARK  1 active torsions:
REMARK  status: ('A' for Active; 'I' for Inactive)
REMARK    1  A    between atoms: C_2  and  O_8
REMARK                            x       y       z     vdW  Elec       q    Type
REMARK                         _______ _______ _______ _____ _____    ______ ____
ROOT
ATOM      1  I   UNL     1      43.567 -16.409 -18.747  0.00  0.00    -0.043 I 
ATOM      2  C   UNL     1      41.015 -14.363 -15.144  0.00  0.00    +0.134 C 
ATOM      3  C   UNL     1      41.003 -15.748 -15.307  0.00  0.00    +0.037 C 
ATOM      4  C   UNL     1      41.757 -13.564 -16.013  0.00  0.00    +0.037 C 
ATOM      5  C   UNL     1      41.735 -16.334 -16.340  0.00  0.00    +0.009 C 
ATOM      6  C   UNL     1      42.489 -14.150 -17.046  0.00  0.00    +0.009 C 
ATOM      7  C   UNL     1      42.477 -15.535 -17.209  0.00  0.00    +0.030 C 
ENDROOT
BRANCH   2   8
ATOM      8  O   UNL     1      40.301 -13.791 -14.136  0.00  0.00    -0.506 OA
ATOM      9  H   UNL     1      39.372 -13.699 -14.213  0.00  0.00    +0.292 HD
ENDBRANCH   2   8
TORSDOF 1
ENDMDL
