MODEL 1
REMARK VINA RESULT:      -9.2      0.000      0.000
REMARK  Name = 5288320
REMARK  3 active torsions:
REMARK  status: ('A' for Active; 'I' for Inactive)
REMARK    1  A    between atoms: C_4  and  C_16
REMARK    2  A    between atoms: C_5  and  C_8
REMARK    3  A    between atoms: C_11  and  C_14
REMARK                            x       y       z     vdW  Elec       q    Type
REMARK                         _______ _______ _______ _____ _____    ______ ____
ROOT
ATOM      1  N   UNL     1      36.775 -18.807 -21.387  0.00  0.00    -0.200 N 
ATOM      2  N   UNL     1      34.909 -19.934 -21.242  0.00  0.00    -0.333 NA
ATOM      3  N   UNL     1      36.957 -19.565 -20.295  0.00  0.00    -0.113 NA
ATOM      4  C   UNL     1      35.555 -19.033 -21.945  0.00  0.00    +0.211 C 
ATOM      5  C   UNL     1      35.801 -20.228 -20.251  0.00  0.00    +0.104 C 
ATOM      6  H   UNL     1      37.438 -18.171 -21.738  0.00  0.00    +0.178 HD
ENDROOT
BRANCH   5   8
ATOM      7  N   UNL     1      34.908 -23.068 -17.243  0.00  0.00    -0.233 NA
ATOM      8  C   UNL     1      35.499 -21.192 -19.230  0.00  0.00    +0.079 C 
ATOM      9  C   UNL     1      36.418 -21.452 -18.221  0.00  0.00    +0.041 C 
ATOM     10  C   UNL     1      34.284 -21.869 -19.248  0.00  0.00    +0.032 C 
ATOM     11  C   UNL     1      36.078 -22.391 -17.260  0.00  0.00    +0.150 C 
ATOM     12  C   UNL     1      34.039 -22.788 -18.241  0.00  0.00    +0.100 C 
BRANCH  11  14
ATOM     13  N   UNL     1      37.695 -22.971 -15.319  0.00  0.00    -0.189 NA
ATOM     14  C   UNL     1      36.968 -22.711 -16.192  0.00  0.00    +0.120 C 
ENDBRANCH  11  14
ENDBRANCH   5   8
BRANCH   4  16
ATOM     15  N   UNL     1      34.197 -17.039 -25.429  0.00  0.00    -0.242 NA
ATOM     16  C   UNL     1      35.096 -18.356 -23.129  0.00  0.00    +0.049 C 
ATOM     17  C   UNL     1      34.612 -19.087 -24.210  0.00  0.00    +0.025 C 
ATOM     18  C   UNL     1      35.130 -16.966 -23.199  0.00  0.00    +0.025 C 
ATOM     19  C   UNL     1      34.178 -18.387 -25.325  0.00  0.00    +0.099 C 
ATOM     20  C   UNL     1      34.674 -16.363 -24.360  0.00  0.00    +0.099 C 
ENDBRANCH   4  16
TORSDOF 3
ENDMDL
MODEL 2
REMARK VINA RESULT:      -9.1      2.890      8.021
REMARK  Name = 5288320
REMARK  3 active torsions:
REMARK  status: ('A' for Active; 'I' for Inactive)
REMARK    1  A    between atoms: C_4  and  C_16
REMARK    2  A    between atoms: C_5  and  C_8
REMARK    3  A    between atoms: C_11  and  C_14
REMARK                            x       y       z     vdW  Elec       q    Type
REMARK                         _______ _______ _______ _____ _____    ______ ____
ROOT
ATOM      1  N   UNL     1      35.553 -18.355 -22.448  0.00  0.00    -0.200 N 
ATOM      2  N   UNL     1      33.971 -17.572 -21.159  0.00  0.00    -0.333 NA
ATOM      3  N   UNL     1      35.328 -17.129 -22.946  0.00  0.00    -0.113 NA
ATOM      4  C   UNL     1      34.742 -18.610 -21.385  0.00  0.00    +0.211 C 
ATOM      5  C   UNL     1      34.364 -16.697 -22.131  0.00  0.00    +0.104 C 
ATOM      6  H   UNL     1      36.217 -18.987 -22.805  0.00  0.00    +0.178 HD
ENDROOT
BRANCH   5   8
ATOM      7  N   UNL     1      32.603 -12.868 -22.505  0.00  0.00    -0.233 NA
ATOM      8  C   UNL     1      33.767 -15.397 -22.259  0.00  0.00    +0.079 C 
ATOM      9  C   UNL     1      34.105 -14.576 -23.327  0.00  0.00    +0.041 C 
ATOM     10  C   UNL     1      32.849 -14.957 -21.312  0.00  0.00    +0.032 C 
ATOM     11  C   UNL     1      33.500 -13.331 -23.404  0.00  0.00    +0.150 C 
ATOM     12  C   UNL     1      32.300 -13.696 -21.480  0.00  0.00    +0.100 C 
BRANCH  11  14
ATOM     13  N   UNL     1      34.034 -11.698 -25.345  0.00  0.00    -0.189 NA
ATOM     14  C   UNL     1      33.794 -12.431 -24.472  0.00  0.00    +0.120 C 
ENDBRANCH  11  14
ENDBRANCH   5   8
BRANCH   4  16
ATOM     15  N   UNL     1      34.826 -22.261 -19.236  0.00  0.00    -0.242 NA
ATOM     16  C   UNL     1      34.770 -19.851 -20.657  0.00  0.00    +0.049 C 
ATOM     17  C   UNL     1      35.987 -20.447 -20.336  0.00  0.00    +0.025 C 
ATOM     18  C   UNL     1      33.582 -20.462 -20.267  0.00  0.00    +0.025 C 
ATOM     19  C   UNL     1      35.960 -21.639 -19.630  0.00  0.00    +0.099 C 
ATOM     20  C   UNL     1      33.664 -21.654 -19.565  0.00  0.00    +0.099 C 
ENDBRANCH   4  16
TORSDOF 3
ENDMDL
MODEL 3
REMARK VINA RESULT:      -9.1      4.086      6.420
REMARK  Name = 5288320
REMARK  3 active torsions:
REMARK  status: ('A' for Active; 'I' for Inactive)
REMARK    1  A    between atoms: C_4  and  C_16
REMARK    2  A    between atoms: C_5  and  C_8
REMARK    3  A    between atoms: C_11  and  C_14
REMARK                            x       y       z     vdW  Elec       q    Type
REMARK                         _______ _______ _______ _____ _____    ______ ____
ROOT
ATOM      1  N   UNL     1      34.207 -22.915 -17.523  0.00  0.00    -0.200 N 
ATOM      2  N   UNL     1      32.191 -22.242 -18.031  0.00  0.00    -0.333 NA
ATOM      3  N   UNL     1      33.436 -23.547 -16.625  0.00  0.00    -0.113 NA
ATOM      4  C   UNL     1      33.459 -22.142 -18.356  0.00  0.00    +0.211 C 
ATOM      5  C   UNL     1      32.226 -23.108 -16.975  0.00  0.00    +0.104 C 
ATOM      6  H   UNL     1      35.186 -22.999 -17.572  0.00  0.00    +0.178 HD
ENDROOT
BRANCH   5   8
ATOM      7  N   UNL     1      28.697 -24.293 -14.964  0.00  0.00    -0.233 NA
ATOM      8  C   UNL     1      31.028 -23.509 -16.293  0.00  0.00    +0.079 C 
ATOM      9  C   UNL     1      29.844 -22.808 -16.489  0.00  0.00    +0.041 C 
ATOM     10  C   UNL     1      31.049 -24.602 -15.433  0.00  0.00    +0.032 C 
ATOM     11  C   UNL     1      28.717 -23.236 -15.806  0.00  0.00    +0.150 C 
ATOM     12  C   UNL     1      29.868 -24.950 -14.799  0.00  0.00    +0.100 C 
BRANCH  11  14
ATOM     13  N   UNL     1      26.442 -22.025 -16.079  0.00  0.00    -0.189 NA
ATOM     14  C   UNL     1      27.465 -22.569 -15.956  0.00  0.00    +0.120 C 
ENDBRANCH  11  14
ENDBRANCH   5   8
BRANCH   4  16
ATOM     15  N   UNL     1      35.135 -19.813 -21.474  0.00  0.00    -0.242 NA
ATOM     16  C   UNL     1      34.029 -21.352 -19.416  0.00  0.00    +0.049 C 
ATOM     17  C   UNL     1      33.207 -20.578 -20.230  0.00  0.00    +0.025 C 
ATOM     18  C   UNL     1      35.403 -21.356 -19.632  0.00  0.00    +0.025 C 
ATOM     19  C   UNL     1      33.804 -19.833 -21.235  0.00  0.00    +0.099 C 
ATOM     20  C   UNL     1      35.901 -20.576 -20.664  0.00  0.00    +0.099 C 
ENDBRANCH   4  16
TORSDOF 3
ENDMDL
MODEL 4
REMARK VINA RESULT:      -9.0      2.306      3.816
REMARK  Name = 5288320
REMARK  3 active torsions:
REMARK  status: ('A' for Active; 'I' for Inactive)
REMARK    1  A    between atoms: C_4  and  C_16
REMARK    2  A    between atoms: C_5  and  C_8
REMARK    3  A    between atoms: C_11  and  C_14
REMARK                            x       y       z     vdW  Elec       q    Type
REMARK                         _______ _______ _______ _____ _____    ______ ____
ROOT
ATOM      1  N   UNL     1      34.606 -17.920 -24.645  0.00  0.00    -0.200 N 
ATOM      2  N   UNL     1      34.569 -17.231 -22.571  0.00  0.00    -0.333 NA
ATOM      3  N   UNL     1      34.944 -19.017 -23.949  0.00  0.00    -0.113 NA
ATOM      4  C   UNL     1      34.384 -16.863 -23.818  0.00  0.00    +0.211 C 
ATOM      5  C   UNL     1      34.907 -18.548 -22.701  0.00  0.00    +0.104 C 
ATOM      6  H   UNL     1      34.528 -17.886 -25.625  0.00  0.00    +0.178 HD
ENDROOT
BRANCH   5   8
ATOM      7  N   UNL     1      35.783 -20.952 -19.332  0.00  0.00    -0.233 NA
ATOM      8  C   UNL     1      35.203 -19.363 -21.557  0.00  0.00    +0.079 C 
ATOM      9  C   UNL     1      34.208 -20.141 -20.977  0.00  0.00    +0.041 C 
ATOM     10  C   UNL     1      36.488 -19.378 -21.026  0.00  0.00    +0.032 C 
ATOM     11  C   UNL     1      34.546 -20.911 -19.875  0.00  0.00    +0.150 C 
ATOM     12  C   UNL     1      36.724 -20.182 -19.923  0.00  0.00    +0.100 C 
BRANCH  11  14
ATOM     13  N   UNL     1      32.792 -22.410 -18.697  0.00  0.00    -0.189 NA
ATOM     14  C   UNL     1      33.580 -21.736 -19.226  0.00  0.00    +0.120 C 
ENDBRANCH  11  14
ENDBRANCH   5   8
BRANCH   4  16
ATOM     15  N   UNL     1      33.263 -13.026 -25.223  0.00  0.00    -0.242 NA
ATOM     16  C   UNL     1      34.005 -15.559 -24.296  0.00  0.00    +0.049 C 
ATOM     17  C   UNL     1      33.444 -15.414 -25.562  0.00  0.00    +0.025 C 
ATOM     18  C   UNL     1      34.194 -14.437 -23.495  0.00  0.00    +0.025 C 
ATOM     19  C   UNL     1      33.093 -14.138 -25.973  0.00  0.00    +0.099 C 
ATOM     20  C   UNL     1      33.810 -13.206 -24.001  0.00  0.00    +0.099 C 
ENDBRANCH   4  16
TORSDOF 3
ENDMDL
MODEL 5
REMARK VINA RESULT:      -9.0      1.075      7.427
REMARK  Name = 5288320
REMARK  3 active torsions:
REMARK  status: ('A' for Active; 'I' for Inactive)
REMARK    1  A    between atoms: C_4  and  C_16
REMARK    2  A    between atoms: C_5  and  C_8
REMARK    3  A    between atoms: C_11  and  C_14
REMARK                            x       y       z     vdW  Elec       q    Type
REMARK                         _______ _______ _______ _____ _____    ______ ____
ROOT
ATOM      1  N   UNL     1      36.668 -19.895 -20.066  0.00  0.00    -0.200 N 
ATOM      2  N   UNL     1      34.688 -20.005 -20.984  0.00  0.00    -0.333 NA
ATOM      3  N   UNL     1      36.743 -19.005 -21.068  0.00  0.00    -0.113 NA
ATOM      4  C   UNL     1      35.443 -20.485 -20.023  0.00  0.00    +0.211 C 
ATOM      5  C   UNL     1      35.520 -19.109 -21.592  0.00  0.00    +0.104 C 
ATOM      6  H   UNL     1      37.403 -20.094 -19.444  0.00  0.00    +0.178 HD
ENDROOT
BRANCH   5   8
ATOM      7  N   UNL     1      34.266 -16.832 -24.929  0.00  0.00    -0.233 NA
ATOM      8  C   UNL     1      35.095 -18.336 -22.724  0.00  0.00    +0.079 C 
ATOM      9  C   UNL     1      34.889 -16.967 -22.597  0.00  0.00    +0.041 C 
ATOM     10  C   UNL     1      34.886 -18.954 -23.951  0.00  0.00    +0.032 C 
ATOM     11  C   UNL     1      34.478 -16.266 -23.720  0.00  0.00    +0.150 C 
ATOM     12  C   UNL     1      34.477 -18.165 -25.014  0.00  0.00    +0.100 C 
BRANCH  11  14
ATOM     13  N   UNL     1      34.060 -13.710 -23.628  0.00  0.00    -0.189 NA
ATOM     14  C   UNL     1      34.247 -14.859 -23.670  0.00  0.00    +0.120 C 
ENDBRANCH  11  14
ENDBRANCH   5   8
BRANCH   4  16
ATOM     15  N   UNL     1      34.386 -23.408 -17.143  0.00  0.00    -0.242 NA
ATOM     16  C   UNL     1      35.084 -21.479 -19.046  0.00  0.00    +0.049 C 
ATOM     17  C   UNL     1      35.967 -21.801 -18.018  0.00  0.00    +0.025 C 
ATOM     18  C   UNL     1      33.853 -22.123 -19.121  0.00  0.00    +0.025 C 
ATOM     19  C   UNL     1      35.573 -22.762 -17.101  0.00  0.00    +0.099 C 
ATOM     20  C   UNL     1      33.556 -23.070 -18.154  0.00  0.00    +0.099 C 
ENDBRANCH   4  16
TORSDOF 3
ENDMDL
MODEL 6
REMARK VINA RESULT:      -9.0      2.496      3.800
REMARK  Name = 5288320
REMARK  3 active torsions:
REMARK  status: ('A' for Active; 'I' for Inactive)
REMARK    1  A    between atoms: C_4  and  C_16
REMARK    2  A    between atoms: C_5  and  C_8
REMARK    3  A    between atoms: C_11  and  C_14
REMARK                            x       y       z     vdW  Elec       q    Type
REMARK                         _______ _______ _______ _____ _____    ______ ____
ROOT
ATOM      1  N   UNL     1      35.374 -17.059 -23.314  0.00  0.00    -0.200 N 
ATOM      2  N   UNL     1      34.425 -17.338 -21.366  0.00  0.00    -0.333 NA
ATOM      3  N   UNL     1      35.844 -18.250 -22.910  0.00  0.00    -0.113 NA
ATOM      4  C   UNL     1      34.531 -16.524 -22.391  0.00  0.00    +0.211 C 
ATOM      5  C   UNL     1      35.240 -18.372 -21.727  0.00  0.00    +0.104 C 
ATOM      6  H   UNL     1      35.609 -16.630 -24.168  0.00  0.00    +0.178 HD
ENDROOT
BRANCH   5   8
ATOM      7  N   UNL     1      35.794 -21.737 -19.222  0.00  0.00    -0.233 NA
ATOM      8  C   UNL     1      35.427 -19.514 -20.877  0.00  0.00    +0.079 C 
ATOM      9  C   UNL     1      34.327 -20.185 -20.356  0.00  0.00    +0.041 C 
ATOM     10  C   UNL     1      36.711 -19.952 -20.571  0.00  0.00    +0.032 C 
ATOM     11  C   UNL     1      34.562 -21.281 -19.541  0.00  0.00    +0.150 C 
ATOM     12  C   UNL     1      36.839 -21.058 -19.747  0.00  0.00    +0.100 C 
BRANCH  11  14
ATOM     13  N   UNL     1      32.606 -22.627 -18.502  0.00  0.00    -0.189 NA
ATOM     14  C   UNL     1      33.485 -22.022 -18.970  0.00  0.00    +0.120 C 
ENDBRANCH  11  14
ENDBRANCH   5   8
BRANCH   4  16
ATOM     15  N   UNL     1      32.619 -12.777 -22.901  0.00  0.00    -0.242 NA
ATOM     16  C   UNL     1      33.880 -15.252 -22.566  0.00  0.00    +0.049 C 
ATOM     17  C   UNL     1      32.898 -14.839 -21.669  0.00  0.00    +0.025 C 
ATOM     18  C   UNL     1      34.230 -14.426 -23.630  0.00  0.00    +0.025 C 
ATOM     19  C   UNL     1      32.305 -13.605 -21.879  0.00  0.00    +0.099 C 
ATOM     20  C   UNL     1      33.576 -13.211 -23.751  0.00  0.00    +0.099 C 
ENDBRANCH   4  16
TORSDOF 3
ENDMDL
MODEL 7
REMARK VINA RESULT:      -8.9      3.162      5.984
REMARK  Name = 5288320
REMARK  3 active torsions:
REMARK  status: ('A' for Active; 'I' for Inactive)
REMARK    1  A    between atoms: C_4  and  C_16
REMARK    2  A    between atoms: C_5  and  C_8
REMARK    3  A    between atoms: C_11  and  C_14
REMARK                            x       y       z     vdW  Elec       q    Type
REMARK                         _______ _______ _______ _____ _____    ______ ____
ROOT
ATOM      1  N   UNL     1      33.308 -23.165 -16.963  0.00  0.00    -0.200 N 
ATOM      2  N   UNL     1      35.472 -23.171 -16.667  0.00  0.00    -0.333 NA
ATOM      3  N   UNL     1      33.465 -23.912 -15.859  0.00  0.00    -0.113 NA
ATOM      4  C   UNL     1      34.505 -22.728 -17.436  0.00  0.00    +0.211 C 
ATOM      5  C   UNL     1      34.792 -23.884 -15.722  0.00  0.00    +0.104 C 
ATOM      6  H   UNL     1      32.438 -22.960 -17.376  0.00  0.00    +0.178 HD
ENDROOT
BRANCH   5   8
ATOM      7  N   UNL     1      36.804 -25.875 -12.577  0.00  0.00    -0.233 NA
ATOM      8  C   UNL     1      35.474 -24.559 -14.654  0.00  0.00    +0.079 C 
ATOM      9  C   UNL     1      35.205 -24.225 -13.332  0.00  0.00    +0.041 C 
ATOM     10  C   UNL     1      36.407 -25.550 -14.940  0.00  0.00    +0.032 C 
ATOM     11  C   UNL     1      35.891 -24.907 -12.339  0.00  0.00    +0.150 C 
ATOM     12  C   UNL     1      37.038 -26.172 -13.875  0.00  0.00    +0.100 C 
BRANCH  11  14
ATOM     13  N   UNL     1      35.489 -24.388  -9.832  0.00  0.00    -0.189 NA
ATOM     14  C   UNL     1      35.669 -24.622 -10.959  0.00  0.00    +0.120 C 
ENDBRANCH  11  14
ENDBRANCH   5   8
BRANCH   4  16
ATOM     15  N   UNL     1      34.878 -20.300 -20.889  0.00  0.00    -0.242 NA
ATOM     16  C   UNL     1      34.632 -21.905 -18.610  0.00  0.00    +0.049 C 
ATOM     17  C   UNL     1      33.495 -21.471 -19.287  0.00  0.00    +0.025 C 
ATOM     18  C   UNL     1      35.891 -21.535 -19.075  0.00  0.00    +0.025 C 
ATOM     19  C   UNL     1      33.671 -20.677 -20.409  0.00  0.00    +0.099 C 
ATOM     20  C   UNL     1      35.958 -20.740 -20.207  0.00  0.00    +0.099 C 
ENDBRANCH   4  16
TORSDOF 3
ENDMDL
MODEL 8
REMARK VINA RESULT:      -8.9      3.066      7.655
REMARK  Name = 5288320
REMARK  3 active torsions:
REMARK  status: ('A' for Active; 'I' for Inactive)
REMARK    1  A    between atoms: C_4  and  C_16
REMARK    2  A    between atoms: C_5  and  C_8
REMARK    3  A    between atoms: C_11  and  C_14
REMARK                            x       y       z     vdW  Elec       q    Type
REMARK                         _______ _______ _______ _____ _____    ______ ____
ROOT
ATOM      1  N   UNL     1      35.844 -18.466 -22.193  0.00  0.00    -0.200 N 
ATOM      2  N   UNL     1      33.952 -17.793 -21.332  0.00  0.00    -0.333 NA
ATOM      3  N   UNL     1      35.645 -17.276 -22.779  0.00  0.00    -0.113 NA
ATOM      4  C   UNL     1      34.833 -18.766 -21.333  0.00  0.00    +0.211 C 
ATOM      5  C   UNL     1      34.489 -16.910 -22.225  0.00  0.00    +0.104 C 
ATOM      6  H   UNL     1      36.620 -19.047 -22.362  0.00  0.00    +0.178 HD
ENDROOT
BRANCH   5   8
ATOM      7  N   UNL     1      32.570 -13.255 -23.153  0.00  0.00    -0.233 NA
ATOM      8  C   UNL     1      33.837 -15.670 -22.539  0.00  0.00    +0.079 C 
ATOM      9  C   UNL     1      33.332 -14.868 -21.522  0.00  0.00    +0.041 C 
ATOM     10  C   UNL     1      33.709 -15.266 -23.863  0.00  0.00    +0.032 C 
ATOM     11  C   UNL     1      32.712 -13.681 -21.878  0.00  0.00    +0.150 C 
ATOM     12  C   UNL     1      33.074 -14.061 -24.115  0.00  0.00    +0.100 C 
BRANCH  11  14
ATOM     13  N   UNL     1      31.727 -12.089 -20.087  0.00  0.00    -0.189 NA
ATOM     14  C   UNL     1      32.170 -12.805 -20.892  0.00  0.00    +0.120 C 
ENDBRANCH  11  14
ENDBRANCH   5   8
BRANCH   4  16
ATOM     15  N   UNL     1      34.707 -22.346 -19.071  0.00  0.00    -0.242 NA
ATOM     16  C   UNL     1      34.790 -19.983 -20.566  0.00  0.00    +0.049 C 
ATOM     17  C   UNL     1      35.972 -20.601 -20.167  0.00  0.00    +0.025 C 
ATOM     18  C   UNL     1      33.567 -20.549 -20.217  0.00  0.00    +0.025 C 
ATOM     19  C   UNL     1      35.876 -21.769 -19.427  0.00  0.00    +0.099 C 
ATOM     20  C   UNL     1      33.581 -21.719 -19.476  0.00  0.00    +0.099 C 
ENDBRANCH   4  16
TORSDOF 3
ENDMDL
MODEL 9
REMARK VINA RESULT:      -8.8      7.009      8.313
REMARK  Name = 5288320
REMARK  3 active torsions:
REMARK  status: ('A' for Active; 'I' for Inactive)
REMARK    1  A    between atoms: C_4  and  C_16
REMARK    2  A    between atoms: C_5  and  C_8
REMARK    3  A    between atoms: C_11  and  C_14
REMARK                            x       y       z     vdW  Elec       q    Type
REMARK                         _______ _______ _______ _____ _____    ______ ____
ROOT
ATOM      1  N   UNL     1      33.891 -23.303 -16.588  0.00  0.00    -0.200 N 
ATOM      2  N   UNL     1      33.979 -23.980 -14.512  0.00  0.00    -0.333 NA
ATOM      3  N   UNL     1      35.208 -23.352 -16.336  0.00  0.00    -0.113 NA
ATOM      4  C   UNL     1      33.167 -23.678 -15.499  0.00  0.00    +0.211 C 
ATOM      5  C   UNL     1      35.208 -23.767 -15.068  0.00  0.00    +0.104 C 
ATOM      6  H   UNL     1      33.499 -23.032 -17.449  0.00  0.00    +0.178 HD
ENDROOT
BRANCH   5   8
ATOM      7  N   UNL     1      38.769 -24.391 -12.870  0.00  0.00    -0.233 NA
ATOM      8  C   UNL     1      36.417 -23.980 -14.323  0.00  0.00    +0.079 C 
ATOM      9  C   UNL     1      37.492 -24.638 -14.908  0.00  0.00    +0.041 C 
ATOM     10  C   UNL     1      36.515 -23.527 -13.012  0.00  0.00    +0.032 C 
ATOM     11  C   UNL     1      38.635 -24.817 -14.146  0.00  0.00    +0.150 C 
ATOM     12  C   UNL     1      37.702 -23.755 -12.335  0.00  0.00    +0.100 C 
BRANCH  11  14
ATOM     13  N   UNL     1      40.715 -26.025 -15.111  0.00  0.00    -0.189 NA
ATOM     14  C   UNL     1      39.781 -25.482 -14.676  0.00  0.00    +0.120 C 
ENDBRANCH  11  14
ENDBRANCH   5   8
BRANCH   4  16
ATOM     15  N   UNL     1      28.932 -23.796 -15.464  0.00  0.00    -0.242 NA
ATOM     16  C   UNL     1      31.728 -23.720 -15.489  0.00  0.00    +0.049 C 
ATOM     17  C   UNL     1      31.059 -24.572 -14.615  0.00  0.00    +0.025 C 
ATOM     18  C   UNL     1      30.998 -22.906 -16.349  0.00  0.00    +0.025 C 
ATOM     19  C   UNL     1      29.674 -24.572 -14.641  0.00  0.00    +0.099 C 
ATOM     20  C   UNL     1      29.615 -22.981 -16.297  0.00  0.00    +0.099 C 
ENDBRANCH   4  16
TORSDOF 3
ENDMDL
