MODEL 1
REMARK VINA RESULT:      -8.9      0.000      0.000
REMARK  Name = 2727
REMARK  4 active torsions:
REMARK  status: ('A' for Active; 'I' for Inactive)
REMARK    1  A    between atoms: S_1  and  C_5
REMARK    2  A    between atoms: S_1  and  N_12
REMARK    3  A    between atoms: N_13  and  C_17
REMARK    4  A    between atoms: C_17  and  C_18
REMARK                            x       y       z     vdW  Elec       q    Type
REMARK                         _______ _______ _______ _____ _____    ______ ____
ROOT
ATOM      1  S   UNL     1      33.969 -22.784 -18.621  0.00  0.00    +0.077 S 
ATOM      2  O   UNL     1      34.867 -22.714 -17.485  0.00  0.00    -0.150 OA
ATOM      3  O   UNL     1      33.982 -23.937 -19.499  0.00  0.00    -0.150 OA
ENDROOT
BRANCH   1   5
ATOM      4 CL   UNL     1      34.980 -17.763 -22.215  0.00  0.00    -0.082 Cl
ATOM      5  C   UNL     1      34.255 -21.365 -19.636  0.00  0.00    +0.125 C 
ATOM      6  C   UNL     1      35.556 -21.002 -19.940  0.00  0.00    +0.021 C 
ATOM      7  C   UNL     1      33.172 -20.643 -20.109  0.00  0.00    +0.021 C 
ATOM      8  C   UNL     1      35.780 -19.883 -20.742  0.00  0.00    +0.013 C 
ATOM      9  C   UNL     1      33.398 -19.524 -20.910  0.00  0.00    +0.013 C 
ATOM     10  C   UNL     1      34.702 -19.144 -21.227  0.00  0.00    +0.058 C 
ENDBRANCH   1   5
BRANCH   1  12
ATOM     11  O   UNL     1      32.425 -23.650 -16.069  0.00  0.00    -0.251 OA
ATOM     12  N   UNL     1      32.369 -22.493 -18.096  0.00  0.00    -0.169 N 
ATOM     13  N   UNL     1      30.481 -22.579 -16.715  0.00  0.00    -0.288 N 
ATOM     14  C   UNL     1      31.797 -22.971 -16.874  0.00  0.00    +0.319 C 
ATOM     15  H   UNL     1      31.792 -21.951 -18.683  0.00  0.00    +0.178 HD
ATOM     16  H   UNL     1      30.064 -22.034 -17.420  0.00  0.00    +0.151 HD
BRANCH  13  17
ATOM     17  C   UNL     1      29.691 -22.934 -15.560  0.00  0.00    +0.091 C 
BRANCH  17  18
ATOM     18  C   UNL     1      29.012 -24.289 -15.714  0.00  0.00    +0.021 C 
ATOM     19  C   UNL     1      29.581 -25.343 -14.774  0.00  0.00    +0.002 C 
ENDBRANCH  17  18
ENDBRANCH  13  17
ENDBRANCH   1  12
TORSDOF 4
ENDMDL
MODEL 2
REMARK VINA RESULT:      -8.2      3.170      3.946
REMARK  Name = 2727
REMARK  4 active torsions:
REMARK  status: ('A' for Active; 'I' for Inactive)
REMARK    1  A    between atoms: S_1  and  C_5
REMARK    2  A    between atoms: S_1  and  N_12
REMARK    3  A    between atoms: N_13  and  C_17
REMARK    4  A    between atoms: C_17  and  C_18
REMARK                            x       y       z     vdW  Elec       q    Type
REMARK                         _______ _______ _______ _____ _____    ______ ____
ROOT
ATOM      1  S   UNL     1      33.837 -22.609 -18.736  0.00  0.00    +0.077 S 
ATOM      2  O   UNL     1      34.131 -23.794 -19.520  0.00  0.00    -0.150 OA
ATOM      3  O   UNL     1      32.538 -22.441 -18.116  0.00  0.00    -0.150 OA
ENDROOT
BRANCH   1   5
ATOM      4 CL   UNL     1      34.776 -17.597 -22.362  0.00  0.00    -0.082 Cl
ATOM      5  C   UNL     1      34.103 -21.193 -19.760  0.00  0.00    +0.125 C 
ATOM      6  C   UNL     1      35.397 -20.835 -20.097  0.00  0.00    +0.021 C 
ATOM      7  C   UNL     1      33.011 -20.469 -20.207  0.00  0.00    +0.021 C 
ATOM      8  C   UNL     1      35.606 -19.718 -20.905  0.00  0.00    +0.013 C 
ATOM      9  C   UNL     1      33.221 -19.351 -21.016  0.00  0.00    +0.013 C 
ATOM     10  C   UNL     1      34.518 -18.976 -21.365  0.00  0.00    +0.058 C 
ENDBRANCH   1   5
BRANCH   1  12
ATOM     11  O   UNL     1      34.574 -24.219 -16.184  0.00  0.00    -0.251 OA
ATOM     12  N   UNL     1      35.056 -22.394 -17.558  0.00  0.00    -0.169 N 
ATOM     13  N   UNL     1      36.329 -22.817 -15.639  0.00  0.00    -0.288 N 
ATOM     14  C   UNL     1      35.268 -23.236 -16.420  0.00  0.00    +0.319 C 
ATOM     15  H   UNL     1      35.664 -21.627 -17.671  0.00  0.00    +0.178 HD
ATOM     16  H   UNL     1      36.825 -22.012 -15.913  0.00  0.00    +0.151 HD
BRANCH  13  17
ATOM     17  C   UNL     1      36.741 -23.507 -14.440  0.00  0.00    +0.091 C 
BRANCH  17  18
ATOM     18  C   UNL     1      37.865 -24.502 -14.700  0.00  0.00    +0.021 C 
ATOM     19  C   UNL     1      37.371 -25.940 -14.778  0.00  0.00    +0.002 C 
ENDBRANCH  17  18
ENDBRANCH  13  17
ENDBRANCH   1  12
TORSDOF 4
ENDMDL
MODEL 3
REMARK VINA RESULT:      -8.1      5.217      7.921
REMARK  Name = 2727
REMARK  4 active torsions:
REMARK  status: ('A' for Active; 'I' for Inactive)
REMARK    1  A    between atoms: S_1  and  C_5
REMARK    2  A    between atoms: S_1  and  N_12
REMARK    3  A    between atoms: N_13  and  C_17
REMARK    4  A    between atoms: C_17  and  C_18
REMARK                            x       y       z     vdW  Elec       q    Type
REMARK                         _______ _______ _______ _____ _____    ______ ____
ROOT
ATOM      1  S   UNL     1      35.339 -18.874 -21.901  0.00  0.00    +0.077 S 
ATOM      2  O   UNL     1      34.954 -19.307 -23.231  0.00  0.00    -0.150 OA
ATOM      3  O   UNL     1      36.725 -18.577 -21.597  0.00  0.00    -0.150 OA
ENDROOT
BRANCH   1   5
ATOM      4 CL   UNL     1      33.482 -23.236 -17.818  0.00  0.00    -0.082 Cl
ATOM      5  C   UNL     1      34.815 -20.107 -20.748  0.00  0.00    +0.125 C 
ATOM      6  C   UNL     1      35.762 -20.916 -20.146  0.00  0.00    +0.021 C 
ATOM      7  C   UNL     1      33.465 -20.240 -20.468  0.00  0.00    +0.021 C 
ATOM      8  C   UNL     1      35.348 -21.888 -19.235  0.00  0.00    +0.013 C 
ATOM      9  C   UNL     1      33.052 -21.213 -19.558  0.00  0.00    +0.013 C 
ATOM     10  C   UNL     1      33.993 -22.037 -18.941  0.00  0.00    +0.058 C 
ENDBRANCH   1   5
BRANCH   1  12
ATOM     11  O   UNL     1      35.271 -15.907 -22.819  0.00  0.00    -0.251 OA
ATOM     12  N   UNL     1      34.362 -17.552 -21.432  0.00  0.00    -0.169 N 
ATOM     13  N   UNL     1      33.539 -15.361 -21.389  0.00  0.00    -0.288 N 
ATOM     14  C   UNL     1      34.458 -16.223 -21.957  0.00  0.00    +0.319 C 
ATOM     15  H   UNL     1      33.677 -17.717 -20.744  0.00  0.00    +0.178 HD
ATOM     16  H   UNL     1      32.927 -15.712 -20.703  0.00  0.00    +0.151 HD
BRANCH  13  17
ATOM     17  C   UNL     1      33.436 -13.969 -21.758  0.00  0.00    +0.091 C 
BRANCH  17  18
ATOM     18  C   UNL     1      32.545 -13.755 -22.974  0.00  0.00    +0.021 C 
ATOM     19  C   UNL     1      33.313 -13.242 -24.185  0.00  0.00    +0.002 C 
ENDBRANCH  17  18
ENDBRANCH  13  17
ENDBRANCH   1  12
TORSDOF 4
ENDMDL
MODEL 4
REMARK VINA RESULT:      -8.1      5.203      7.999
REMARK  Name = 2727
REMARK  4 active torsions:
REMARK  status: ('A' for Active; 'I' for Inactive)
REMARK    1  A    between atoms: S_1  and  C_5
REMARK    2  A    between atoms: S_1  and  N_12
REMARK    3  A    between atoms: N_13  and  C_17
REMARK    4  A    between atoms: C_17  and  C_18
REMARK                            x       y       z     vdW  Elec       q    Type
REMARK                         _______ _______ _______ _____ _____    ______ ____
ROOT
ATOM      1  S   UNL     1      35.362 -18.914 -21.874  0.00  0.00    +0.077 S 
ATOM      2  O   UNL     1      34.962 -19.351 -23.198  0.00  0.00    -0.150 OA
ATOM      3  O   UNL     1      36.753 -18.628 -21.583  0.00  0.00    -0.150 OA
ENDROOT
BRANCH   1   5
ATOM      4 CL   UNL     1      33.503 -23.238 -17.752  0.00  0.00    -0.082 Cl
ATOM      5  C   UNL     1      34.837 -20.135 -20.710  0.00  0.00    +0.125 C 
ATOM      6  C   UNL     1      33.486 -20.280 -20.445  0.00  0.00    +0.021 C 
ATOM      7  C   UNL     1      35.786 -20.924 -20.084  0.00  0.00    +0.021 C 
ATOM      8  C   UNL     1      33.072 -21.244 -19.526  0.00  0.00    +0.013 C 
ATOM      9  C   UNL     1      35.371 -21.889 -19.165  0.00  0.00    +0.013 C 
ATOM     10  C   UNL     1      34.014 -22.048 -18.886  0.00  0.00    +0.058 C 
ENDBRANCH   1   5
BRANCH   1  12
ATOM     11  O   UNL     1      35.288 -15.961 -22.836  0.00  0.00    -0.251 OA
ATOM     12  N   UNL     1      34.403 -17.580 -21.404  0.00  0.00    -0.169 N 
ATOM     13  N   UNL     1      33.590 -15.384 -21.377  0.00  0.00    -0.288 N 
ATOM     14  C   UNL     1      34.492 -16.260 -21.951  0.00  0.00    +0.319 C 
ATOM     15  H   UNL     1      33.732 -17.731 -20.699  0.00  0.00    +0.178 HD
ATOM     16  H   UNL     1      32.992 -15.722 -20.672  0.00  0.00    +0.151 HD
BRANCH  13  17
ATOM     17  C   UNL     1      33.485 -13.998 -21.766  0.00  0.00    +0.091 C 
BRANCH  17  18
ATOM     18  C   UNL     1      32.605 -13.803 -22.993  0.00  0.00    +0.021 C 
ATOM     19  C   UNL     1      33.374 -13.257 -24.189  0.00  0.00    +0.002 C 
ENDBRANCH  17  18
ENDBRANCH  13  17
ENDBRANCH   1  12
TORSDOF 4
ENDMDL
MODEL 5
REMARK VINA RESULT:      -7.9      3.914      6.843
REMARK  Name = 2727
REMARK  4 active torsions:
REMARK  status: ('A' for Active; 'I' for Inactive)
REMARK    1  A    between atoms: S_1  and  C_5
REMARK    2  A    between atoms: S_1  and  N_12
REMARK    3  A    between atoms: N_13  and  C_17
REMARK    4  A    between atoms: C_17  and  C_18
REMARK                            x       y       z     vdW  Elec       q    Type
REMARK                         _______ _______ _______ _____ _____    ______ ____
ROOT
ATOM      1  S   UNL     1      33.876 -22.495 -18.881  0.00  0.00    +0.077 S 
ATOM      2  O   UNL     1      32.506 -22.079 -18.650  0.00  0.00    -0.150 OA
ATOM      3  O   UNL     1      34.163 -23.674 -19.676  0.00  0.00    -0.150 OA
ENDROOT
BRANCH   1   5
ATOM      4 CL   UNL     1      36.614 -23.350 -13.321  0.00  0.00    -0.082 Cl
ATOM      5  C   UNL     1      34.650 -22.737 -17.311  0.00  0.00    +0.125 C 
ATOM      6  C   UNL     1      35.966 -22.345 -17.138  0.00  0.00    +0.021 C 
ATOM      7  C   UNL     1      33.925 -23.314 -16.282  0.00  0.00    +0.021 C 
ATOM      8  C   UNL     1      36.576 -22.535 -15.898  0.00  0.00    +0.013 C 
ATOM      9  C   UNL     1      34.536 -23.504 -15.042  0.00  0.00    +0.013 C 
ATOM     10  C   UNL     1      35.862 -23.115 -14.850  0.00  0.00    +0.058 C 
ENDBRANCH   1   5
BRANCH   1  12
ATOM     11  O   UNL     1      33.180 -20.274 -20.939  0.00  0.00    -0.251 OA
ATOM     12  N   UNL     1      34.774 -21.174 -19.488  0.00  0.00    -0.169 N 
ATOM     13  N   UNL     1      35.251 -19.263 -20.754  0.00  0.00    -0.288 N 
ATOM     14  C   UNL     1      34.305 -20.224 -20.451  0.00  0.00    +0.319 C 
ATOM     15  H   UNL     1      35.691 -21.055 -19.147  0.00  0.00    +0.178 HD
ATOM     16  H   UNL     1      36.127 -19.310 -20.309  0.00  0.00    +0.151 HD
BRANCH  13  17
ATOM     17  C   UNL     1      35.011 -18.194 -21.695  0.00  0.00    +0.091 C 
BRANCH  17  18
ATOM     18  C   UNL     1      35.695 -18.435 -23.035  0.00  0.00    +0.021 C 
ATOM     19  C   UNL     1      34.768 -19.069 -24.063  0.00  0.00    +0.002 C 
ENDBRANCH  17  18
ENDBRANCH  13  17
ENDBRANCH   1  12
TORSDOF 4
ENDMDL
MODEL 6
REMARK VINA RESULT:      -7.7      7.396     10.318
REMARK  Name = 2727
REMARK  4 active torsions:
REMARK  status: ('A' for Active; 'I' for Inactive)
REMARK    1  A    between atoms: S_1  and  C_5
REMARK    2  A    between atoms: S_1  and  N_12
REMARK    3  A    between atoms: N_13  and  C_17
REMARK    4  A    between atoms: C_17  and  C_18
REMARK                            x       y       z     vdW  Elec       q    Type
REMARK                         _______ _______ _______ _____ _____    ______ ____
ROOT
ATOM      1  S   UNL     1      34.068 -15.498 -21.439  0.00  0.00    +0.077 S 
ATOM      2  O   UNL     1      34.969 -15.574 -20.305  0.00  0.00    -0.150 OA
ATOM      3  O   UNL     1      32.635 -15.425 -21.235  0.00  0.00    -0.150 OA
ENDROOT
BRANCH   1   5
ATOM      4 CL   UNL     1      35.129 -20.459 -25.101  0.00  0.00    -0.082 Cl
ATOM      5  C   UNL     1      34.368 -16.899 -22.473  0.00  0.00    +0.125 C 
ATOM      6  C   UNL     1      34.484 -16.718 -23.841  0.00  0.00    +0.021 C 
ATOM      7  C   UNL     1      34.481 -18.153 -21.897  0.00  0.00    +0.021 C 
ATOM      8  C   UNL     1      34.721 -17.824 -24.657  0.00  0.00    +0.013 C 
ATOM      9  C   UNL     1      34.718 -19.259 -22.714  0.00  0.00    +0.013 C 
ATOM     10  C   UNL     1      34.838 -19.094 -24.094  0.00  0.00    +0.058 C 
ENDBRANCH   1   5
BRANCH   1  12
ATOM     11  O   UNL     1      32.481 -13.214 -22.821  0.00  0.00    -0.251 OA
ATOM     12  N   UNL     1      34.557 -14.223 -22.466  0.00  0.00    -0.169 N 
ATOM     13  N   UNL     1      34.365 -12.327 -23.825  0.00  0.00    -0.288 N 
ATOM     14  C   UNL     1      33.690 -13.235 -23.033  0.00  0.00    +0.319 C 
ATOM     15  H   UNL     1      35.515 -14.162 -22.687  0.00  0.00    +0.178 HD
ATOM     16  H   UNL     1      35.338 -12.429 -23.933  0.00  0.00    +0.151 HD
BRANCH  13  17
ATOM     17  C   UNL     1      33.708 -11.233 -24.502  0.00  0.00    +0.091 C 
BRANCH  17  18
ATOM     18  C   UNL     1      34.635 -10.045 -24.721  0.00  0.00    +0.021 C 
ATOM     19  C   UNL     1      35.614 -10.265 -25.866  0.00  0.00    +0.002 C 
ENDBRANCH  17  18
ENDBRANCH  13  17
ENDBRANCH   1  12
TORSDOF 4
ENDMDL
MODEL 7
REMARK VINA RESULT:      -7.6      5.462      8.487
REMARK  Name = 2727
REMARK  4 active torsions:
REMARK  status: ('A' for Active; 'I' for Inactive)
REMARK    1  A    between atoms: S_1  and  C_5
REMARK    2  A    between atoms: S_1  and  N_12
REMARK    3  A    between atoms: N_13  and  C_17
REMARK    4  A    between atoms: C_17  and  C_18
REMARK                            x       y       z     vdW  Elec       q    Type
REMARK                         _______ _______ _______ _____ _____    ______ ____
ROOT
ATOM      1  S   UNL     1      35.848 -18.272 -21.391  0.00  0.00    +0.077 S 
ATOM      2  O   UNL     1      37.218 -18.565 -21.769  0.00  0.00    -0.150 OA
ATOM      3  O   UNL     1      35.547 -17.148 -20.526  0.00  0.00    -0.150 OA
ENDROOT
BRANCH   1   5
ATOM      4 CL   UNL     1      33.457 -23.362 -18.648  0.00  0.00    -0.082 Cl
ATOM      5  C   UNL     1      35.173 -19.709 -20.616  0.00  0.00    +0.125 C 
ATOM      6  C   UNL     1      33.799 -19.879 -20.586  0.00  0.00    +0.021 C 
ATOM      7  C   UNL     1      36.030 -20.640 -20.054  0.00  0.00    +0.021 C 
ATOM      8  C   UNL     1      33.267 -21.014 -19.974  0.00  0.00    +0.013 C 
ATOM      9  C   UNL     1      35.496 -21.775 -19.443  0.00  0.00    +0.013 C 
ATOM     10  C   UNL     1      34.115 -21.962 -19.403  0.00  0.00    +0.058 C 
ENDBRANCH   1   5
BRANCH   1  12
ATOM     11  O   UNL     1      35.599 -16.102 -23.600  0.00  0.00    -0.251 OA
ATOM     12  N   UNL     1      34.882 -18.175 -22.798  0.00  0.00    -0.169 N 
ATOM     13  N   UNL     1      33.996 -17.285 -24.774  0.00  0.00    -0.288 N 
ATOM     14  C   UNL     1      34.881 -17.089 -23.730  0.00  0.00    +0.319 C 
ATOM     15  H   UNL     1      34.276 -18.929 -22.983  0.00  0.00    +0.178 HD
ATOM     16  H   UNL     1      33.463 -18.112 -24.788  0.00  0.00    +0.151 HD
BRANCH  13  17
ATOM     17  C   UNL     1      33.819 -16.331 -25.843  0.00  0.00    +0.091 C 
BRANCH  17  18
ATOM     18  C   UNL     1      33.133 -15.054 -25.375  0.00  0.00    +0.021 C 
ATOM     19  C   UNL     1      33.063 -13.991 -26.463  0.00  0.00    +0.002 C 
ENDBRANCH  17  18
ENDBRANCH  13  17
ENDBRANCH   1  12
TORSDOF 4
ENDMDL
MODEL 8
REMARK VINA RESULT:      -7.6      4.110      5.431
REMARK  Name = 2727
REMARK  4 active torsions:
REMARK  status: ('A' for Active; 'I' for Inactive)
REMARK    1  A    between atoms: S_1  and  C_5
REMARK    2  A    between atoms: S_1  and  N_12
REMARK    3  A    between atoms: N_13  and  C_17
REMARK    4  A    between atoms: C_17  and  C_18
REMARK                            x       y       z     vdW  Elec       q    Type
REMARK                         _______ _______ _______ _____ _____    ______ ____
ROOT
ATOM      1  S   UNL     1      35.648 -17.988 -21.402  0.00  0.00    +0.077 S 
ATOM      2  O   UNL     1      35.547 -17.045 -20.306  0.00  0.00    -0.150 OA
ATOM      3  O   UNL     1      36.939 -18.502 -21.814  0.00  0.00    -0.150 OA
ENDROOT
BRANCH   1   5
ATOM      4 CL   UNL     1      33.040 -15.380 -26.457  0.00  0.00    -0.082 Cl
ATOM      5  C   UNL     1      34.912 -17.251 -22.831  0.00  0.00    +0.125 C 
ATOM      6  C   UNL     1      34.865 -17.969 -24.013  0.00  0.00    +0.021 C 
ATOM      7  C   UNL     1      34.394 -15.970 -22.740  0.00  0.00    +0.021 C 
ATOM      8  C   UNL     1      34.284 -17.387 -25.140  0.00  0.00    +0.013 C 
ATOM      9  C   UNL     1      33.813 -15.389 -23.867  0.00  0.00    +0.013 C 
ATOM     10  C   UNL     1      33.758 -16.098 -25.067  0.00  0.00    +0.058 C 
ENDBRANCH   1   5
BRANCH   1  12
ATOM     11  O   UNL     1      35.891 -20.530 -19.634  0.00  0.00    -0.251 OA
ATOM     12  N   UNL     1      34.583 -19.296 -21.124  0.00  0.00    -0.169 N 
ATOM     13  N   UNL     1      33.802 -21.317 -20.238  0.00  0.00    -0.288 N 
ATOM     14  C   UNL     1      34.846 -20.412 -20.267  0.00  0.00    +0.319 C 
ATOM     15  H   UNL     1      33.716 -19.280 -21.592  0.00  0.00    +0.178 HD
ATOM     16  H   UNL     1      33.004 -21.131 -20.783  0.00  0.00    +0.151 HD
BRANCH  13  17
ATOM     17  C   UNL     1      33.830 -22.521 -19.442  0.00  0.00    +0.091 C 
BRANCH  17  18
ATOM     18  C   UNL     1      32.970 -22.409 -18.189  0.00  0.00    +0.021 C 
ATOM     19  C   UNL     1      33.472 -23.286 -17.050  0.00  0.00    +0.002 C 
ENDBRANCH  17  18
ENDBRANCH  13  17
ENDBRANCH   1  12
TORSDOF 4
ENDMDL
MODEL 9
REMARK VINA RESULT:      -7.5      9.161     11.918
REMARK  Name = 2727
REMARK  4 active torsions:
REMARK  status: ('A' for Active; 'I' for Inactive)
REMARK    1  A    between atoms: S_1  and  C_5
REMARK    2  A    between atoms: S_1  and  N_12
REMARK    3  A    between atoms: N_13  and  C_17
REMARK    4  A    between atoms: C_17  and  C_18
REMARK                            x       y       z     vdW  Elec       q    Type
REMARK                         _______ _______ _______ _____ _____    ______ ____
ROOT
ATOM      1  S   UNL     1      32.884 -13.650 -23.407  0.00  0.00    +0.077 S 
ATOM      2  O   UNL     1      31.996 -13.208 -22.349  0.00  0.00    -0.150 OA
ATOM      3  O   UNL     1      32.352 -14.049 -24.695  0.00  0.00    -0.150 OA
ENDROOT
BRANCH   1   5
ATOM      4 CL   UNL     1      36.223 -18.483 -21.253  0.00  0.00    -0.082 Cl
ATOM      5  C   UNL     1      33.827 -15.015 -22.798  0.00  0.00    +0.125 C 
ATOM      6  C   UNL     1      33.967 -15.184 -21.432  0.00  0.00    +0.021 C 
ATOM      7  C   UNL     1      34.409 -15.890 -23.700  0.00  0.00    +0.021 C 
ATOM      8  C   UNL     1      34.712 -16.262 -20.952  0.00  0.00    +0.013 C 
ATOM      9  C   UNL     1      35.153 -16.967 -23.219  0.00  0.00    +0.013 C 
ATOM     10  C   UNL     1      35.305 -17.153 -21.845  0.00  0.00    +0.058 C 
ENDBRANCH   1   5
BRANCH   1  12
ATOM     11  O   UNL     1      32.797 -10.707 -24.398  0.00  0.00    -0.251 OA
ATOM     12  N   UNL     1      34.111 -12.483 -23.641  0.00  0.00    -0.169 N 
ATOM     13  N   UNL     1      35.083 -10.429 -24.204  0.00  0.00    -0.288 N 
ATOM     14  C   UNL     1      33.906 -11.147 -24.114  0.00  0.00    +0.319 C 
ATOM     15  H   UNL     1      35.035 -12.751 -23.433  0.00  0.00    +0.178 HD
ATOM     16  H   UNL     1      35.925 -10.873 -23.952  0.00  0.00    +0.151 HD
BRANCH  13  17
ATOM     17  C   UNL     1      35.134  -9.057 -24.651  0.00  0.00    +0.091 C 
BRANCH  17  18
ATOM     18  C   UNL     1      34.768  -8.073 -23.548  0.00  0.00    +0.021 C 
ATOM     19  C   UNL     1      33.796  -6.998 -24.016  0.00  0.00    +0.002 C 
ENDBRANCH  17  18
ENDBRANCH  13  17
ENDBRANCH   1  12
TORSDOF 4
ENDMDL
