MODEL 1
REMARK VINA RESULT:     -10.1      0.000      0.000
REMARK  Name = 657038
REMARK  2 active torsions:
REMARK  status: ('A' for Active; 'I' for Inactive)
REMARK    1  A    between atoms: C_5  and  C_12
REMARK    2  A    between atoms: C_6  and  C_20
REMARK                            x       y       z     vdW  Elec       q    Type
REMARK                         _______ _______ _______ _____ _____    ______ ____
ROOT
ATOM      1  N   UNL     1      34.284 -16.752 -22.687  0.00  0.00    -0.403 NA
ATOM      2  N   UNL     1      34.440 -17.478 -25.364  0.00  0.00    -0.260 NA
ATOM      3  C   UNL     1      33.897 -15.899 -23.653  0.00  0.00    +0.152 C 
ATOM      4  C   UNL     1      33.976 -16.266 -25.008  0.00  0.00    +0.106 C 
ATOM      5  C   UNL     1      34.746 -17.957 -23.065  0.00  0.00    +0.133 C 
ATOM      6  C   UNL     1      33.411 -14.637 -23.320  0.00  0.00    +0.084 C 
ATOM      7  C   UNL     1      33.565 -15.358 -25.982  0.00  0.00    +0.021 C 
ATOM      8  C   UNL     1      33.003 -13.735 -24.301  0.00  0.00    +0.007 C 
ATOM      9  C   UNL     1      34.822 -18.315 -24.385  0.00  0.00    +0.184 C 
ATOM     10  C   UNL     1      33.080 -14.098 -25.637  0.00  0.00    +0.002 C 
ENDROOT
BRANCH   5  12
ATOM     11 CL   UNL     1      36.422 -21.615 -18.672  0.00  0.00    -0.082 Cl
ATOM     12  C   UNL     1      35.152 -18.841 -22.002  0.00  0.00    +0.027 C 
ATOM     13  C   UNL     1      36.475 -18.841 -21.553  0.00  0.00    +0.003 C 
ATOM     14  C   UNL     1      34.224 -19.706 -21.414  0.00  0.00    +0.003 C 
ATOM     15  C   UNL     1      36.868 -19.699 -20.525  0.00  0.00    +0.011 C 
ATOM     16  C   UNL     1      34.616 -20.563 -20.384  0.00  0.00    +0.011 C 
ATOM     17  C   UNL     1      35.938 -20.559 -19.940  0.00  0.00    +0.058 C 
ENDBRANCH   5  12
BRANCH   6  20
ATOM     18  O   UNL     1      32.244 -13.819 -21.445  0.00  0.00    -0.270 OA
ATOM     19  N   UNL     1      34.463 -14.309 -21.148  0.00  0.00    -0.325 N 
ATOM     20  C   UNL     1      33.315 -14.221 -21.925  0.00  0.00    +0.245 C 
ATOM     21  H   UNL     1      34.440 -14.038 -20.201  0.00  0.00    +0.145 HD
ATOM     22  H   UNL     1      35.301 -14.643 -21.543  0.00  0.00    +0.145 HD
ENDBRANCH   6  20
TORSDOF 2
ENDMDL
MODEL 2
REMARK VINA RESULT:     -10.1      1.640      2.014
REMARK  Name = 657038
REMARK  2 active torsions:
REMARK  status: ('A' for Active; 'I' for Inactive)
REMARK    1  A    between atoms: C_5  and  C_12
REMARK    2  A    between atoms: C_6  and  C_20
REMARK                            x       y       z     vdW  Elec       q    Type
REMARK                         _______ _______ _______ _____ _____    ______ ____
ROOT
ATOM      1  N   UNL     1      34.375 -17.833 -21.549  0.00  0.00    -0.403 NA
ATOM      2  N   UNL     1      34.738 -18.575 -24.201  0.00  0.00    -0.260 NA
ATOM      3  C   UNL     1      34.400 -16.906 -22.523  0.00  0.00    +0.152 C 
ATOM      4  C   UNL     1      34.584 -17.281 -23.866  0.00  0.00    +0.106 C 
ATOM      5  C   UNL     1      34.532 -19.120 -21.905  0.00  0.00    +0.133 C 
ATOM      6  C   UNL     1      34.243 -15.557 -22.212  0.00  0.00    +0.084 C 
ATOM      7  C   UNL     1      34.604 -16.295 -24.849  0.00  0.00    +0.021 C 
ATOM      8  C   UNL     1      34.265 -14.577 -23.203  0.00  0.00    +0.007 C 
ATOM      9  C   UNL     1      34.711 -19.486 -23.213  0.00  0.00    +0.184 C 
ATOM     10  C   UNL     1      34.446 -14.948 -24.527  0.00  0.00    +0.002 C 
ENDROOT
BRANCH   5  12
ATOM     11 CL   UNL     1      34.399 -23.100 -17.475  0.00  0.00    -0.082 Cl
ATOM     12  C   UNL     1      34.500 -20.083 -20.834  0.00  0.00    +0.027 C 
ATOM     13  C   UNL     1      35.692 -20.582 -20.301  0.00  0.00    +0.003 C 
ATOM     14  C   UNL     1      33.277 -20.523 -20.320  0.00  0.00    +0.003 C 
ATOM     15  C   UNL     1      35.661 -21.515 -19.264  0.00  0.00    +0.011 C 
ATOM     16  C   UNL     1      33.246 -21.456 -19.282  0.00  0.00    +0.011 C 
ATOM     17  C   UNL     1      34.438 -21.951 -18.754  0.00  0.00    +0.058 C 
ENDBRANCH   5  12
BRANCH   6  20
ATOM     18  O   UNL     1      35.003 -14.733 -20.140  0.00  0.00    -0.270 OA
ATOM     19  N   UNL     1      32.759 -15.164 -20.321  0.00  0.00    -0.325 N 
ATOM     20  C   UNL     1      34.051 -15.130 -20.830  0.00  0.00    +0.245 C 
ATOM     21  H   UNL     1      32.587 -14.884 -19.392  0.00  0.00    +0.145 HD
ATOM     22  H   UNL     1      32.014 -15.470 -20.888  0.00  0.00    +0.145 HD
ENDBRANCH   6  20
TORSDOF 2
ENDMDL
MODEL 3
REMARK VINA RESULT:      -9.8      3.784      6.561
REMARK  Name = 657038
REMARK  2 active torsions:
REMARK  status: ('A' for Active; 'I' for Inactive)
REMARK    1  A    between atoms: C_5  and  C_12
REMARK    2  A    between atoms: C_6  and  C_20
REMARK                            x       y       z     vdW  Elec       q    Type
REMARK                         _______ _______ _______ _____ _____    ______ ____
ROOT
ATOM      1  N   UNL     1      33.926 -15.117 -23.264  0.00  0.00    -0.403 NA
ATOM      2  N   UNL     1      33.833 -15.957 -25.911  0.00  0.00    -0.260 NA
ATOM      3  C   UNL     1      34.225 -16.387 -23.592  0.00  0.00    +0.152 C 
ATOM      4  C   UNL     1      34.178 -16.812 -24.932  0.00  0.00    +0.106 C 
ATOM      5  C   UNL     1      33.582 -14.279 -24.258  0.00  0.00    +0.133 C 
ATOM      6  C   UNL     1      34.588 -17.299 -22.604  0.00  0.00    +0.084 C 
ATOM      7  C   UNL     1      34.496 -18.135 -25.235  0.00  0.00    +0.021 C 
ATOM      8  C   UNL     1      34.904 -18.620 -22.917  0.00  0.00    +0.007 C 
ATOM      9  C   UNL     1      33.536 -14.693 -25.563  0.00  0.00    +0.184 C 
ATOM     10  C   UNL     1      34.857 -19.039 -24.238  0.00  0.00    +0.002 C 
ENDROOT
BRANCH   5  12
ATOM     11 CL   UNL     1      32.283  -8.693 -22.644  0.00  0.00    -0.082 Cl
ATOM     12  C   UNL     1      33.268 -12.928 -23.868  0.00  0.00    +0.027 C 
ATOM     13  C   UNL     1      32.373 -12.689 -22.820  0.00  0.00    +0.003 C 
ATOM     14  C   UNL     1      33.855 -11.849 -24.533  0.00  0.00    +0.003 C 
ATOM     15  C   UNL     1      32.068 -11.381 -22.443  0.00  0.00    +0.011 C 
ATOM     16  C   UNL     1      33.551 -10.540 -24.155  0.00  0.00    +0.011 C 
ATOM     17  C   UNL     1      32.658 -10.306 -23.110  0.00  0.00    +0.058 C 
ENDBRANCH   5  12
BRANCH   6  20
ATOM     18  O   UNL     1      35.577 -17.259 -20.466  0.00  0.00    -0.270 OA
ATOM     19  N   UNL     1      33.636 -16.068 -20.730  0.00  0.00    -0.325 N 
ATOM     20  C   UNL     1      34.648 -16.894 -21.203  0.00  0.00    +0.245 C 
ATOM     21  H   UNL     1      33.640 -15.773 -19.790  0.00  0.00    +0.145 HD
ATOM     22  H   UNL     1      32.914 -15.779 -21.333  0.00  0.00    +0.145 HD
ENDBRANCH   6  20
TORSDOF 2
ENDMDL
MODEL 4
REMARK VINA RESULT:      -9.4      6.405      9.686
REMARK  Name = 657038
REMARK  2 active torsions:
REMARK  status: ('A' for Active; 'I' for Inactive)
REMARK    1  A    between atoms: C_5  and  C_12
REMARK    2  A    between atoms: C_6  and  C_20
REMARK                            x       y       z     vdW  Elec       q    Type
REMARK                         _______ _______ _______ _____ _____    ______ ____
ROOT
ATOM      1  N   UNL     1      32.568 -10.462 -23.151  0.00  0.00    -0.403 NA
ATOM      2  N   UNL     1      31.469 -11.799 -20.977  0.00  0.00    -0.260 NA
ATOM      3  C   UNL     1      32.722 -11.791 -23.013  0.00  0.00    +0.152 C 
ATOM      4  C   UNL     1      32.167 -12.468 -21.913  0.00  0.00    +0.106 C 
ATOM      5  C   UNL     1      31.868  -9.812 -22.204  0.00  0.00    +0.133 C 
ATOM      6  C   UNL     1      33.438 -12.516 -23.963  0.00  0.00    +0.084 C 
ATOM      7  C   UNL     1      32.346 -13.845 -21.802  0.00  0.00    +0.021 C 
ATOM      8  C   UNL     1      33.613 -13.894 -23.844  0.00  0.00    +0.007 C 
ATOM      9  C   UNL     1      31.326 -10.471 -21.133  0.00  0.00    +0.184 C 
ATOM     10  C   UNL     1      33.064 -14.560 -22.758  0.00  0.00    +0.002 C 
ENDROOT
BRANCH   5  12
ATOM     11 CL   UNL     1      31.274  -3.933 -22.960  0.00  0.00    -0.082 Cl
ATOM     12  C   UNL     1      31.724  -8.390 -22.387  0.00  0.00    +0.027 C 
ATOM     13  C   UNL     1      32.083  -7.510 -21.362  0.00  0.00    +0.003 C 
ATOM     14  C   UNL     1      31.226  -7.882 -23.590  0.00  0.00    +0.003 C 
ATOM     15  C   UNL     1      31.943  -6.133 -21.538  0.00  0.00    +0.011 C 
ATOM     16  C   UNL     1      31.087  -6.505 -23.767  0.00  0.00    +0.011 C 
ATOM     17  C   UNL     1      31.446  -5.630 -22.741  0.00  0.00    +0.058 C 
ENDBRANCH   5  12
BRANCH   6  20
ATOM     18  O   UNL     1      33.700 -12.151 -26.276  0.00  0.00    -0.270 OA
ATOM     19  N   UNL     1      34.960 -10.847 -24.874  0.00  0.00    -0.325 N 
ATOM     20  C   UNL     1      34.029 -11.848 -25.118  0.00  0.00    +0.245 C 
ATOM     21  H   UNL     1      35.382 -10.372 -25.627  0.00  0.00    +0.145 HD
ATOM     22  H   UNL     1      35.199 -10.612 -23.948  0.00  0.00    +0.145 HD
ENDBRANCH   6  20
TORSDOF 2
ENDMDL
MODEL 5
REMARK VINA RESULT:      -9.3      6.546      9.857
REMARK  Name = 657038
REMARK  2 active torsions:
REMARK  status: ('A' for Active; 'I' for Inactive)
REMARK    1  A    between atoms: C_5  and  C_12
REMARK    2  A    between atoms: C_6  and  C_20
REMARK                            x       y       z     vdW  Elec       q    Type
REMARK                         _______ _______ _______ _____ _____    ______ ____
ROOT
ATOM      1  N   UNL     1      31.950 -22.812 -17.168  0.00  0.00    -0.403 NA
ATOM      2  N   UNL     1      33.860 -23.939 -15.495  0.00  0.00    -0.260 NA
ATOM      3  C   UNL     1      31.582 -23.517 -16.083  0.00  0.00    +0.152 C 
ATOM      4  C   UNL     1      32.549 -24.087 -15.236  0.00  0.00    +0.106 C 
ATOM      5  C   UNL     1      33.266 -22.677 -17.410  0.00  0.00    +0.133 C 
ATOM      6  C   UNL     1      30.233 -23.690 -15.784  0.00  0.00    +0.084 C 
ATOM      7  C   UNL     1      32.131 -24.810 -14.120  0.00  0.00    +0.021 C 
ATOM      8  C   UNL     1      29.825 -24.415 -14.666  0.00  0.00    +0.007 C 
ATOM      9  C   UNL     1      34.208 -23.232 -16.584  0.00  0.00    +0.184 C 
ATOM     10  C   UNL     1      30.778 -24.977 -13.831  0.00  0.00    +0.002 C 
ENDROOT
BRANCH   5  12
ATOM     11 CL   UNL     1      34.731 -19.534 -22.254  0.00  0.00    -0.082 Cl
ATOM     12  C   UNL     1      33.621 -21.917 -18.581  0.00  0.00    +0.027 C 
ATOM     13  C   UNL     1      34.949 -21.874 -19.016  0.00  0.00    +0.003 C 
ATOM     14  C   UNL     1      32.640 -21.219 -19.290  0.00  0.00    +0.003 C 
ATOM     15  C   UNL     1      35.292 -21.137 -20.150  0.00  0.00    +0.011 C 
ATOM     16  C   UNL     1      32.983 -20.483 -20.425  0.00  0.00    +0.011 C 
ATOM     17  C   UNL     1      34.309 -20.442 -20.855  0.00  0.00    +0.058 C 
ENDBRANCH   5  12
BRANCH   6  20
ATOM     18  O   UNL     1      29.193 -21.902 -16.912  0.00  0.00    -0.270 OA
ATOM     19  N   UNL     1      28.239 -23.972 -17.156  0.00  0.00    -0.325 N 
ATOM     20  C   UNL     1      29.201 -23.113 -16.640  0.00  0.00    +0.245 C 
ATOM     21  H   UNL     1      27.526 -23.622 -17.738  0.00  0.00    +0.145 HD
ATOM     22  H   UNL     1      28.270 -24.932 -16.939  0.00  0.00    +0.145 HD
ENDBRANCH   6  20
TORSDOF 2
ENDMDL
MODEL 6
REMARK VINA RESULT:      -9.2      5.956      9.557
REMARK  Name = 657038
REMARK  2 active torsions:
REMARK  status: ('A' for Active; 'I' for Inactive)
REMARK    1  A    between atoms: C_5  and  C_12
REMARK    2  A    between atoms: C_6  and  C_20
REMARK                            x       y       z     vdW  Elec       q    Type
REMARK                         _______ _______ _______ _____ _____    ______ ____
ROOT
ATOM      1  N   UNL     1      35.246 -22.415 -17.299  0.00  0.00    -0.403 NA
ATOM      2  N   UNL     1      32.823 -23.536 -16.532  0.00  0.00    -0.260 NA
ATOM      3  C   UNL     1      35.155 -23.148 -16.175  0.00  0.00    +0.152 C 
ATOM      4  C   UNL     1      33.928 -23.715 -15.786  0.00  0.00    +0.106 C 
ATOM      5  C   UNL     1      34.129 -22.246 -18.029  0.00  0.00    +0.133 C 
ATOM      6  C   UNL     1      36.279 -23.355 -15.380  0.00  0.00    +0.084 C 
ATOM      7  C   UNL     1      33.870 -24.470 -14.617  0.00  0.00    +0.021 C 
ATOM      8  C   UNL     1      36.211 -24.111 -14.211  0.00  0.00    +0.007 C 
ATOM      9  C   UNL     1      32.934 -22.799 -17.651  0.00  0.00    +0.184 C 
ATOM     10  C   UNL     1      35.002 -24.671 -13.828  0.00  0.00    +0.002 C 
ENDROOT
BRANCH   5  12
ATOM     11 CL   UNL     1      34.695 -18.972 -22.974  0.00  0.00    -0.082 Cl
ATOM     12  C   UNL     1      34.267 -21.454 -19.225  0.00  0.00    +0.027 C 
ATOM     13  C   UNL     1      35.531 -21.225 -19.776  0.00  0.00    +0.003 C 
ATOM     14  C   UNL     1      33.136 -20.911 -19.842  0.00  0.00    +0.003 C 
ATOM     15  C   UNL     1      35.664 -20.457 -20.933  0.00  0.00    +0.011 C 
ATOM     16  C   UNL     1      33.269 -20.143 -21.000  0.00  0.00    +0.011 C 
ATOM     17  C   UNL     1      34.532 -19.917 -21.546  0.00  0.00    +0.058 C 
ENDBRANCH   5  12
BRANCH   6  20
ATOM     18  O   UNL     1      38.603 -23.467 -15.750  0.00  0.00    -0.270 OA
ATOM     19  N   UNL     1      37.593 -21.444 -16.126  0.00  0.00    -0.325 N 
ATOM     20  C   UNL     1      37.569 -22.782 -15.751  0.00  0.00    +0.245 C 
ATOM     21  H   UNL     1      38.444 -21.020 -16.383  0.00  0.00    +0.145 HD
ATOM     22  H   UNL     1      36.760 -20.919 -16.133  0.00  0.00    +0.145 HD
ENDBRANCH   6  20
TORSDOF 2
ENDMDL
MODEL 7
REMARK VINA RESULT:      -9.1      4.246      6.534
REMARK  Name = 657038
REMARK  2 active torsions:
REMARK  status: ('A' for Active; 'I' for Inactive)
REMARK    1  A    between atoms: C_5  and  C_12
REMARK    2  A    between atoms: C_6  and  C_20
REMARK                            x       y       z     vdW  Elec       q    Type
REMARK                         _______ _______ _______ _____ _____    ______ ____
ROOT
ATOM      1  N   UNL     1      32.904 -11.480 -23.046  0.00  0.00    -0.403 NA
ATOM      2  N   UNL     1      34.338  -9.600 -24.505  0.00  0.00    -0.260 NA
ATOM      3  C   UNL     1      32.831 -10.172 -22.740  0.00  0.00    +0.152 C 
ATOM      4  C   UNL     1      33.557  -9.221 -23.478  0.00  0.00    +0.106 C 
ATOM      5  C   UNL     1      33.692 -11.839 -24.076  0.00  0.00    +0.133 C 
ATOM      6  C   UNL     1      32.031  -9.743 -21.683  0.00  0.00    +0.084 C 
ATOM      7  C   UNL     1      33.457  -7.874 -23.134  0.00  0.00    +0.021 C 
ATOM      8  C   UNL     1      31.938  -8.394 -21.346  0.00  0.00    +0.007 C 
ATOM      9  C   UNL     1      34.399 -10.912 -24.795  0.00  0.00    +0.184 C 
ATOM     10  C   UNL     1      32.654  -7.456 -22.074  0.00  0.00    +0.002 C 
ENDROOT
BRANCH   5  12
ATOM     11 CL   UNL     1      33.910 -17.664 -25.304  0.00  0.00    -0.082 Cl
ATOM     12  C   UNL     1      33.745 -13.247 -24.372  0.00  0.00    +0.027 C 
ATOM     13  C   UNL     1      34.268 -14.144 -23.436  0.00  0.00    +0.003 C 
ATOM     14  C   UNL     1      33.273 -13.726 -25.598  0.00  0.00    +0.003 C 
ATOM     15  C   UNL     1      34.320 -15.508 -23.724  0.00  0.00    +0.011 C 
ATOM     16  C   UNL     1      33.325 -15.091 -25.886  0.00  0.00    +0.011 C 
ATOM     17  C   UNL     1      33.848 -15.982 -24.949  0.00  0.00    +0.058 C 
ENDBRANCH   5  12
BRANCH   6  20
ATOM     18  O   UNL     1      31.373 -10.752 -19.659  0.00  0.00    -0.270 OA
ATOM     19  N   UNL     1      30.392 -11.542 -21.574  0.00  0.00    -0.325 N 
ATOM     20  C   UNL     1      31.264 -10.701 -20.894  0.00  0.00    +0.245 C 
ATOM     21  H   UNL     1      29.856 -12.203 -21.078  0.00  0.00    +0.145 HD
ATOM     22  H   UNL     1      30.310 -11.478 -22.553  0.00  0.00    +0.145 HD
ENDBRANCH   6  20
TORSDOF 2
ENDMDL
MODEL 8
REMARK VINA RESULT:      -9.1      8.543     10.924
REMARK  Name = 657038
REMARK  2 active torsions:
REMARK  status: ('A' for Active; 'I' for Inactive)
REMARK    1  A    between atoms: C_5  and  C_12
REMARK    2  A    between atoms: C_6  and  C_20
REMARK                            x       y       z     vdW  Elec       q    Type
REMARK                         _______ _______ _______ _____ _____    ______ ____
ROOT
ATOM      1  N   UNL     1      34.680 -23.982 -15.362  0.00  0.00    -0.403 NA
ATOM      2  N   UNL     1      33.039 -23.909 -13.122  0.00  0.00    -0.260 NA
ATOM      3  C   UNL     1      33.395 -23.599 -15.465  0.00  0.00    +0.152 C 
ATOM      4  C   UNL     1      32.564 -23.562 -14.331  0.00  0.00    +0.106 C 
ATOM      5  C   UNL     1      35.135 -24.325 -14.144  0.00  0.00    +0.133 C 
ATOM      6  C   UNL     1      32.870 -23.232 -16.702  0.00  0.00    +0.084 C 
ATOM      7  C   UNL     1      31.238 -23.159 -14.475  0.00  0.00    +0.021 C 
ATOM      8  C   UNL     1      31.542 -22.831 -16.836  0.00  0.00    +0.007 C 
ATOM      9  C   UNL     1      34.326 -24.289 -13.039  0.00  0.00    +0.184 C 
ATOM     10  C   UNL     1      30.723 -22.795 -15.717  0.00  0.00    +0.002 C 
ENDROOT
BRANCH   5  12
ATOM     11 CL   UNL     1      40.845 -26.001 -13.858  0.00  0.00    -0.082 Cl
ATOM     12  C   UNL     1      36.516 -24.731 -14.075  0.00  0.00    +0.027 C 
ATOM     13  C   UNL     1      36.972 -25.493 -12.995  0.00  0.00    +0.003 C 
ATOM     14  C   UNL     1      37.408 -24.364 -15.086  0.00  0.00    +0.003 C 
ATOM     15  C   UNL     1      38.309 -25.885 -12.928  0.00  0.00    +0.011 C 
ATOM     16  C   UNL     1      38.746 -24.757 -15.019  0.00  0.00    +0.011 C 
ATOM     17  C   UNL     1      39.196 -25.517 -13.940  0.00  0.00    +0.058 C 
ENDBRANCH   5  12
BRANCH   6  20
ATOM     18  O   UNL     1      33.539 -24.121 -18.778  0.00  0.00    -0.270 OA
ATOM     19  N   UNL     1      34.669 -22.271 -18.034  0.00  0.00    -0.325 N 
ATOM     20  C   UNL     1      33.701 -23.259 -17.901  0.00  0.00    +0.245 C 
ATOM     21  H   UNL     1      35.250 -22.254 -18.829  0.00  0.00    +0.145 HD
ATOM     22  H   UNL     1      34.774 -21.587 -17.333  0.00  0.00    +0.145 HD
ENDBRANCH   6  20
TORSDOF 2
ENDMDL
MODEL 9
REMARK VINA RESULT:      -9.0      6.998     10.751
REMARK  Name = 657038
REMARK  2 active torsions:
REMARK  status: ('A' for Active; 'I' for Inactive)
REMARK    1  A    between atoms: C_5  and  C_12
REMARK    2  A    between atoms: C_6  and  C_20
REMARK                            x       y       z     vdW  Elec       q    Type
REMARK                         _______ _______ _______ _____ _____    ______ ____
ROOT
ATOM      1  N   UNL     1      35.266 -23.019 -15.685  0.00  0.00    -0.403 NA
ATOM      2  N   UNL     1      37.938 -23.232 -14.953  0.00  0.00    -0.260 NA
ATOM      3  C   UNL     1      35.613 -23.566 -14.506  0.00  0.00    +0.152 C 
ATOM      4  C   UNL     1      36.965 -23.674 -14.135  0.00  0.00    +0.106 C 
ATOM      5  C   UNL     1      36.253 -22.584 -16.488  0.00  0.00    +0.133 C 
ATOM      6  C   UNL     1      34.632 -24.033 -13.634  0.00  0.00    +0.084 C 
ATOM      7  C   UNL     1      37.288 -24.245 -12.906  0.00  0.00    +0.021 C 
ATOM      8  C   UNL     1      34.965 -24.604 -12.407  0.00  0.00    +0.007 C 
ATOM      9  C   UNL     1      37.571 -22.689 -16.126  0.00  0.00    +0.184 C 
ATOM     10  C   UNL     1      36.298 -24.710 -12.042  0.00  0.00    +0.002 C 
ENDROOT
BRANCH   5  12
ATOM     11 CL   UNL     1      34.556 -20.190 -21.672  0.00  0.00    -0.082 Cl
ATOM     12  C   UNL     1      35.843 -22.005 -17.741  0.00  0.00    +0.027 C 
ATOM     13  C   UNL     1      34.541 -22.199 -18.213  0.00  0.00    +0.003 C 
ATOM     14  C   UNL     1      36.743 -21.246 -18.494  0.00  0.00    +0.003 C 
ATOM     15  C   UNL     1      34.144 -21.639 -19.428  0.00  0.00    +0.011 C 
ATOM     16  C   UNL     1      36.346 -20.685 -19.709  0.00  0.00    +0.011 C 
ATOM     17  C   UNL     1      35.046 -20.882 -20.175  0.00  0.00    +0.058 C 
ENDBRANCH   5  12
BRANCH   6  20
ATOM     18  O   UNL     1      32.514 -24.954 -14.101  0.00  0.00    -0.270 OA
ATOM     19  N   UNL     1      32.685 -22.669 -14.165  0.00  0.00    -0.325 N 
ATOM     20  C   UNL     1      33.219 -23.939 -13.985  0.00  0.00    +0.245 C 
ATOM     21  H   UNL     1      31.735 -22.562 -14.403  0.00  0.00    +0.145 HD
ATOM     22  H   UNL     1      33.257 -21.874 -14.057  0.00  0.00    +0.145 HD
ENDBRANCH   6  20
TORSDOF 2
ENDMDL
