MODEL 1
REMARK VINA RESULT:     -11.7      0.000      0.000
REMARK  Name = 25147644
REMARK  4 active torsions:
REMARK  status: ('A' for Active; 'I' for Inactive)
REMARK    1  A    between atoms: C_3  and  N_11
REMARK    2  A    between atoms: C_4  and  C_23
REMARK    3  A    between atoms: C_12  and  C_15
REMARK    4  A    between atoms: C_23  and  C_25
REMARK                            x       y       z     vdW  Elec       q    Type
REMARK                         _______ _______ _______ _____ _____    ______ ____
ROOT
ATOM      1  N   UNL     1      32.242 -23.872 -13.725  0.00  0.00    +0.390 N 
ATOM      2  C   UNL     1      30.901 -23.720 -15.950  0.00  0.00    +0.012 C 
ATOM      3  C   UNL     1      32.422 -23.750 -16.218  0.00  0.00    +0.053 C 
ATOM      4  C   UNL     1      33.169 -23.629 -14.865  0.00  0.00    -0.035 C 
ATOM      5  C   UNL     1      30.572 -22.541 -15.017  0.00  0.00    -0.021 C 
ATOM      6  C   UNL     1      30.562 -25.012 -15.188  0.00  0.00    -0.021 C 
ATOM      7  C   UNL     1      31.290 -22.736 -13.670  0.00  0.00    -0.077 C 
ATOM      8  C   UNL     1      31.456 -25.110 -13.940  0.00  0.00    -0.077 C 
ATOM      9  H   UNL     1      32.783 -23.965 -12.864  0.00  0.00    -0.080 HD
ENDROOT
BRANCH   3  11
ATOM     10  O   UNL     1      33.755 -24.150 -18.729  0.00  0.00    -0.267 OA
ATOM     11  N   UNL     1      32.835 -22.726 -17.146  0.00  0.00    -0.302 N 
ATOM     12  C   UNL     1      33.476 -23.019 -18.341  0.00  0.00    +0.280 C 
ATOM     13  H   UNL     1      32.655 -21.785 -16.923  0.00  0.00    +0.150 HD
BRANCH  12  15
ATOM     14  O   UNL     1      35.185 -21.620 -19.371  0.00  0.00    -0.449 OA
ATOM     15  C   UNL     1      33.860 -21.850 -19.175  0.00  0.00    +0.198 C 
ATOM     16  C   UNL     1      33.100 -20.905 -19.822  0.00  0.00    +0.045 C 
ATOM     17  C   UNL     1      34.013 -20.028 -20.464  0.00  0.00    +0.038 C 
ATOM     18  C   UNL     1      35.281 -20.511 -20.156  0.00  0.00    +0.146 C 
ATOM     19  C   UNL     1      33.910 -18.881 -21.270  0.00  0.00    +0.003 C 
ATOM     20  C   UNL     1      36.468 -19.929 -20.597  0.00  0.00    +0.037 C 
ATOM     21  C   UNL     1      35.087 -18.273 -21.729  0.00  0.00    +0.000 C 
ATOM     22  C   UNL     1      36.341 -18.789 -21.397  0.00  0.00    +0.003 C 
ENDBRANCH  12  15
ENDBRANCH   3  11
BRANCH   4  23
ATOM     23  C   UNL     1      34.391 -24.550 -14.808  0.00  0.00    +0.009 C 
BRANCH  23  25
ATOM     24  N   UNL     1      37.522 -23.011 -13.349  0.00  0.00    -0.243 NA
ATOM     25  C   UNL     1      35.397 -24.070 -13.800  0.00  0.00    -0.005 C 
ATOM     26  C   UNL     1      35.173 -24.224 -12.437  0.00  0.00    -0.001 C 
ATOM     27  C   UNL     1      36.576 -23.463 -14.202  0.00  0.00    +0.095 C 
ATOM     28  C   UNL     1      36.124 -23.771 -11.528  0.00  0.00    +0.020 C 
ATOM     29  C   UNL     1      37.271 -23.177 -12.030  0.00  0.00    +0.099 C 
ENDBRANCH  23  25
ENDBRANCH   4  23
TORSDOF 4
ENDMDL
