MODEL 1
REMARK VINA RESULT:      -6.9      0.000      0.000
REMARK  Name = 49866822
REMARK  7 active torsions:
REMARK  status: ('A' for Active; 'I' for Inactive)
REMARK    1  A    between atoms: N_2  and  C_17
REMARK    2  A    between atoms: C_4  and  O_8
REMARK    3  A    between atoms: C_4  and  C_12
REMARK    4  A    between atoms: C_5  and  O_10
REMARK    5  A    between atoms: C_12  and  N_13
REMARK    6  A    between atoms: C_17  and  C_19
REMARK    7  A    between atoms: C_19  and  O_20
REMARK                            x       y       z     vdW  Elec       q    Type
REMARK                         _______ _______ _______ _____ _____    ______ ____
ROOT
ATOM      1  O   UNL     1      38.301 -27.315 -14.497  0.00  0.00    -0.271 OA
ATOM      2  N   UNL     1      36.366 -24.707 -13.333  0.00  0.00    -0.200 NA
ATOM      3  N   UNL     1      37.253 -25.376 -15.373  0.00  0.00    -0.272 N 
ATOM      4  C   UNL     1      36.455 -24.307 -14.784  0.00  0.00    +0.183 C 
ATOM      5  C   UNL     1      37.021 -25.792 -13.173  0.00  0.00    +0.255 C 
ATOM      6  C   UNL     1      37.640 -26.304 -14.431  0.00  0.00    +0.268 C 
ATOM      7  H   UNL     1      37.488 -25.427 -16.328  0.00  0.00    +0.153 HD
ENDROOT
BRANCH   4   8
ATOM      8  O   UNL     1      35.233 -24.214 -15.507  0.00  0.00    -0.360 OA
ATOM      9  H   UNL     1      35.089 -25.032 -16.007  0.00  0.00    +0.213 HD
ENDBRANCH   4   8
BRANCH   5  10
ATOM     10  O   UNL     1      37.122 -26.389 -12.009  0.00  0.00    -0.363 OA
ATOM     11  H   UNL     1      37.361 -25.897 -11.249  0.00  0.00    +0.212 HD
ENDBRANCH   5  10
BRANCH   4  12
ATOM     12  C   UNL     1      37.190 -22.974 -14.888  0.00  0.00    -0.021 C 
BRANCH  12  13
ATOM     13  N   UNL     1      37.875 -22.856 -16.166  0.00  0.00    +0.384 N 
ATOM     14  H   UNL     1      38.832 -22.538 -16.010  0.00  0.00    -0.089 HD
ATOM     15  H   UNL     1      37.384 -22.181 -16.753  0.00  0.00    -0.089 HD
ATOM     16  H   UNL     1      37.888 -23.763 -16.630  0.00  0.00    -0.089 HD
ENDBRANCH  12  13
ENDBRANCH   4  12
BRANCH   2  17
ATOM     17  C   UNL     1      35.588 -23.947 -12.345  0.00  0.00    +0.188 C 
BRANCH  17  19
ATOM     18  O   UNL     1      37.449 -22.775 -11.362  0.00  0.00    -0.249 OA
ATOM     19  C   UNL     1      36.510 -23.551 -11.230  0.00  0.00    +0.331 C 
BRANCH  19  20
ATOM     20  O   UNL     1      36.214 -24.166 -10.058  0.00  0.00    -0.479 OA
ATOM     21  H   UNL     1      36.247 -25.100  -9.997  0.00  0.00    +0.295 HD
ENDBRANCH  19  20
ENDBRANCH  17  19
ENDBRANCH   2  17
TORSDOF 7
ENDMDL
MODEL 2
REMARK VINA RESULT:      -6.8      2.384      4.430
REMARK  Name = 49866822
REMARK  7 active torsions:
REMARK  status: ('A' for Active; 'I' for Inactive)
REMARK    1  A    between atoms: N_2  and  C_17
REMARK    2  A    between atoms: C_4  and  O_8
REMARK    3  A    between atoms: C_4  and  C_12
REMARK    4  A    between atoms: C_5  and  O_10
REMARK    5  A    between atoms: C_12  and  N_13
REMARK    6  A    between atoms: C_17  and  C_19
REMARK    7  A    between atoms: C_19  and  O_20
REMARK                            x       y       z     vdW  Elec       q    Type
REMARK                         _______ _______ _______ _____ _____    ______ ____
ROOT
ATOM      1  O   UNL     1      35.581 -23.910 -16.149  0.00  0.00    -0.271 OA
ATOM      2  N   UNL     1      38.281 -24.940 -14.264  0.00  0.00    -0.200 NA
ATOM      3  N   UNL     1      36.050 -25.545 -14.495  0.00  0.00    -0.272 N 
ATOM      4  C   UNL     1      37.243 -25.896 -13.734  0.00  0.00    +0.183 C 
ATOM      5  C   UNL     1      37.730 -24.194 -15.143  0.00  0.00    +0.255 C 
ATOM      6  C   UNL     1      36.285 -24.499 -15.362  0.00  0.00    +0.268 C 
ATOM      7  H   UNL     1      35.181 -25.999 -14.400  0.00  0.00    +0.153 HD
ENDROOT
BRANCH   4   8
ATOM      8  O   UNL     1      37.491 -27.286 -13.911  0.00  0.00    -0.360 OA
ATOM      9  H   UNL     1      38.429 -27.425 -14.111  0.00  0.00    +0.213 HD
ENDBRANCH   4   8
BRANCH   5  10
ATOM     10  O   UNL     1      38.389 -23.259 -15.788  0.00  0.00    -0.363 OA
ATOM     11  H   UNL     1      38.872 -23.476 -16.561  0.00  0.00    +0.212 HD
ENDBRANCH   5  10
BRANCH   4  12
ATOM     12  C   UNL     1      37.027 -25.621 -12.249  0.00  0.00    -0.021 C 
BRANCH  12  13
ATOM     13  N   UNL     1      35.705 -25.064 -12.009  0.00  0.00    +0.384 N 
ATOM     14  H   UNL     1      35.038 -25.822 -11.868  0.00  0.00    -0.089 HD
ATOM     15  H   UNL     1      35.421 -24.505 -12.815  0.00  0.00    -0.089 HD
ATOM     16  H   UNL     1      35.730 -24.473 -11.179  0.00  0.00    -0.089 HD
ENDBRANCH  12  13
ENDBRANCH   4  12
BRANCH   2  17
ATOM     17  C   UNL     1      39.684 -24.966 -13.828  0.00  0.00    +0.188 C 
BRANCH  17  19
ATOM     18  O   UNL     1      41.143 -26.837 -14.239  0.00  0.00    -0.249 OA
ATOM     19  C   UNL     1      40.420 -25.954 -14.682  0.00  0.00    +0.331 C 
BRANCH  19  20
ATOM     20  O   UNL     1      40.224 -25.751 -16.010  0.00  0.00    -0.479 OA
ATOM     21  H   UNL     1      40.692 -26.267 -16.636  0.00  0.00    +0.295 HD
ENDBRANCH  19  20
ENDBRANCH  17  19
ENDBRANCH   2  17
TORSDOF 7
ENDMDL
MODEL 3
REMARK VINA RESULT:      -6.8      1.762      3.657
REMARK  Name = 49866822
REMARK  7 active torsions:
REMARK  status: ('A' for Active; 'I' for Inactive)
REMARK    1  A    between atoms: N_2  and  C_17
REMARK    2  A    between atoms: C_4  and  O_8
REMARK    3  A    between atoms: C_4  and  C_12
REMARK    4  A    between atoms: C_5  and  O_10
REMARK    5  A    between atoms: C_12  and  N_13
REMARK    6  A    between atoms: C_17  and  C_19
REMARK    7  A    between atoms: C_19  and  O_20
REMARK                            x       y       z     vdW  Elec       q    Type
REMARK                         _______ _______ _______ _____ _____    ______ ____
ROOT
ATOM      1  O   UNL     1      35.552 -24.503 -10.573  0.00  0.00    -0.271 OA
ATOM      2  N   UNL     1      36.937 -25.094 -13.677  0.00  0.00    -0.200 NA
ATOM      3  N   UNL     1      35.891 -23.320 -12.602  0.00  0.00    -0.272 N 
ATOM      4  C   UNL     1      36.485 -23.671 -13.887  0.00  0.00    +0.183 C 
ATOM      5  C   UNL     1      36.621 -25.446 -12.491  0.00  0.00    +0.255 C 
ATOM      6  C   UNL     1      35.933 -24.373 -11.714  0.00  0.00    +0.268 C 
ATOM      7  H   UNL     1      35.507 -22.438 -12.394  0.00  0.00    +0.153 HD
ENDROOT
BRANCH   4   8
ATOM      8  O   UNL     1      37.488 -22.709 -14.191  0.00  0.00    -0.360 OA
ATOM      9  H   UNL     1      37.616 -22.123 -13.430  0.00  0.00    +0.213 HD
ENDBRANCH   4   8
BRANCH   5  10
ATOM     10  O   UNL     1      36.891 -26.640 -12.014  0.00  0.00    -0.363 OA
ATOM     11  H   UNL     1      37.679 -27.078 -12.268  0.00  0.00    +0.212 HD
ENDBRANCH   5  10
BRANCH   4  12
ATOM     12  C   UNL     1      35.427 -23.643 -14.987  0.00  0.00    -0.021 C 
BRANCH  12  13
ATOM     13  N   UNL     1      34.275 -22.853 -14.581  0.00  0.00    +0.384 N 
ATOM     14  H   UNL     1      34.059 -22.169 -15.306  0.00  0.00    -0.089 HD
ATOM     15  H   UNL     1      34.485 -22.369 -13.708  0.00  0.00    -0.089 HD
ATOM     16  H   UNL     1      33.473 -23.468 -14.443  0.00  0.00    -0.089 HD
ENDBRANCH  12  13
ENDBRANCH   4  12
BRANCH   2  17
ATOM     17  C   UNL     1      37.662 -25.857 -14.702  0.00  0.00    +0.188 C 
BRANCH  17  19
ATOM     18  O   UNL     1      39.872 -26.147 -13.790  0.00  0.00    -0.249 OA
ATOM     19  C   UNL     1      39.124 -25.556 -14.560  0.00  0.00    +0.331 C 
BRANCH  19  20
ATOM     20  O   UNL     1      39.533 -24.537 -15.356  0.00  0.00    -0.479 OA
ATOM     21  H   UNL     1      40.446 -24.405 -15.516  0.00  0.00    +0.295 HD
ENDBRANCH  19  20
ENDBRANCH  17  19
ENDBRANCH   2  17
TORSDOF 7
ENDMDL
MODEL 4
REMARK VINA RESULT:      -6.7      1.892      4.479
REMARK  Name = 49866822
REMARK  7 active torsions:
REMARK  status: ('A' for Active; 'I' for Inactive)
REMARK    1  A    between atoms: N_2  and  C_17
REMARK    2  A    between atoms: C_4  and  O_8
REMARK    3  A    between atoms: C_4  and  C_12
REMARK    4  A    between atoms: C_5  and  O_10
REMARK    5  A    between atoms: C_12  and  N_13
REMARK    6  A    between atoms: C_17  and  C_19
REMARK    7  A    between atoms: C_19  and  O_20
REMARK                            x       y       z     vdW  Elec       q    Type
REMARK                         _______ _______ _______ _____ _____    ______ ____
ROOT
ATOM      1  O   UNL     1      33.150 -23.972 -13.127  0.00  0.00    -0.271 OA
ATOM      2  N   UNL     1      36.369 -24.843 -14.011  0.00  0.00    -0.200 NA
ATOM      3  N   UNL     1      35.122 -24.739 -12.054  0.00  0.00    -0.272 N 
ATOM      4  C   UNL     1      36.462 -25.071 -12.523  0.00  0.00    +0.183 C 
ATOM      5  C   UNL     1      35.188 -24.442 -14.284  0.00  0.00    +0.255 C 
ATOM      6  C   UNL     1      34.303 -24.334 -13.086  0.00  0.00    +0.268 C 
ATOM      7  H   UNL     1      34.836 -24.798 -11.113  0.00  0.00    +0.153 HD
ENDROOT
BRANCH   4   8
ATOM      8  O   UNL     1      36.774 -26.389 -12.086  0.00  0.00    -0.360 OA
ATOM      9  H   UNL     1      37.736 -26.509 -12.082  0.00  0.00    +0.213 HD
ENDBRANCH   4   8
BRANCH   5  10
ATOM     10  O   UNL     1      34.803 -24.163 -15.508  0.00  0.00    -0.363 OA
ATOM     11  H   UNL     1      35.182 -23.439 -15.965  0.00  0.00    +0.212 HD
ENDBRANCH   5  10
BRANCH   4  12
ATOM     12  C   UNL     1      37.486 -24.104 -11.936  0.00  0.00    -0.021 C 
BRANCH  12  13
ATOM     13  N   UNL     1      36.932 -23.386 -10.798  0.00  0.00    +0.384 N 
ATOM     14  H   UNL     1      36.644 -22.453 -11.093  0.00  0.00    -0.089 HD
ATOM     15  H   UNL     1      37.639 -23.309 -10.068  0.00  0.00    -0.089 HD
ATOM     16  H   UNL     1      36.125 -23.893 -10.437  0.00  0.00    -0.089 HD
ENDBRANCH  12  13
ENDBRANCH   4  12
BRANCH   2  17
ATOM     17  C   UNL     1      37.484 -25.117 -14.928  0.00  0.00    +0.188 C 
BRANCH  17  19
ATOM     18  O   UNL     1      38.304 -27.350 -14.552  0.00  0.00    -0.249 OA
ATOM     19  C   UNL     1      37.548 -26.597 -15.155  0.00  0.00    +0.331 C 
BRANCH  19  20
ATOM     20  O   UNL     1      36.698 -27.020 -16.124  0.00  0.00    -0.479 OA
ATOM     21  H   UNL     1      36.204 -26.396 -16.619  0.00  0.00    +0.295 HD
ENDBRANCH  19  20
ENDBRANCH  17  19
ENDBRANCH   2  17
TORSDOF 7
ENDMDL
MODEL 5
REMARK VINA RESULT:      -6.6      2.033      2.496
REMARK  Name = 49866822
REMARK  7 active torsions:
REMARK  status: ('A' for Active; 'I' for Inactive)
REMARK    1  A    between atoms: N_2  and  C_17
REMARK    2  A    between atoms: C_4  and  O_8
REMARK    3  A    between atoms: C_4  and  C_12
REMARK    4  A    between atoms: C_5  and  O_10
REMARK    5  A    between atoms: C_12  and  N_13
REMARK    6  A    between atoms: C_17  and  C_19
REMARK    7  A    between atoms: C_19  and  O_20
REMARK                            x       y       z     vdW  Elec       q    Type
REMARK                         _______ _______ _______ _____ _____    ______ ____
ROOT
ATOM      1  O   UNL     1      36.194 -27.225 -15.917  0.00  0.00    -0.271 OA
ATOM      2  N   UNL     1      37.048 -24.438 -14.071  0.00  0.00    -0.200 NA
ATOM      3  N   UNL     1      38.146 -25.967 -15.433  0.00  0.00    -0.272 N 
ATOM      4  C   UNL     1      38.410 -24.790 -14.613  0.00  0.00    +0.183 C 
ATOM      5  C   UNL     1      36.206 -25.292 -14.512  0.00  0.00    +0.255 C 
ATOM      6  C   UNL     1      36.816 -26.328 -15.397  0.00  0.00    +0.268 C 
ATOM      7  H   UNL     1      38.835 -26.445 -15.950  0.00  0.00    +0.153 HD
ENDROOT
BRANCH   4   8
ATOM      8  O   UNL     1      39.057 -23.817 -15.425  0.00  0.00    -0.360 OA
ATOM      9  H   UNL     1      39.013 -24.090 -16.354  0.00  0.00    +0.213 HD
ENDBRANCH   4   8
BRANCH   5  10
ATOM     10  O   UNL     1      34.929 -25.242 -14.212  0.00  0.00    -0.363 OA
ATOM     11  H   UNL     1      34.546 -25.913 -13.683  0.00  0.00    +0.212 HD
ENDBRANCH   5  10
BRANCH   4  12
ATOM     12  C   UNL     1      39.330 -25.149 -13.449  0.00  0.00    -0.021 C 
BRANCH  12  13
ATOM     13  N   UNL     1      40.269 -26.193 -13.830  0.00  0.00    +0.384 N 
ATOM     14  H   UNL     1      40.210 -26.351 -14.836  0.00  0.00    -0.089 HD
ATOM     15  H   UNL     1      40.037 -27.055 -13.336  0.00  0.00    -0.089 HD
ATOM     16  H   UNL     1      41.215 -25.905 -13.585  0.00  0.00    -0.089 HD
ENDBRANCH  12  13
ENDBRANCH   4  12
BRANCH   2  17
ATOM     17  C   UNL     1      36.808 -23.260 -13.227  0.00  0.00    +0.188 C 
BRANCH  17  19
ATOM     18  O   UNL     1      36.989 -24.217 -11.025  0.00  0.00    -0.249 OA
ATOM     19  C   UNL     1      36.286 -23.732 -11.904  0.00  0.00    +0.331 C 
BRANCH  19  20
ATOM     20  O   UNL     1      34.942 -23.594 -11.787  0.00  0.00    -0.479 OA
ATOM     21  H   UNL     1      34.494 -22.936 -12.282  0.00  0.00    +0.295 HD
ENDBRANCH  19  20
ENDBRANCH  17  19
ENDBRANCH   2  17
TORSDOF 7
ENDMDL
MODEL 6
REMARK VINA RESULT:      -6.6      1.984      3.840
REMARK  Name = 49866822
REMARK  7 active torsions:
REMARK  status: ('A' for Active; 'I' for Inactive)
REMARK    1  A    between atoms: N_2  and  C_17
REMARK    2  A    between atoms: C_4  and  O_8
REMARK    3  A    between atoms: C_4  and  C_12
REMARK    4  A    between atoms: C_5  and  O_10
REMARK    5  A    between atoms: C_12  and  N_13
REMARK    6  A    between atoms: C_17  and  C_19
REMARK    7  A    between atoms: C_19  and  O_20
REMARK                            x       y       z     vdW  Elec       q    Type
REMARK                         _______ _______ _______ _____ _____    ______ ____
ROOT
ATOM      1  O   UNL     1      34.334 -23.906 -15.930  0.00  0.00    -0.271 OA
ATOM      2  N   UNL     1      36.434 -25.257 -13.549  0.00  0.00    -0.200 NA
ATOM      3  N   UNL     1      34.692 -23.720 -13.592  0.00  0.00    -0.272 N 
ATOM      4  C   UNL     1      35.634 -24.335 -12.664  0.00  0.00    +0.183 C 
ATOM      5  C   UNL     1      36.004 -25.139 -14.746  0.00  0.00    +0.255 C 
ATOM      6  C   UNL     1      34.882 -24.164 -14.883  0.00  0.00    +0.268 C 
ATOM      7  H   UNL     1      34.003 -23.068 -13.328  0.00  0.00    +0.153 HD
ENDROOT
BRANCH   4   8
ATOM      8  O   UNL     1      34.892 -24.932 -11.607  0.00  0.00    -0.360 OA
ATOM      9  H   UNL     1      34.875 -24.333 -10.844  0.00  0.00    +0.213 HD
ENDBRANCH   4   8
BRANCH   5  10
ATOM     10  O   UNL     1      36.508 -25.824 -15.746  0.00  0.00    -0.363 OA
ATOM     11  H   UNL     1      37.369 -26.186 -15.679  0.00  0.00    +0.212 HD
ENDBRANCH   5  10
BRANCH   4  12
ATOM     12  C   UNL     1      36.565 -23.280 -12.075  0.00  0.00    -0.021 C 
BRANCH  12  13
ATOM     13  N   UNL     1      36.822 -23.540 -10.666  0.00  0.00    +0.384 N 
ATOM     14  H   UNL     1      36.050 -23.177 -10.108  0.00  0.00    -0.089 HD
ATOM     15  H   UNL     1      37.690 -23.080 -10.389  0.00  0.00    -0.089 HD
ATOM     16  H   UNL     1      36.908 -24.545 -10.517  0.00  0.00    -0.089 HD
ENDBRANCH  12  13
ENDBRANCH   4  12
BRANCH   2  17
ATOM     17  C   UNL     1      37.479 -26.149 -13.029  0.00  0.00    +0.188 C 
BRANCH  17  19
ATOM     18  O   UNL     1      39.402 -24.735 -13.355  0.00  0.00    -0.249 OA
ATOM     19  C   UNL     1      38.784 -25.750 -13.652  0.00  0.00    +0.331 C 
BRANCH  19  20
ATOM     20  O   UNL     1      39.201 -26.621 -14.605  0.00  0.00    -0.479 OA
ATOM     21  H   UNL     1      40.002 -26.464 -15.065  0.00  0.00    +0.295 HD
ENDBRANCH  19  20
ENDBRANCH  17  19
ENDBRANCH   2  17
TORSDOF 7
ENDMDL
MODEL 7
REMARK VINA RESULT:      -6.5      1.947      2.491
REMARK  Name = 49866822
REMARK  7 active torsions:
REMARK  status: ('A' for Active; 'I' for Inactive)
REMARK    1  A    between atoms: N_2  and  C_17
REMARK    2  A    between atoms: C_4  and  O_8
REMARK    3  A    between atoms: C_4  and  C_12
REMARK    4  A    between atoms: C_5  and  O_10
REMARK    5  A    between atoms: C_12  and  N_13
REMARK    6  A    between atoms: C_17  and  C_19
REMARK    7  A    between atoms: C_19  and  O_20
REMARK                            x       y       z     vdW  Elec       q    Type
REMARK                         _______ _______ _______ _____ _____    ______ ____
ROOT
ATOM      1  O   UNL     1      36.896 -27.223 -15.930  0.00  0.00    -0.271 OA
ATOM      2  N   UNL     1      36.712 -24.343 -14.040  0.00  0.00    -0.200 NA
ATOM      3  N   UNL     1      35.217 -25.890 -14.915  0.00  0.00    -0.272 N 
ATOM      4  C   UNL     1      35.241 -24.659 -14.135  0.00  0.00    +0.183 C 
ATOM      5  C   UNL     1      37.359 -25.242 -14.676  0.00  0.00    +0.255 C 
ATOM      6  C   UNL     1      36.483 -26.286 -15.286  0.00  0.00    +0.268 C 
ATOM      7  H   UNL     1      34.394 -26.380 -15.148  0.00  0.00    +0.153 HD
ENDROOT
BRANCH   4   8
ATOM      8  O   UNL     1      34.547 -24.891 -12.914  0.00  0.00    -0.360 OA
ATOM      9  H   UNL     1      35.168 -25.221 -12.247  0.00  0.00    +0.213 HD
ENDBRANCH   4   8
BRANCH   5  10
ATOM     10  O   UNL     1      38.668 -25.237 -14.768  0.00  0.00    -0.363 OA
ATOM     11  H   UNL     1      39.177 -25.822 -14.242  0.00  0.00    +0.212 HD
ENDBRANCH   5  10
BRANCH   4  12
ATOM     12  C   UNL     1      34.540 -23.535 -14.892  0.00  0.00    -0.021 C 
BRANCH  12  13
ATOM     13  N   UNL     1      33.353 -23.087 -14.179  0.00  0.00    +0.384 N 
ATOM     14  H   UNL     1      32.539 -23.598 -14.520  0.00  0.00    -0.089 HD
ATOM     15  H   UNL     1      33.219 -22.088 -14.336  0.00  0.00    -0.089 HD
ATOM     16  H   UNL     1      33.471 -23.261 -13.181  0.00  0.00    -0.089 HD
ENDBRANCH  12  13
ENDBRANCH   4  12
BRANCH   2  17
ATOM     17  C   UNL     1      37.233 -23.201 -13.276  0.00  0.00    +0.188 C 
BRANCH  17  19
ATOM     18  O   UNL     1      37.047 -24.395 -11.192  0.00  0.00    -0.249 OA
ATOM     19  C   UNL     1      37.720 -23.710 -11.952  0.00  0.00    +0.331 C 
BRANCH  19  20
ATOM     20  O   UNL     1      38.984 -23.308 -11.666  0.00  0.00    -0.479 OA
ATOM     21  H   UNL     1      39.713 -23.714 -12.091  0.00  0.00    +0.295 HD
ENDBRANCH  19  20
ENDBRANCH  17  19
ENDBRANCH   2  17
TORSDOF 7
ENDMDL
MODEL 8
REMARK VINA RESULT:      -6.5      2.118      3.462
REMARK  Name = 49866822
REMARK  7 active torsions:
REMARK  status: ('A' for Active; 'I' for Inactive)
REMARK    1  A    between atoms: N_2  and  C_17
REMARK    2  A    between atoms: C_4  and  O_8
REMARK    3  A    between atoms: C_4  and  C_12
REMARK    4  A    between atoms: C_5  and  O_10
REMARK    5  A    between atoms: C_12  and  N_13
REMARK    6  A    between atoms: C_17  and  C_19
REMARK    7  A    between atoms: C_19  and  O_20
REMARK                            x       y       z     vdW  Elec       q    Type
REMARK                         _______ _______ _______ _____ _____    ______ ____
ROOT
ATOM      1  O   UNL     1      39.892 -26.664 -14.814  0.00  0.00    -0.271 OA
ATOM      2  N   UNL     1      36.822 -25.161 -14.342  0.00  0.00    -0.200 NA
ATOM      3  N   UNL     1      38.943 -25.007 -13.406  0.00  0.00    -0.272 N 
ATOM      4  C   UNL     1      37.605 -24.443 -13.272  0.00  0.00    +0.183 C 
ATOM      5  C   UNL     1      37.605 -25.981 -14.931  0.00  0.00    +0.255 C 
ATOM      6  C   UNL     1      38.998 -25.964 -14.396  0.00  0.00    +0.268 C 
ATOM      7  H   UNL     1      39.714 -24.737 -12.855  0.00  0.00    +0.153 HD
ENDROOT
BRANCH   4   8
ATOM      8  O   UNL     1      37.705 -23.027 -13.381  0.00  0.00    -0.360 OA
ATOM      9  H   UNL     1      37.417 -22.618 -12.551  0.00  0.00    +0.213 HD
ENDBRANCH   4   8
BRANCH   5  10
ATOM     10  O   UNL     1      37.206 -26.751 -15.917  0.00  0.00    -0.363 OA
ATOM     11  H   UNL     1      37.834 -27.231 -16.419  0.00  0.00    +0.212 HD
ENDBRANCH   5  10
BRANCH   4  12
ATOM     12  C   UNL     1      37.015 -24.790 -11.908  0.00  0.00    -0.021 C 
BRANCH  12  13
ATOM     13  N   UNL     1      36.962 -23.615 -11.050  0.00  0.00    +0.384 N 
ATOM     14  H   UNL     1      36.332 -22.925 -11.459  0.00  0.00    -0.089 HD
ATOM     15  H   UNL     1      37.896 -23.214 -10.965  0.00  0.00    -0.089 HD
ATOM     16  H   UNL     1      36.622 -23.883 -10.128  0.00  0.00    -0.089 HD
ENDBRANCH  12  13
ENDBRANCH   4  12
BRANCH   2  17
ATOM     17  C   UNL     1      35.412 -24.867 -14.628  0.00  0.00    +0.188 C 
BRANCH  17  19
ATOM     18  O   UNL     1      35.656 -23.442 -16.555  0.00  0.00    -0.249 OA
ATOM     19  C   UNL     1      35.349 -23.569 -15.375  0.00  0.00    +0.331 C 
BRANCH  19  20
ATOM     20  O   UNL     1      34.940 -22.533 -14.600  0.00  0.00    -0.479 OA
ATOM     21  H   UNL     1      35.418 -21.727 -14.604  0.00  0.00    +0.295 HD
ENDBRANCH  19  20
ENDBRANCH  17  19
ENDBRANCH   2  17
TORSDOF 7
ENDMDL
MODEL 9
REMARK VINA RESULT:      -6.4      1.474      2.944
REMARK  Name = 49866822
REMARK  7 active torsions:
REMARK  status: ('A' for Active; 'I' for Inactive)
REMARK    1  A    between atoms: N_2  and  C_17
REMARK    2  A    between atoms: C_4  and  O_8
REMARK    3  A    between atoms: C_4  and  C_12
REMARK    4  A    between atoms: C_5  and  O_10
REMARK    5  A    between atoms: C_12  and  N_13
REMARK    6  A    between atoms: C_17  and  C_19
REMARK    7  A    between atoms: C_19  and  O_20
REMARK                            x       y       z     vdW  Elec       q    Type
REMARK                         _______ _______ _______ _____ _____    ______ ____
ROOT
ATOM      1  O   UNL     1      36.131 -22.834 -16.433  0.00  0.00    -0.271 OA
ATOM      2  N   UNL     1      36.512 -24.507 -13.440  0.00  0.00    -0.200 NA
ATOM      3  N   UNL     1      37.678 -24.335 -15.442  0.00  0.00    -0.272 N 
ATOM      4  C   UNL     1      37.742 -25.010 -14.151  0.00  0.00    +0.183 C 
ATOM      5  C   UNL     1      35.890 -23.714 -14.224  0.00  0.00    +0.255 C 
ATOM      6  C   UNL     1      36.557 -23.540 -15.548  0.00  0.00    +0.268 C 
ATOM      7  H   UNL     1      38.353 -24.435 -16.152  0.00  0.00    +0.153 HD
ENDROOT
BRANCH   4   8
ATOM      8  O   UNL     1      39.002 -24.717 -13.557  0.00  0.00    -0.360 OA
ATOM      9  H   UNL     1      39.133 -23.757 -13.534  0.00  0.00    +0.213 HD
ENDBRANCH   4   8
BRANCH   5  10
ATOM     10  O   UNL     1      34.776 -23.111 -13.879  0.00  0.00    -0.363 OA
ATOM     11  H   UNL     1      34.718 -22.670 -13.055  0.00  0.00    +0.212 HD
ENDBRANCH   5  10
BRANCH   4  12
ATOM     12  C   UNL     1      37.626 -26.521 -14.334  0.00  0.00    -0.021 C 
BRANCH  12  13
ATOM     13  N   UNL     1      36.412 -26.865 -15.059  0.00  0.00    +0.384 N 
ATOM     14  H   UNL     1      35.600 -26.660 -14.478  0.00  0.00    -0.089 HD
ATOM     15  H   UNL     1      36.424 -27.859 -15.289  0.00  0.00    -0.089 HD
ATOM     16  H   UNL     1      36.363 -26.319 -15.918  0.00  0.00    -0.089 HD
ENDBRANCH  12  13
ENDBRANCH   4  12
BRANCH   2  17
ATOM     17  C   UNL     1      36.188 -24.874 -12.054  0.00  0.00    +0.188 C 
BRANCH  17  19
ATOM     18  O   UNL     1      37.563 -22.975 -11.500  0.00  0.00    -0.249 OA
ATOM     19  C   UNL     1      36.741 -23.814 -11.150  0.00  0.00    +0.331 C 
BRANCH  19  20
ATOM     20  O   UNL     1      36.258 -23.896  -9.885  0.00  0.00    -0.479 OA
ATOM     21  H   UNL     1      35.363 -24.134  -9.740  0.00  0.00    +0.295 HD
ENDBRANCH  19  20
ENDBRANCH  17  19
ENDBRANCH   2  17
TORSDOF 7
ENDMDL
