MODEL 1
REMARK VINA RESULT:      -8.0      0.000      0.000
REMARK  Name = 4485
REMARK  6 active torsions:
REMARK  status: ('A' for Active; 'I' for Inactive)
REMARK    1  A    between atoms: C_2  and  C_10
REMARK    2  A    between atoms: C_3  and  C_20
REMARK    3  A    between atoms: C_4  and  C_24
REMARK    4  A    between atoms: C_11  and  N_18
REMARK    5  A    between atoms: C_20  and  O_21
REMARK    6  A    between atoms: C_24  and  O_25
REMARK                            x       y       z     vdW  Elec       q    Type
REMARK                         _______ _______ _______ _____ _____    ______ ____
ROOT
ATOM      1  N   UNL     1      33.776 -22.918 -17.366  0.00  0.00    -0.334 N 
ATOM      2  C   UNL     1      35.091 -23.213 -14.877  0.00  0.00    +0.013 C 
ATOM      3  C   UNL     1      35.774 -22.644 -16.127  0.00  0.00    +0.071 C 
ATOM      4  C   UNL     1      33.589 -23.443 -15.067  0.00  0.00    +0.085 C 
ATOM      5  C   UNL     1      35.107 -22.538 -17.299  0.00  0.00    +0.098 C 
ATOM      6  C   UNL     1      33.011 -23.317 -16.282  0.00  0.00    +0.028 C 
ATOM      7  C   UNL     1      35.689 -22.034 -18.593  0.00  0.00    +0.026 C 
ATOM      8  C   UNL     1      31.559 -23.570 -16.588  0.00  0.00    +0.047 C 
ATOM      9  H   UNL     1      33.341 -22.902 -18.249  0.00  0.00    +0.147 HD
ENDROOT
BRANCH   2  10
ATOM     10  C   UNL     1      35.759 -24.496 -14.468  0.00  0.00    +0.023 C 
ATOM     11  C   UNL     1      36.242 -24.674 -13.176  0.00  0.00    +0.143 C 
ATOM     12  C   UNL     1      35.883 -25.508 -15.415  0.00  0.00    +0.002 C 
ATOM     13  C   UNL     1      36.857 -25.877 -12.827  0.00  0.00    +0.024 C 
ATOM     14  C   UNL     1      36.498 -26.710 -15.067  0.00  0.00    +0.000 C 
ATOM     15  C   UNL     1      36.985 -26.895 -13.772  0.00  0.00    +0.002 C 
BRANCH  11  18
ATOM     16  O   UNL     1      36.963 -22.718 -12.190  0.00  0.00    -0.126 OA
ATOM     17  O   UNL     1      35.183 -23.709 -11.369  0.00  0.00    -0.126 OA
ATOM     18  N   UNL     1      36.124 -23.650 -12.197  0.00  0.00    +0.058 N 
ENDBRANCH  11  18
ENDBRANCH   2  10
BRANCH   3  20
ATOM     19  O   UNL     1      37.578 -21.145 -16.467  0.00  0.00    -0.245 OA
ATOM     20  C   UNL     1      37.158 -22.171 -15.964  0.00  0.00    +0.339 C 
BRANCH  20  21
ATOM     21  O   UNL     1      37.824 -23.057 -15.186  0.00  0.00    -0.442 OA
ATOM     22  C   UNL     1      38.913 -23.730 -15.828  0.00  0.00    +0.256 C 
ENDBRANCH  20  21
ENDBRANCH   3  20
BRANCH   4  24
ATOM     23  O   UNL     1      32.576 -22.947 -12.983  0.00  0.00    -0.245 OA
ATOM     24  C   UNL     1      32.813 -23.759 -13.857  0.00  0.00    +0.342 C 
BRANCH  24  25
ATOM     25  O   UNL     1      32.438 -25.060 -13.917  0.00  0.00    -0.441 OA
ATOM     26  C   UNL     1      31.047 -25.302 -13.683  0.00  0.00    +0.256 C 
ENDBRANCH  24  25
ENDBRANCH   4  24
TORSDOF 6
ENDMDL
MODEL 2
REMARK VINA RESULT:      -6.7     14.893     17.972
REMARK  Name = 4485
REMARK  6 active torsions:
REMARK  status: ('A' for Active; 'I' for Inactive)
REMARK    1  A    between atoms: C_2  and  C_10
REMARK    2  A    between atoms: C_3  and  C_20
REMARK    3  A    between atoms: C_4  and  C_24
REMARK    4  A    between atoms: C_11  and  N_18
REMARK    5  A    between atoms: C_20  and  O_21
REMARK    6  A    between atoms: C_24  and  O_25
REMARK                            x       y       z     vdW  Elec       q    Type
REMARK                         _______ _______ _______ _____ _____    ______ ____
ROOT
ATOM      1  N   UNL     1      31.600 -11.320 -21.283  0.00  0.00    -0.334 N 
ATOM      2  C   UNL     1      32.942  -9.122 -22.459  0.00  0.00    +0.013 C 
ATOM      3  C   UNL     1      32.318  -9.076 -21.058  0.00  0.00    +0.071 C 
ATOM      4  C   UNL     1      32.913 -10.522 -23.081  0.00  0.00    +0.085 C 
ATOM      5  C   UNL     1      31.672 -10.148 -20.546  0.00  0.00    +0.098 C 
ATOM      6  C   UNL     1      32.235 -11.533 -22.496  0.00  0.00    +0.028 C 
ATOM      7  C   UNL     1      30.990 -10.199 -19.205  0.00  0.00    +0.026 C 
ATOM      8  C   UNL     1      32.099 -12.927 -23.047  0.00  0.00    +0.047 C 
ATOM      9  H   UNL     1      31.057 -12.055 -20.917  0.00  0.00    +0.147 HD
ENDROOT
BRANCH   2  10
ATOM     10  C   UNL     1      32.246  -8.145 -23.362  0.00  0.00    +0.023 C 
ATOM     11  C   UNL     1      32.955  -7.151 -24.028  0.00  0.00    +0.143 C 
ATOM     12  C   UNL     1      30.867  -8.257 -23.521  0.00  0.00    +0.002 C 
ATOM     13  C   UNL     1      32.279  -6.258 -24.860  0.00  0.00    +0.024 C 
ATOM     14  C   UNL     1      30.191  -7.364 -24.352  0.00  0.00    +0.000 C 
ATOM     15  C   UNL     1      30.897  -6.365 -25.023  0.00  0.00    +0.002 C 
BRANCH  11  18
ATOM     16  O   UNL     1      34.891  -7.370 -22.794  0.00  0.00    -0.126 OA
ATOM     17  O   UNL     1      35.035  -6.564 -24.831  0.00  0.00    -0.126 OA
ATOM     18  N   UNL     1      34.362  -7.022 -23.877  0.00  0.00    +0.058 N 
ENDBRANCH  11  18
ENDBRANCH   2  10
BRANCH   3  20
ATOM     19  O   UNL     1      33.501  -7.616 -19.613  0.00  0.00    -0.245 OA
ATOM     20  C   UNL     1      32.514  -7.835 -20.291  0.00  0.00    +0.339 C 
BRANCH  20  21
ATOM     21  O   UNL     1      31.435  -7.039 -20.484  0.00  0.00    -0.442 OA
ATOM     22  C   UNL     1      31.729  -5.729 -20.984  0.00  0.00    +0.256 C 
ENDBRANCH  20  21
ENDBRANCH   3  20
BRANCH   4  24
ATOM     23  O   UNL     1      33.244 -11.216 -25.323  0.00  0.00    -0.245 OA
ATOM     24  C   UNL     1      33.697 -10.711 -24.313  0.00  0.00    +0.342 C 
BRANCH  24  25
ATOM     25  O   UNL     1      34.948 -10.233 -24.102  0.00  0.00    -0.441 OA
ATOM     26  C   UNL     1      35.727 -10.030 -25.285  0.00  0.00    +0.256 C 
ENDBRANCH  24  25
ENDBRANCH   4  24
TORSDOF 6
ENDMDL
MODEL 3
REMARK VINA RESULT:      -6.6      1.587      2.641
REMARK  Name = 4485
REMARK  6 active torsions:
REMARK  status: ('A' for Active; 'I' for Inactive)
REMARK    1  A    between atoms: C_2  and  C_10
REMARK    2  A    between atoms: C_3  and  C_20
REMARK    3  A    between atoms: C_4  and  C_24
REMARK    4  A    between atoms: C_11  and  N_18
REMARK    5  A    between atoms: C_20  and  O_21
REMARK    6  A    between atoms: C_24  and  O_25
REMARK                            x       y       z     vdW  Elec       q    Type
REMARK                         _______ _______ _______ _____ _____    ______ ____
ROOT
ATOM      1  N   UNL     1      32.874 -23.755 -15.457  0.00  0.00    -0.334 N 
ATOM      2  C   UNL     1      35.527 -23.633 -14.477  0.00  0.00    +0.013 C 
ATOM      3  C   UNL     1      35.116 -23.109 -15.858  0.00  0.00    +0.071 C 
ATOM      4  C   UNL     1      34.332 -24.068 -13.622  0.00  0.00    +0.085 C 
ATOM      5  C   UNL     1      33.837 -23.205 -16.290  0.00  0.00    +0.098 C 
ATOM      6  C   UNL     1      33.088 -24.137 -14.143  0.00  0.00    +0.028 C 
ATOM      7  C   UNL     1      33.333 -22.763 -17.637  0.00  0.00    +0.026 C 
ATOM      8  C   UNL     1      31.858 -24.601 -13.409  0.00  0.00    +0.047 C 
ATOM      9  H   UNL     1      31.971 -23.882 -15.828  0.00  0.00    +0.147 HD
ENDROOT
BRANCH   2  10
ATOM     10  C   UNL     1      36.492 -24.773 -14.628  0.00  0.00    +0.023 C 
ATOM     11  C   UNL     1      37.729 -24.756 -13.992  0.00  0.00    +0.143 C 
ATOM     12  C   UNL     1      36.120 -25.855 -15.421  0.00  0.00    +0.002 C 
ATOM     13  C   UNL     1      38.605 -25.831 -14.152  0.00  0.00    +0.024 C 
ATOM     14  C   UNL     1      36.995 -26.929 -15.582  0.00  0.00    +0.000 C 
ATOM     15  C   UNL     1      38.237 -26.918 -14.947  0.00  0.00    +0.002 C 
BRANCH  11  18
ATOM     16  O   UNL     1      37.707 -22.512 -13.462  0.00  0.00    -0.126 OA
ATOM     17  O   UNL     1      38.882 -23.873 -12.201  0.00  0.00    -0.126 OA
ATOM     18  N   UNL     1      38.126 -23.660 -13.179  0.00  0.00    +0.058 N 
ENDBRANCH  11  18
ENDBRANCH   2  10
BRANCH   3  20
ATOM     19  O   UNL     1      37.114 -21.870 -16.158  0.00  0.00    -0.245 OA
ATOM     20  C   UNL     1      36.166 -22.451 -16.652  0.00  0.00    +0.339 C 
BRANCH  20  21
ATOM     21  O   UNL     1      35.875 -22.615 -17.965  0.00  0.00    -0.442 OA
ATOM     22  C   UNL     1      36.418 -21.617 -18.837  0.00  0.00    +0.256 C 
ENDBRANCH  20  21
ENDBRANCH   3  20
BRANCH   4  24
ATOM     23  O   UNL     1      34.374 -25.433 -11.684  0.00  0.00    -0.245 OA
ATOM     24  C   UNL     1      34.608 -24.358 -12.205  0.00  0.00    +0.342 C 
BRANCH  24  25
ATOM     25  O   UNL     1      35.144 -23.250 -11.638  0.00  0.00    -0.441 OA
ATOM     26  C   UNL     1      35.966 -23.493 -10.492  0.00  0.00    +0.256 C 
ENDBRANCH  24  25
ENDBRANCH   4  24
TORSDOF 6
ENDMDL
MODEL 4
REMARK VINA RESULT:      -6.1     14.474     17.725
REMARK  Name = 4485
REMARK  6 active torsions:
REMARK  status: ('A' for Active; 'I' for Inactive)
REMARK    1  A    between atoms: C_2  and  C_10
REMARK    2  A    between atoms: C_3  and  C_20
REMARK    3  A    between atoms: C_4  and  C_24
REMARK    4  A    between atoms: C_11  and  N_18
REMARK    5  A    between atoms: C_20  and  O_21
REMARK    6  A    between atoms: C_24  and  O_25
REMARK                            x       y       z     vdW  Elec       q    Type
REMARK                         _______ _______ _______ _____ _____    ______ ____
ROOT
ATOM      1  N   UNL     1      33.482 -11.479 -24.225  0.00  0.00    -0.334 N 
ATOM      2  C   UNL     1      33.062  -9.266 -22.511  0.00  0.00    +0.013 C 
ATOM      3  C   UNL     1      32.395 -10.631 -22.301  0.00  0.00    +0.071 C 
ATOM      4  C   UNL     1      34.103  -9.274 -23.634  0.00  0.00    +0.085 C 
ATOM      5  C   UNL     1      32.614 -11.654 -23.158  0.00  0.00    +0.098 C 
ATOM      6  C   UNL     1      34.248 -10.345 -24.445  0.00  0.00    +0.028 C 
ATOM      7  C   UNL     1      31.983 -13.018 -23.071  0.00  0.00    +0.026 C 
ATOM      8  C   UNL     1      35.199 -10.438 -25.608  0.00  0.00    +0.047 C 
ATOM      9  H   UNL     1      33.561 -12.215 -24.873  0.00  0.00    +0.147 HD
ENDROOT
BRANCH   2  10
ATOM     10  C   UNL     1      32.017  -8.222 -22.787  0.00  0.00    +0.023 C 
ATOM     11  C   UNL     1      31.704  -7.251 -21.842  0.00  0.00    +0.143 C 
ATOM     12  C   UNL     1      31.366  -8.248 -24.017  0.00  0.00    +0.002 C 
ATOM     13  C   UNL     1      30.729  -6.295 -22.129  0.00  0.00    +0.024 C 
ATOM     14  C   UNL     1      30.390  -7.292 -24.304  0.00  0.00    +0.000 C 
ATOM     15  C   UNL     1      30.072  -6.316 -23.360  0.00  0.00    +0.002 C 
BRANCH  11  18
ATOM     16  O   UNL     1      31.691  -7.434 -19.543  0.00  0.00    -0.126 OA
ATOM     17  O   UNL     1      33.586  -6.954 -20.544  0.00  0.00    -0.126 OA
ATOM     18  N   UNL     1      32.359  -7.211 -20.581  0.00  0.00    +0.058 N 
ENDBRANCH  11  18
ENDBRANCH   2  10
BRANCH   3  20
ATOM     19  O   UNL     1      30.375 -11.048 -21.132  0.00  0.00    -0.245 OA
ATOM     20  C   UNL     1      31.562 -10.779 -21.097  0.00  0.00    +0.339 C 
BRANCH  20  21
ATOM     21  O   UNL     1      32.341 -10.566 -20.010  0.00  0.00    -0.442 OA
ATOM     22  C   UNL     1      31.683 -10.734 -18.748  0.00  0.00    +0.256 C 
ENDBRANCH  20  21
ENDBRANCH   3  20
BRANCH   4  24
ATOM     23  O   UNL     1      35.596  -7.624 -22.818  0.00  0.00    -0.245 OA
ATOM     24  C   UNL     1      34.958  -8.081 -23.748  0.00  0.00    +0.342 C 
BRANCH  24  25
ATOM     25  O   UNL     1      34.894  -7.629 -25.024  0.00  0.00    -0.441 OA
ATOM     26  C   UNL     1      34.283  -6.344 -25.182  0.00  0.00    +0.256 C 
ENDBRANCH  24  25
ENDBRANCH   4  24
TORSDOF 6
ENDMDL
MODEL 5
REMARK VINA RESULT:      -5.9      2.407      4.817
REMARK  Name = 4485
REMARK  6 active torsions:
REMARK  status: ('A' for Active; 'I' for Inactive)
REMARK    1  A    between atoms: C_2  and  C_10
REMARK    2  A    between atoms: C_3  and  C_20
REMARK    3  A    between atoms: C_4  and  C_24
REMARK    4  A    between atoms: C_11  and  N_18
REMARK    5  A    between atoms: C_20  and  O_21
REMARK    6  A    between atoms: C_24  and  O_25
REMARK                            x       y       z     vdW  Elec       q    Type
REMARK                         _______ _______ _______ _____ _____    ______ ____
ROOT
ATOM      1  N   UNL     1      33.579 -23.616 -13.387  0.00  0.00    -0.334 N 
ATOM      2  C   UNL     1      34.227 -23.976 -16.119  0.00  0.00    +0.013 C 
ATOM      3  C   UNL     1      35.050 -24.578 -14.973  0.00  0.00    +0.071 C 
ATOM      4  C   UNL     1      32.933 -23.310 -15.642  0.00  0.00    +0.085 C 
ATOM      5  C   UNL     1      34.709 -24.364 -13.681  0.00  0.00    +0.098 C 
ATOM      6  C   UNL     1      32.680 -23.136 -14.326  0.00  0.00    +0.028 C 
ATOM      7  C   UNL     1      35.464 -24.870 -12.482  0.00  0.00    +0.026 C 
ATOM      8  C   UNL     1      31.470 -22.449 -13.753  0.00  0.00    +0.047 C 
ATOM      9  H   UNL     1      33.401 -23.413 -12.441  0.00  0.00    +0.147 HD
ENDROOT
BRANCH   2  10
ATOM     10  C   UNL     1      35.061 -22.988 -16.884  0.00  0.00    +0.023 C 
ATOM     11  C   UNL     1      34.874 -22.795 -18.249  0.00  0.00    +0.143 C 
ATOM     12  C   UNL     1      36.030 -22.265 -16.194  0.00  0.00    +0.002 C 
ATOM     13  C   UNL     1      35.665 -21.869 -18.931  0.00  0.00    +0.024 C 
ATOM     14  C   UNL     1      36.820 -21.340 -16.876  0.00  0.00    +0.000 C 
ATOM     15  C   UNL     1      36.637 -21.142 -18.244  0.00  0.00    +0.002 C 
BRANCH  11  18
ATOM     16  O   UNL     1      33.145 -22.912 -19.770  0.00  0.00    -0.126 OA
ATOM     17  O   UNL     1      33.797 -24.762 -18.783  0.00  0.00    -0.126 OA
ATOM     18  N   UNL     1      33.890 -23.525 -18.969  0.00  0.00    +0.058 N 
ENDBRANCH  11  18
ENDBRANCH   2  10
BRANCH   3  20
ATOM     19  O   UNL     1      36.043 -26.536 -15.866  0.00  0.00    -0.245 OA
ATOM     20  C   UNL     1      36.180 -25.440 -15.355  0.00  0.00    +0.339 C 
BRANCH  20  21
ATOM     21  O   UNL     1      37.331 -24.799 -15.039  0.00  0.00    -0.442 OA
ATOM     22  C   UNL     1      38.416 -25.653 -14.657  0.00  0.00    +0.256 C 
ENDBRANCH  20  21
ENDBRANCH   3  20
BRANCH   4  24
ATOM     23  O   UNL     1      32.059 -21.887 -17.324  0.00  0.00    -0.245 OA
ATOM     24  C   UNL     1      31.971 -22.919 -16.685  0.00  0.00    +0.342 C 
BRANCH  24  25
ATOM     25  O   UNL     1      31.027 -23.887 -16.781  0.00  0.00    -0.441 OA
ATOM     26  C   UNL     1      29.684 -23.450 -16.551  0.00  0.00    +0.256 C 
ENDBRANCH  24  25
ENDBRANCH   4  24
TORSDOF 6
ENDMDL
MODEL 6
REMARK VINA RESULT:      -5.0      2.329      4.645
REMARK  Name = 4485
REMARK  6 active torsions:
REMARK  status: ('A' for Active; 'I' for Inactive)
REMARK    1  A    between atoms: C_2  and  C_10
REMARK    2  A    between atoms: C_3  and  C_20
REMARK    3  A    between atoms: C_4  and  C_24
REMARK    4  A    between atoms: C_11  and  N_18
REMARK    5  A    between atoms: C_20  and  O_21
REMARK    6  A    between atoms: C_24  and  O_25
REMARK                            x       y       z     vdW  Elec       q    Type
REMARK                         _______ _______ _______ _____ _____    ______ ____
ROOT
ATOM      1  N   UNL     1      38.697 -23.273 -16.082  0.00  0.00    -0.334 N 
ATOM      2  C   UNL     1      36.583 -24.481 -14.638  0.00  0.00    +0.013 C 
ATOM      3  C   UNL     1      36.387 -23.275 -15.565  0.00  0.00    +0.071 C 
ATOM      4  C   UNL     1      37.997 -25.066 -14.707  0.00  0.00    +0.085 C 
ATOM      5  C   UNL     1      37.433 -22.722 -16.222  0.00  0.00    +0.098 C 
ATOM      6  C   UNL     1      38.981 -24.437 -15.388  0.00  0.00    +0.028 C 
ATOM      7  C   UNL     1      37.362 -21.516 -17.121  0.00  0.00    +0.026 C 
ATOM      8  C   UNL     1      40.413 -24.896 -15.476  0.00  0.00    +0.047 C 
ATOM      9  H   UNL     1      39.449 -22.802 -16.510  0.00  0.00    +0.147 HD
ENDROOT
BRANCH   2  10
ATOM     10  C   UNL     1      36.255 -24.098 -13.223  0.00  0.00    +0.023 C 
ATOM     11  C   UNL     1      34.986 -24.311 -12.697  0.00  0.00    +0.143 C 
ATOM     12  C   UNL     1      37.256 -23.523 -12.445  0.00  0.00    +0.002 C 
ATOM     13  C   UNL     1      34.712 -23.945 -11.379  0.00  0.00    +0.024 C 
ATOM     14  C   UNL     1      36.982 -23.156 -11.127  0.00  0.00    +0.000 C 
ATOM     15  C   UNL     1      35.711 -23.368 -10.594  0.00  0.00    +0.002 C 
BRANCH  11  18
ATOM     16  O   UNL     1      32.759 -24.609 -13.220  0.00  0.00    -0.126 OA
ATOM     17  O   UNL     1      34.265 -25.684 -14.404  0.00  0.00    -0.126 OA
ATOM     18  N   UNL     1      33.953 -24.897 -13.478  0.00  0.00    +0.058 N 
ENDBRANCH  11  18
ENDBRANCH   2  10
BRANCH   3  20
ATOM     19  O   UNL     1      34.472 -21.999 -14.998  0.00  0.00    -0.245 OA
ATOM     20  C   UNL     1      35.006 -22.799 -15.743  0.00  0.00    +0.339 C 
BRANCH  20  21
ATOM     21  O   UNL     1      34.486 -23.398 -16.841  0.00  0.00    -0.442 OA
ATOM     22  C   UNL     1      33.061 -23.322 -16.957  0.00  0.00    +0.256 C 
ENDBRANCH  20  21
ENDBRANCH   3  20
BRANCH   4  24
ATOM     23  O   UNL     1      38.474 -26.466 -12.856  0.00  0.00    -0.245 OA
ATOM     24  C   UNL     1      38.208 -26.360 -14.038  0.00  0.00    +0.342 C 
BRANCH  24  25
ATOM     25  O   UNL     1      38.052 -27.346 -14.955  0.00  0.00    -0.441 OA
ATOM     26  C   UNL     1      36.830 -27.295 -15.698  0.00  0.00    +0.256 C 
ENDBRANCH  24  25
ENDBRANCH   4  24
TORSDOF 6
ENDMDL
