MODEL 1
REMARK VINA RESULT:      -6.2      0.000      0.000
REMARK  Name = 5288237
REMARK  7 active torsions:
REMARK  status: ('A' for Active; 'I' for Inactive)
REMARK    1  A    between atoms: O_1  and  P_2
REMARK    2  A    between atoms: O_1  and  C_8
REMARK    3  A    between atoms: P_2  and  O_4
REMARK    4  A    between atoms: P_2  and  O_6
REMARK    5  A    between atoms: C_8  and  C_10
REMARK    6  A    between atoms: C_8  and  C_12
REMARK    7  A    between atoms: C_12  and  O_13
REMARK                            x       y       z     vdW  Elec       q    Type
REMARK                         _______ _______ _______ _____ _____    ______ ____
ROOT
ATOM      1  O   UNL     1      38.946 -26.369 -14.093  0.00  0.00    -0.261 OA
ENDROOT
BRANCH   1   2
ATOM      2  P   UNL     1      40.415 -25.843 -14.522  0.00  0.00    +0.474 P 
ATOM      3  O   UNL     1      40.802 -24.510 -13.952  0.00  0.00    -0.227 OA
BRANCH   2   4
ATOM      4  O   UNL     1      40.399 -25.927 -16.136  0.00  0.00    -0.303 OA
ATOM      5  H   UNL     1      41.291 -26.129 -16.458  0.00  0.00    +0.222 HD
ENDBRANCH   2   4
BRANCH   2   6
ATOM      6  O   UNL     1      41.374 -27.073 -14.094  0.00  0.00    -0.303 OA
ATOM      7  H   UNL     1      42.298 -26.780 -14.102  0.00  0.00    +0.222 HD
ENDBRANCH   2   6
ENDBRANCH   1   2
BRANCH   1   8
ATOM      8  C   UNL     1      37.937 -25.407 -13.822  0.00  0.00    +0.259 C 
BRANCH   8  10
ATOM      9  F   UNL     1      37.010 -26.864 -15.397  0.00  0.00    -0.231 F 
ATOM     10  C   UNL     1      36.736 -25.733 -14.690  0.00  0.00    +0.235 C 
ENDBRANCH   8  10
BRANCH   8  12
ATOM     11  O   UNL     1      37.944 -24.671 -11.506  0.00  0.00    -0.247 OA
ATOM     12  C   UNL     1      37.591 -25.484 -12.351  0.00  0.00    +0.345 C 
BRANCH  12  13
ATOM     13  O   UNL     1      36.817 -26.561 -12.060  0.00  0.00    -0.478 OA
ATOM     14  H   UNL     1      37.133 -27.426 -12.236  0.00  0.00    +0.295 HD
ENDBRANCH  12  13
ENDBRANCH   8  12
ENDBRANCH   1   8
TORSDOF 7
ENDMDL
MODEL 2
REMARK VINA RESULT:      -5.9      2.145      3.980
REMARK  Name = 5288237
REMARK  7 active torsions:
REMARK  status: ('A' for Active; 'I' for Inactive)
REMARK    1  A    between atoms: O_1  and  P_2
REMARK    2  A    between atoms: O_1  and  C_8
REMARK    3  A    between atoms: P_2  and  O_4
REMARK    4  A    between atoms: P_2  and  O_6
REMARK    5  A    between atoms: C_8  and  C_10
REMARK    6  A    between atoms: C_8  and  C_12
REMARK    7  A    between atoms: C_12  and  O_13
REMARK                            x       y       z     vdW  Elec       q    Type
REMARK                         _______ _______ _______ _____ _____    ______ ____
ROOT
ATOM      1  O   UNL     1      38.343 -24.091 -13.414  0.00  0.00    -0.261 OA
ENDROOT
BRANCH   1   2
ATOM      2  P   UNL     1      37.459 -23.578 -12.161  0.00  0.00    +0.474 P 
ATOM      3  O   UNL     1      37.335 -24.556 -11.029  0.00  0.00    -0.227 OA
BRANCH   2   4
ATOM      4  O   UNL     1      36.063 -23.121 -12.836  0.00  0.00    -0.303 OA
ATOM      5  H   UNL     1      35.486 -22.738 -12.156  0.00  0.00    +0.222 HD
ENDBRANCH   2   4
BRANCH   2   6
ATOM      6  O   UNL     1      38.165 -22.175 -11.776  0.00  0.00    -0.303 OA
ATOM      7  H   UNL     1      39.123 -22.305 -11.702  0.00  0.00    +0.222 HD
ENDBRANCH   2   6
ENDBRANCH   1   2
BRANCH   1   8
ATOM      8  C   UNL     1      38.740 -25.455 -13.447  0.00  0.00    +0.259 C 
BRANCH   8  10
ATOM      9  F   UNL     1      37.106 -27.122 -13.329  0.00  0.00    -0.231 F 
ATOM     10  C   UNL     1      37.673 -26.234 -14.193  0.00  0.00    +0.235 C 
ENDBRANCH   8  10
BRANCH   8  12
ATOM     11  O   UNL     1      40.880 -24.624 -14.241  0.00  0.00    -0.247 OA
ATOM     12  C   UNL     1      40.078 -25.544 -14.148  0.00  0.00    +0.345 C 
BRANCH  12  13
ATOM     13  O   UNL     1      40.311 -26.781 -14.657  0.00  0.00    -0.478 OA
ATOM     14  H   UNL     1      40.628 -26.874 -15.535  0.00  0.00    +0.295 HD
ENDBRANCH  12  13
ENDBRANCH   8  12
ENDBRANCH   1   8
TORSDOF 7
ENDMDL
MODEL 3
REMARK VINA RESULT:      -5.8      1.860      2.190
REMARK  Name = 5288237
REMARK  7 active torsions:
REMARK  status: ('A' for Active; 'I' for Inactive)
REMARK    1  A    between atoms: O_1  and  P_2
REMARK    2  A    between atoms: O_1  and  C_8
REMARK    3  A    between atoms: P_2  and  O_4
REMARK    4  A    between atoms: P_2  and  O_6
REMARK    5  A    between atoms: C_8  and  C_10
REMARK    6  A    between atoms: C_8  and  C_12
REMARK    7  A    between atoms: C_12  and  O_13
REMARK                            x       y       z     vdW  Elec       q    Type
REMARK                         _______ _______ _______ _____ _____    ______ ____
ROOT
ATOM      1  O   UNL     1      38.937 -25.041 -13.018  0.00  0.00    -0.261 OA
ENDROOT
BRANCH   1   2
ATOM      2  P   UNL     1      39.604 -25.222 -14.480  0.00  0.00    +0.474 P 
ATOM      3  O   UNL     1      41.087 -25.000 -14.533  0.00  0.00    -0.227 OA
BRANCH   2   4
ATOM      4  O   UNL     1      38.725 -24.249 -15.427  0.00  0.00    -0.303 OA
ATOM      5  H   UNL     1      38.762 -23.343 -15.083  0.00  0.00    +0.222 HD
ENDBRANCH   2   4
BRANCH   2   6
ATOM      6  O   UNL     1      39.118 -26.702 -14.913  0.00  0.00    -0.303 OA
ATOM      7  H   UNL     1      38.309 -26.635 -15.443  0.00  0.00    +0.222 HD
ENDBRANCH   2   6
ENDBRANCH   1   2
BRANCH   1   8
ATOM      8  C   UNL     1      37.670 -24.405 -12.928  0.00  0.00    +0.259 C 
BRANCH   8  10
ATOM      9  F   UNL     1      37.263 -26.596 -12.221  0.00  0.00    -0.231 F 
ATOM     10  C   UNL     1      36.627 -25.476 -12.666  0.00  0.00    +0.235 C 
ENDBRANCH   8  10
BRANCH   8  12
ATOM     11  O   UNL     1      38.307 -22.325 -11.845  0.00  0.00    -0.247 OA
ATOM     12  C   UNL     1      37.722 -23.400 -11.798  0.00  0.00    +0.345 C 
BRANCH  12  13
ATOM     13  O   UNL     1      37.023 -23.813 -10.709  0.00  0.00    -0.478 OA
ATOM     14  H   UNL     1      37.211 -24.644 -10.319  0.00  0.00    +0.295 HD
ENDBRANCH  12  13
ENDBRANCH   8  12
ENDBRANCH   1   8
TORSDOF 7
ENDMDL
MODEL 4
REMARK VINA RESULT:      -5.7      3.496      4.732
REMARK  Name = 5288237
REMARK  7 active torsions:
REMARK  status: ('A' for Active; 'I' for Inactive)
REMARK    1  A    between atoms: O_1  and  P_2
REMARK    2  A    between atoms: O_1  and  C_8
REMARK    3  A    between atoms: P_2  and  O_4
REMARK    4  A    between atoms: P_2  and  O_6
REMARK    5  A    between atoms: C_8  and  C_10
REMARK    6  A    between atoms: C_8  and  C_12
REMARK    7  A    between atoms: C_12  and  O_13
REMARK                            x       y       z     vdW  Elec       q    Type
REMARK                         _______ _______ _______ _____ _____    ______ ____
ROOT
ATOM      1  O   UNL     1      36.358 -25.369 -12.579  0.00  0.00    -0.261 OA
ENDROOT
BRANCH   1   2
ATOM      2  P   UNL     1      35.913 -24.255 -11.494  0.00  0.00    +0.474 P 
ATOM      3  O   UNL     1      36.996 -23.300 -11.084  0.00  0.00    -0.227 OA
BRANCH   2   4
ATOM      4  O   UNL     1      35.265 -25.124 -10.294  0.00  0.00    -0.303 OA
ATOM      5  H   UNL     1      34.385 -25.434 -10.559  0.00  0.00    +0.222 HD
ENDBRANCH   2   4
BRANCH   2   6
ATOM      6  O   UNL     1      34.627 -23.568 -12.194  0.00  0.00    -0.303 OA
ATOM      7  H   UNL     1      34.535 -23.904 -13.099  0.00  0.00    +0.222 HD
ENDBRANCH   2   6
ENDBRANCH   1   2
BRANCH   1   8
ATOM      8  C   UNL     1      36.922 -24.928 -13.806  0.00  0.00    +0.259 C 
BRANCH   8  10
ATOM      9  F   UNL     1      38.665 -26.018 -12.694  0.00  0.00    -0.231 F 
ATOM     10  C   UNL     1      38.327 -25.492 -13.905  0.00  0.00    +0.235 C 
ENDBRANCH   8  10
BRANCH   8  12
ATOM     11  O   UNL     1      35.458 -24.709 -15.733  0.00  0.00    -0.247 OA
ATOM     12  C   UNL     1      36.048 -25.427 -14.936  0.00  0.00    +0.345 C 
BRANCH  12  13
ATOM     13  O   UNL     1      35.999 -26.783 -14.988  0.00  0.00    -0.478 OA
ATOM     14  H   UNL     1      36.474 -27.293 -14.361  0.00  0.00    +0.295 HD
ENDBRANCH  12  13
ENDBRANCH   8  12
ENDBRANCH   1   8
TORSDOF 7
ENDMDL
MODEL 5
REMARK VINA RESULT:      -5.6      2.652      3.176
REMARK  Name = 5288237
REMARK  7 active torsions:
REMARK  status: ('A' for Active; 'I' for Inactive)
REMARK    1  A    between atoms: O_1  and  P_2
REMARK    2  A    between atoms: O_1  and  C_8
REMARK    3  A    between atoms: P_2  and  O_4
REMARK    4  A    between atoms: P_2  and  O_6
REMARK    5  A    between atoms: C_8  and  C_10
REMARK    6  A    between atoms: C_8  and  C_12
REMARK    7  A    between atoms: C_12  and  O_13
REMARK                            x       y       z     vdW  Elec       q    Type
REMARK                         _______ _______ _______ _____ _____    ______ ____
ROOT
ATOM      1  O   UNL     1      36.801 -24.949 -13.665  0.00  0.00    -0.261 OA
ENDROOT
BRANCH   1   2
ATOM      2  P   UNL     1      38.100 -25.460 -14.483  0.00  0.00    +0.474 P 
ATOM      3  O   UNL     1      39.141 -26.153 -13.653  0.00  0.00    -0.227 OA
BRANCH   2   4
ATOM      4  O   UNL     1      38.606 -24.138 -15.265  0.00  0.00    -0.303 OA
ATOM      5  H   UNL     1      38.500 -23.363 -14.692  0.00  0.00    +0.222 HD
ENDBRANCH   2   4
BRANCH   2   6
ATOM      6  O   UNL     1      37.451 -26.363 -15.657  0.00  0.00    -0.303 OA
ATOM      7  H   UNL     1      37.881 -27.231 -15.672  0.00  0.00    +0.222 HD
ENDBRANCH   2   6
ENDBRANCH   1   2
BRANCH   1   8
ATOM      8  C   UNL     1      36.928 -24.726 -12.268  0.00  0.00    +0.259 C 
BRANCH   8  10
ATOM      9  F   UNL     1      38.814 -23.475 -11.682  0.00  0.00    -0.231 F 
ATOM     10  C   UNL     1      37.514 -23.341 -12.068  0.00  0.00    +0.235 C 
ENDBRANCH   8  10
BRANCH   8  12
ATOM     11  O   UNL     1      35.343 -25.036 -10.453  0.00  0.00    -0.247 OA
ATOM     12  C   UNL     1      35.555 -24.839 -11.642  0.00  0.00    +0.345 C 
BRANCH  12  13
ATOM     13  O   UNL     1      34.560 -24.677 -12.553  0.00  0.00    -0.478 OA
ATOM     14  H   UNL     1      33.959 -23.963 -12.466  0.00  0.00    +0.295 HD
ENDBRANCH  12  13
ENDBRANCH   8  12
ENDBRANCH   1   8
TORSDOF 7
ENDMDL
MODEL 6
REMARK VINA RESULT:      -5.5      2.619      4.340
REMARK  Name = 5288237
REMARK  7 active torsions:
REMARK  status: ('A' for Active; 'I' for Inactive)
REMARK    1  A    between atoms: O_1  and  P_2
REMARK    2  A    between atoms: O_1  and  C_8
REMARK    3  A    between atoms: P_2  and  O_4
REMARK    4  A    between atoms: P_2  and  O_6
REMARK    5  A    between atoms: C_8  and  C_10
REMARK    6  A    between atoms: C_8  and  C_12
REMARK    7  A    between atoms: C_12  and  O_13
REMARK                            x       y       z     vdW  Elec       q    Type
REMARK                         _______ _______ _______ _____ _____    ______ ____
ROOT
ATOM      1  O   UNL     1      37.824 -23.356 -13.308  0.00  0.00    -0.261 OA
ENDROOT
BRANCH   1   2
ATOM      2  P   UNL     1      36.999 -23.599 -11.939  0.00  0.00    +0.474 P 
ATOM      3  O   UNL     1      37.323 -24.876 -11.220  0.00  0.00    -0.227 OA
BRANCH   2   4
ATOM      4  O   UNL     1      35.454 -23.429 -12.384  0.00  0.00    -0.303 OA
ATOM      5  H   UNL     1      35.117 -24.278 -12.710  0.00  0.00    +0.222 HD
ENDBRANCH   2   4
BRANCH   2   6
ATOM      6  O   UNL     1      37.295 -22.249 -11.099  0.00  0.00    -0.303 OA
ATOM      7  H   UNL     1      38.113 -22.359 -10.589  0.00  0.00    +0.222 HD
ENDBRANCH   2   6
ENDBRANCH   1   2
BRANCH   1   8
ATOM      8  C   UNL     1      37.560 -24.207 -14.415  0.00  0.00    +0.259 C 
BRANCH   8  10
ATOM      9  F   UNL     1      38.432 -22.925 -16.164  0.00  0.00    -0.231 F 
ATOM     10  C   UNL     1      37.253 -23.331 -15.615  0.00  0.00    +0.235 C 
ENDBRANCH   8  10
BRANCH   8  12
ATOM     11  O   UNL     1      39.889 -24.856 -14.174  0.00  0.00    -0.247 OA
ATOM     12  C   UNL     1      38.784 -25.063 -14.657  0.00  0.00    +0.345 C 
BRANCH  12  13
ATOM     13  O   UNL     1      38.520 -26.120 -15.468  0.00  0.00    -0.478 OA
ATOM     14  H   UNL     1      39.226 -26.595 -15.863  0.00  0.00    +0.295 HD
ENDBRANCH  12  13
ENDBRANCH   8  12
ENDBRANCH   1   8
TORSDOF 7
ENDMDL
MODEL 7
REMARK VINA RESULT:      -5.5      2.990      4.533
REMARK  Name = 5288237
REMARK  7 active torsions:
REMARK  status: ('A' for Active; 'I' for Inactive)
REMARK    1  A    between atoms: O_1  and  P_2
REMARK    2  A    between atoms: O_1  and  C_8
REMARK    3  A    between atoms: P_2  and  O_4
REMARK    4  A    between atoms: P_2  and  O_6
REMARK    5  A    between atoms: C_8  and  C_10
REMARK    6  A    between atoms: C_8  and  C_12
REMARK    7  A    between atoms: C_12  and  O_13
REMARK                            x       y       z     vdW  Elec       q    Type
REMARK                         _______ _______ _______ _____ _____    ______ ____
ROOT
ATOM      1  O   UNL     1      36.640 -25.548 -12.634  0.00  0.00    -0.261 OA
ENDROOT
BRANCH   1   2
ATOM      2  P   UNL     1      35.998 -24.452 -11.632  0.00  0.00    +0.474 P 
ATOM      3  O   UNL     1      35.247 -25.022 -10.465  0.00  0.00    -0.227 OA
BRANCH   2   4
ATOM      4  O   UNL     1      35.136 -23.495 -12.610  0.00  0.00    -0.303 OA
ATOM      5  H   UNL     1      34.373 -23.142 -12.125  0.00  0.00    +0.222 HD
ENDBRANCH   2   4
BRANCH   2   6
ATOM      6  O   UNL     1      37.272 -23.535 -11.242  0.00  0.00    -0.303 OA
ATOM      7  H   UNL     1      37.039 -22.960 -10.497  0.00  0.00    +0.222 HD
ENDBRANCH   2   6
ENDBRANCH   1   2
BRANCH   1   8
ATOM      8  C   UNL     1      37.505 -25.094 -13.665  0.00  0.00    +0.259 C 
BRANCH   8  10
ATOM      9  F   UNL     1      39.835 -24.940 -13.778  0.00  0.00    -0.231 F 
ATOM     10  C   UNL     1      38.829 -25.821 -13.519  0.00  0.00    +0.235 C 
ENDBRANCH   8  10
BRANCH   8  12
ATOM     11  O   UNL     1      35.866 -24.827 -15.438  0.00  0.00    -0.247 OA
ATOM     12  C   UNL     1      36.855 -25.397 -14.998  0.00  0.00    +0.345 C 
BRANCH  12  13
ATOM     13  O   UNL     1      37.507 -26.375 -15.678  0.00  0.00    -0.478 OA
ATOM     14  H   UNL     1      38.106 -26.149 -16.363  0.00  0.00    +0.295 HD
ENDBRANCH  12  13
ENDBRANCH   8  12
ENDBRANCH   1   8
TORSDOF 7
ENDMDL
MODEL 8
REMARK VINA RESULT:      -5.4      2.387      2.835
REMARK  Name = 5288237
REMARK  7 active torsions:
REMARK  status: ('A' for Active; 'I' for Inactive)
REMARK    1  A    between atoms: O_1  and  P_2
REMARK    2  A    between atoms: O_1  and  C_8
REMARK    3  A    between atoms: P_2  and  O_4
REMARK    4  A    between atoms: P_2  and  O_6
REMARK    5  A    between atoms: C_8  and  C_10
REMARK    6  A    between atoms: C_8  and  C_12
REMARK    7  A    between atoms: C_12  and  O_13
REMARK                            x       y       z     vdW  Elec       q    Type
REMARK                         _______ _______ _______ _____ _____    ______ ____
ROOT
ATOM      1  O   UNL     1      38.644 -24.372 -15.007  0.00  0.00    -0.261 OA
ENDROOT
BRANCH   1   2
ATOM      2  P   UNL     1      39.824 -25.455 -14.782  0.00  0.00    +0.474 P 
ATOM      3  O   UNL     1      40.918 -25.018 -13.852  0.00  0.00    -0.227 OA
BRANCH   2   4
ATOM      4  O   UNL     1      40.298 -25.827 -16.282  0.00  0.00    -0.303 OA
ATOM      5  H   UNL     1      39.722 -25.380 -16.922  0.00  0.00    +0.222 HD
ENDBRANCH   2   4
BRANCH   2   6
ATOM      6  O   UNL     1      39.014 -26.773 -14.310  0.00  0.00    -0.303 OA
ATOM      7  H   UNL     1      39.542 -27.563 -14.502  0.00  0.00    +0.222 HD
ENDBRANCH   2   6
ENDBRANCH   1   2
BRANCH   1   8
ATOM      8  C   UNL     1      37.418 -24.556 -14.314  0.00  0.00    +0.259 C 
BRANCH   8  10
ATOM      9  F   UNL     1      36.351 -23.582 -12.477  0.00  0.00    -0.231 F 
ATOM     10  C   UNL     1      37.105 -23.272 -13.568  0.00  0.00    +0.235 C 
ENDBRANCH   8  10
BRANCH   8  12
ATOM     11  O   UNL     1      35.646 -24.047 -15.897  0.00  0.00    -0.247 OA
ATOM     12  C   UNL     1      36.343 -24.878 -15.330  0.00  0.00    +0.345 C 
BRANCH  12  13
ATOM     13  O   UNL     1      36.241 -26.212 -15.566  0.00  0.00    -0.478 OA
ATOM     14  H   UNL     1      35.727 -26.522 -16.286  0.00  0.00    +0.295 HD
ENDBRANCH  12  13
ENDBRANCH   8  12
ENDBRANCH   1   8
TORSDOF 7
ENDMDL
MODEL 9
REMARK VINA RESULT:      -5.4      2.242      4.225
REMARK  Name = 5288237
REMARK  7 active torsions:
REMARK  status: ('A' for Active; 'I' for Inactive)
REMARK    1  A    between atoms: O_1  and  P_2
REMARK    2  A    between atoms: O_1  and  C_8
REMARK    3  A    between atoms: P_2  and  O_4
REMARK    4  A    between atoms: P_2  and  O_6
REMARK    5  A    between atoms: C_8  and  C_10
REMARK    6  A    between atoms: C_8  and  C_12
REMARK    7  A    between atoms: C_12  and  O_13
REMARK                            x       y       z     vdW  Elec       q    Type
REMARK                         _______ _______ _______ _____ _____    ______ ____
ROOT
ATOM      1  O   UNL     1      36.954 -24.101 -13.454  0.00  0.00    -0.261 OA
ENDROOT
BRANCH   1   2
ATOM      2  P   UNL     1      36.463 -23.961 -11.920  0.00  0.00    +0.474 P 
ATOM      3  O   UNL     1      37.275 -23.023 -11.076  0.00  0.00    -0.227 OA
BRANCH   2   4
ATOM      4  O   UNL     1      36.403 -25.489 -11.394  0.00  0.00    -0.303 OA
ATOM      5  H   UNL     1      35.532 -25.866 -11.594  0.00  0.00    +0.222 HD
ENDBRANCH   2   4
BRANCH   2   6
ATOM      6  O   UNL     1      34.904 -23.561 -12.079  0.00  0.00    -0.303 OA
ATOM      7  H   UNL     1      34.438 -23.742 -11.248  0.00  0.00    +0.222 HD
ENDBRANCH   2   6
ENDBRANCH   1   2
BRANCH   1   8
ATOM      8  C   UNL     1      37.172 -25.404 -13.977  0.00  0.00    +0.259 C 
BRANCH   8  10
ATOM      9  F   UNL     1      36.447 -26.793 -15.711  0.00  0.00    -0.231 F 
ATOM     10  C   UNL     1      36.097 -25.678 -15.012  0.00  0.00    +0.235 C 
ENDBRANCH   8  10
BRANCH   8  12
ATOM     11  O   UNL     1      39.314 -26.400 -14.544  0.00  0.00    -0.247 OA
ATOM     12  C   UNL     1      38.553 -25.442 -14.594  0.00  0.00    +0.345 C 
BRANCH  12  13
ATOM     13  O   UNL     1      38.860 -24.288 -15.241  0.00  0.00    -0.478 OA
ATOM     14  H   UNL     1      39.701 -23.892 -15.117  0.00  0.00    +0.295 HD
ENDBRANCH  12  13
ENDBRANCH   8  12
ENDBRANCH   1   8
TORSDOF 7
ENDMDL
