MODEL 1
REMARK VINA RESULT:      -3.5      0.000      0.000
REMARK  Name = 9257
REMARK  0 active torsions:
REMARK  status: ('A' for Active; 'I' for Inactive)
REMARK                            x       y       z     vdW  Elec       q    Type
REMARK                         _______ _______ _______ _____ _____    ______ ____
ROOT
ATOM      1  N   UNL     1      28.398 -24.101 -16.692  0.00  0.00    -0.216 N 
ATOM      2  N   UNL     1      27.617 -23.562 -17.640  0.00  0.00    -0.157 NA
ATOM      3  N   UNL     1      28.029 -22.079 -15.947  0.00  0.00    -0.203 NA
ATOM      4  C   UNL     1      28.638 -23.214 -15.690  0.00  0.00    +0.182 C 
ATOM      5  C   UNL     1      27.421 -22.338 -17.142  0.00  0.00    +0.218 C 
ATOM      6  H   UNL     1      28.751 -25.019 -16.719  0.00  0.00    +0.176 HD
ENDROOT
TORSDOF 0
ENDMDL
MODEL 2
REMARK VINA RESULT:      -3.5      0.817      1.682
REMARK  Name = 9257
REMARK  0 active torsions:
REMARK  status: ('A' for Active; 'I' for Inactive)
REMARK                            x       y       z     vdW  Elec       q    Type
REMARK                         _______ _______ _______ _____ _____    ______ ____
ROOT
ATOM      1  N   UNL     1      28.562 -23.168 -15.641  0.00  0.00    -0.216 N 
ATOM      2  N   UNL     1      27.913 -22.030 -15.930  0.00  0.00    -0.157 NA
ATOM      3  N   UNL     1      27.686 -23.574 -17.601  0.00  0.00    -0.203 NA
ATOM      4  C   UNL     1      28.422 -24.081 -16.639  0.00  0.00    +0.182 C 
ATOM      5  C   UNL     1      27.400 -22.327 -17.125  0.00  0.00    +0.218 C 
ATOM      6  H   UNL     1      29.073 -23.322 -14.814  0.00  0.00    +0.176 HD
ENDROOT
TORSDOF 0
ENDMDL
MODEL 3
REMARK VINA RESULT:      -3.5     11.253     11.887
REMARK  Name = 9257
REMARK  0 active torsions:
REMARK  status: ('A' for Active; 'I' for Inactive)
REMARK                            x       y       z     vdW  Elec       q    Type
REMARK                         _______ _______ _______ _____ _____    ______ ____
ROOT
ATOM      1  N   UNL     1      38.470 -26.591 -14.180  0.00  0.00    -0.216 N 
ATOM      2  N   UNL     1      39.673 -26.601 -14.773  0.00  0.00    -0.157 NA
ATOM      3  N   UNL     1      39.422 -24.778 -13.414  0.00  0.00    -0.203 NA
ATOM      4  C   UNL     1      38.329 -25.504 -13.374  0.00  0.00    +0.182 C 
ATOM      5  C   UNL     1      40.210 -25.484 -14.277  0.00  0.00    +0.218 C 
ATOM      6  H   UNL     1      37.779 -27.280 -14.311  0.00  0.00    +0.176 HD
ENDROOT
TORSDOF 0
ENDMDL
MODEL 4
REMARK VINA RESULT:      -3.5     10.270     10.867
REMARK  Name = 9257
REMARK  0 active torsions:
REMARK  status: ('A' for Active; 'I' for Inactive)
REMARK                            x       y       z     vdW  Elec       q    Type
REMARK                         _______ _______ _______ _____ _____    ______ ____
ROOT
ATOM      1  N   UNL     1      37.092 -22.901 -11.172  0.00  0.00    -0.216 N 
ATOM      2  N   UNL     1      38.305 -23.110 -11.706  0.00  0.00    -0.157 NA
ATOM      3  N   UNL     1      37.021 -25.002 -11.772  0.00  0.00    -0.203 NA
ATOM      4  C   UNL     1      36.335 -24.031 -11.215  0.00  0.00    +0.182 C 
ATOM      5  C   UNL     1      38.211 -24.395 -12.054  0.00  0.00    +0.218 C 
ATOM      6  H   UNL     1      36.790 -22.043 -10.797  0.00  0.00    +0.176 HD
ENDROOT
TORSDOF 0
ENDMDL
MODEL 5
REMARK VINA RESULT:      -3.4      9.520     10.241
REMARK  Name = 9257
REMARK  0 active torsions:
REMARK  status: ('A' for Active; 'I' for Inactive)
REMARK                            x       y       z     vdW  Elec       q    Type
REMARK                         _______ _______ _______ _____ _____    ______ ____
ROOT
ATOM      1  N   UNL     1      37.618 -24.876 -15.128  0.00  0.00    -0.216 N 
ATOM      2  N   UNL     1      36.504 -25.562 -15.423  0.00  0.00    -0.157 NA
ATOM      3  N   UNL     1      38.175 -26.945 -14.697  0.00  0.00    -0.203 NA
ATOM      4  C   UNL     1      38.607 -25.705 -14.698  0.00  0.00    +0.182 C 
ATOM      5  C   UNL     1      36.892 -26.809 -15.145  0.00  0.00    +0.218 C 
ATOM      6  H   UNL     1      37.709 -23.900 -15.213  0.00  0.00    +0.176 HD
ENDROOT
TORSDOF 0
ENDMDL
MODEL 6
REMARK VINA RESULT:      -3.4      5.929      6.146
REMARK  Name = 9257
REMARK  0 active torsions:
REMARK  status: ('A' for Active; 'I' for Inactive)
REMARK                            x       y       z     vdW  Elec       q    Type
REMARK                         _______ _______ _______ _____ _____    ______ ____
ROOT
ATOM      1  N   UNL     1      32.556 -22.466 -18.324  0.00  0.00    -0.216 N 
ATOM      2  N   UNL     1      32.982 -21.823 -19.421  0.00  0.00    -0.157 NA
ATOM      3  N   UNL     1      34.722 -22.752 -18.263  0.00  0.00    -0.203 NA
ATOM      4  C   UNL     1      33.597 -23.016 -17.641  0.00  0.00    +0.182 C 
ATOM      5  C   UNL     1      34.299 -22.025 -19.339  0.00  0.00    +0.218 C 
ATOM      6  H   UNL     1      31.614 -22.532 -18.048  0.00  0.00    +0.176 HD
ENDROOT
TORSDOF 0
ENDMDL
MODEL 7
REMARK VINA RESULT:      -3.3     15.040     15.580
REMARK  Name = 9257
REMARK  0 active torsions:
REMARK  status: ('A' for Active; 'I' for Inactive)
REMARK                            x       y       z     vdW  Elec       q    Type
REMARK                         _______ _______ _______ _____ _____    ______ ____
ROOT
ATOM      1  N   UNL     1      40.475 -14.908 -15.364  0.00  0.00    -0.216 N 
ATOM      2  N   UNL     1      40.639 -16.218 -15.599  0.00  0.00    -0.157 NA
ATOM      3  N   UNL     1      42.466 -15.009 -16.258  0.00  0.00    -0.203 NA
ATOM      4  C   UNL     1      41.565 -14.196 -15.758  0.00  0.00    +0.182 C 
ATOM      5  C   UNL     1      41.860 -16.227 -16.141  0.00  0.00    +0.218 C 
ATOM      6  H   UNL     1      39.670 -14.512 -14.958  0.00  0.00    +0.176 HD
ENDROOT
TORSDOF 0
ENDMDL
MODEL 8
REMARK VINA RESULT:      -3.3      6.905      7.071
REMARK  Name = 9257
REMARK  0 active torsions:
REMARK  status: ('A' for Active; 'I' for Inactive)
REMARK                            x       y       z     vdW  Elec       q    Type
REMARK                         _______ _______ _______ _____ _____    ______ ____
ROOT
ATOM      1  N   UNL     1      32.703 -20.780 -20.113  0.00  0.00    -0.216 N 
ATOM      2  N   UNL     1      32.896 -21.873 -19.361  0.00  0.00    -0.157 NA
ATOM      3  N   UNL     1      34.880 -20.910 -19.968  0.00  0.00    -0.203 NA
ATOM      4  C   UNL     1      33.887 -20.213 -20.470  0.00  0.00    +0.182 C 
ATOM      5  C   UNL     1      34.229 -21.909 -19.302  0.00  0.00    +0.218 C 
ATOM      6  H   UNL     1      31.819 -20.432 -20.373  0.00  0.00    +0.176 HD
ENDROOT
TORSDOF 0
ENDMDL
MODEL 9
REMARK VINA RESULT:      -3.3     15.156     15.447
REMARK  Name = 9257
REMARK  0 active torsions:
REMARK  status: ('A' for Active; 'I' for Inactive)
REMARK                            x       y       z     vdW  Elec       q    Type
REMARK                         _______ _______ _______ _____ _____    ______ ____
ROOT
ATOM      1  N   UNL     1      40.643 -14.808 -16.043  0.00  0.00    -0.216 N 
ATOM      2  N   UNL     1      41.177 -14.925 -17.267  0.00  0.00    -0.157 NA
ATOM      3  N   UNL     1      42.075 -16.442 -15.810  0.00  0.00    -0.203 NA
ATOM      4  C   UNL     1      41.182 -15.713 -15.182  0.00  0.00    +0.182 C 
ATOM      5  C   UNL     1      42.038 -15.927 -17.074  0.00  0.00    +0.218 C 
ATOM      6  H   UNL     1      39.951 -14.152 -15.798  0.00  0.00    +0.176 HD
ENDROOT
TORSDOF 0
ENDMDL
