MODEL 1
REMARK VINA RESULT:      -6.1      0.000      0.000
REMARK  Name = 3291
REMARK  1 active torsions:
REMARK  status: ('A' for Active; 'I' for Inactive)
REMARK    1  A    between atoms: C_4  and  C_10
REMARK                            x       y       z     vdW  Elec       q    Type
REMARK                         _______ _______ _______ _____ _____    ______ ____
ROOT
ATOM      1  O   UNL     1      34.872 -16.040 -21.269  0.00  0.00    -0.275 OA
ATOM      2  O   UNL     1      34.822 -16.927 -25.780  0.00  0.00    -0.275 OA
ATOM      3  N   UNL     1      34.858 -16.166 -23.585  0.00  0.00    -0.255 N 
ATOM      4  C   UNL     1      35.091 -18.180 -22.423  0.00  0.00    +0.078 C 
ATOM      5  C   UNL     1      34.840 -18.467 -23.914  0.00  0.00    +0.094 C 
ATOM      6  C   UNL     1      34.917 -16.676 -22.312  0.00  0.00    +0.228 C 
ATOM      7  C   UNL     1      36.524 -18.542 -22.025  0.00  0.00    +0.010 C 
ATOM      8  C   UNL     1      34.851 -17.116 -24.573  0.00  0.00    +0.229 C 
ATOM      9  H   UNL     1      34.824 -15.199 -23.773  0.00  0.00    +0.158 HD
ENDROOT
BRANCH   4  10
ATOM     10  C   UNL     1      34.083 -18.902 -21.529  0.00  0.00    +0.009 C 
ATOM     11  C   UNL     1      34.758 -19.974 -20.698  0.00  0.00    +0.001 C 
ENDBRANCH   4  10
TORSDOF 1
ENDMDL
MODEL 2
REMARK VINA RESULT:      -6.1      3.140      4.409
REMARK  Name = 3291
REMARK  1 active torsions:
REMARK  status: ('A' for Active; 'I' for Inactive)
REMARK    1  A    between atoms: C_4  and  C_10
REMARK                            x       y       z     vdW  Elec       q    Type
REMARK                         _______ _______ _______ _____ _____    ______ ____
ROOT
ATOM      1  O   UNL     1      36.986 -19.626 -20.701  0.00  0.00    -0.275 OA
ATOM      2  O   UNL     1      32.843 -21.155 -19.419  0.00  0.00    -0.275 OA
ATOM      3  N   UNL     1      35.050 -20.544 -19.810  0.00  0.00    -0.255 N 
ATOM      4  C   UNL     1      34.781 -19.004 -21.548  0.00  0.00    +0.078 C 
ATOM      5  C   UNL     1      33.439 -19.700 -21.257  0.00  0.00    +0.094 C 
ATOM      6  C   UNL     1      35.769 -19.748 -20.666  0.00  0.00    +0.228 C 
ATOM      7  C   UNL     1      34.746 -17.535 -21.118  0.00  0.00    +0.010 C 
ATOM      8  C   UNL     1      33.700 -20.549 -20.045  0.00  0.00    +0.229 C 
ATOM      9  H   UNL     1      35.469 -21.068 -19.088  0.00  0.00    +0.158 HD
ENDROOT
BRANCH   4  10
ATOM     10  C   UNL     1      35.178 -19.128 -23.018  0.00  0.00    +0.009 C 
ATOM     11  C   UNL     1      34.843 -17.864 -23.784  0.00  0.00    +0.001 C 
ENDBRANCH   4  10
TORSDOF 1
ENDMDL
MODEL 3
REMARK VINA RESULT:      -6.0     11.567     12.494
REMARK  Name = 3291
REMARK  1 active torsions:
REMARK  status: ('A' for Active; 'I' for Inactive)
REMARK    1  A    between atoms: C_4  and  C_10
REMARK                            x       y       z     vdW  Elec       q    Type
REMARK                         _______ _______ _______ _____ _____    ______ ____
ROOT
ATOM      1  O   UNL     1      37.209 -26.386 -11.706  0.00  0.00    -0.275 OA
ATOM      2  O   UNL     1      36.746 -27.255 -16.198  0.00  0.00    -0.275 OA
ATOM      3  N   UNL     1      36.994 -27.138 -13.890  0.00  0.00    -0.255 N 
ATOM      4  C   UNL     1      36.662 -24.853 -13.526  0.00  0.00    +0.078 C 
ATOM      5  C   UNL     1      36.741 -25.132 -15.038  0.00  0.00    +0.094 C 
ATOM      6  C   UNL     1      37.001 -26.193 -12.896  0.00  0.00    +0.228 C 
ATOM      7  C   UNL     1      35.241 -24.459 -13.111  0.00  0.00    +0.010 C 
ATOM      8  C   UNL     1      36.810 -26.629 -15.150  0.00  0.00    +0.229 C 
ATOM      9  H   UNL     1      37.112 -28.100 -13.714  0.00  0.00    +0.158 HD
ENDROOT
BRANCH   4  10
ATOM     10  C   UNL     1      37.667 -23.788 -13.092  0.00  0.00    +0.009 C 
ATOM     11  C   UNL     1      37.153 -23.002 -11.903  0.00  0.00    +0.001 C 
ENDBRANCH   4  10
TORSDOF 1
ENDMDL
MODEL 4
REMARK VINA RESULT:      -5.9     11.298     12.868
REMARK  Name = 3291
REMARK  1 active torsions:
REMARK  status: ('A' for Active; 'I' for Inactive)
REMARK    1  A    between atoms: C_4  and  C_10
REMARK                            x       y       z     vdW  Elec       q    Type
REMARK                         _______ _______ _______ _____ _____    ______ ____
ROOT
ATOM      1  O   UNL     1      38.299 -22.215 -12.009  0.00  0.00    -0.275 OA
ATOM      2  O   UNL     1      35.193 -25.095 -10.220  0.00  0.00    -0.275 OA
ATOM      3  N   UNL     1      36.757 -23.491 -10.836  0.00  0.00    -0.255 N 
ATOM      4  C   UNL     1      36.974 -23.939 -13.119  0.00  0.00    +0.078 C 
ATOM      5  C   UNL     1      36.119 -25.033 -12.454  0.00  0.00    +0.094 C 
ATOM      6  C   UNL     1      37.458 -23.100 -11.949  0.00  0.00    +0.228 C 
ATOM      7  C   UNL     1      36.125 -23.059 -14.040  0.00  0.00    +0.010 C 
ATOM      8  C   UNL     1      35.932 -24.567 -11.038  0.00  0.00    +0.229 C 
ATOM      9  H   UNL     1      36.842 -23.038  -9.965  0.00  0.00    +0.158 HD
ENDROOT
BRANCH   4  10
ATOM     10  C   UNL     1      38.160 -24.530 -13.880  0.00  0.00    +0.009 C 
ATOM     11  C   UNL     1      38.758 -25.705 -13.134  0.00  0.00    +0.001 C 
ENDBRANCH   4  10
TORSDOF 1
ENDMDL
MODEL 5
REMARK VINA RESULT:      -5.8      1.549      2.663
REMARK  Name = 3291
REMARK  1 active torsions:
REMARK  status: ('A' for Active; 'I' for Inactive)
REMARK    1  A    between atoms: C_4  and  C_10
REMARK                            x       y       z     vdW  Elec       q    Type
REMARK                         _______ _______ _______ _____ _____    ______ ____
ROOT
ATOM      1  O   UNL     1      35.031 -19.478 -23.739  0.00  0.00    -0.275 OA
ATOM      2  O   UNL     1      34.585 -15.108 -22.379  0.00  0.00    -0.275 OA
ATOM      3  N   UNL     1      34.747 -17.206 -23.365  0.00  0.00    -0.255 N 
ATOM      4  C   UNL     1      34.937 -18.569 -21.475  0.00  0.00    +0.078 C 
ATOM      5  C   UNL     1      35.019 -17.089 -21.059  0.00  0.00    +0.094 C 
ATOM      6  C   UNL     1      34.928 -18.515 -22.993  0.00  0.00    +0.228 C 
ATOM      7  C   UNL     1      33.629 -19.205 -20.997  0.00  0.00    +0.010 C 
ATOM      8  C   UNL     1      34.744 -16.319 -22.320  0.00  0.00    +0.229 C 
ATOM      9  H   UNL     1      34.631 -16.928 -24.303  0.00  0.00    +0.158 HD
ENDROOT
BRANCH   4  10
ATOM     10  C   UNL     1      36.141 -19.366 -20.976  0.00  0.00    +0.009 C 
ATOM     11  C   UNL     1      35.705 -20.644 -20.290  0.00  0.00    +0.001 C 
ENDBRANCH   4  10
TORSDOF 1
ENDMDL
MODEL 6
REMARK VINA RESULT:      -5.8      3.219      4.454
REMARK  Name = 3291
REMARK  1 active torsions:
REMARK  status: ('A' for Active; 'I' for Inactive)
REMARK    1  A    between atoms: C_4  and  C_10
REMARK                            x       y       z     vdW  Elec       q    Type
REMARK                         _______ _______ _______ _____ _____    ______ ____
ROOT
ATOM      1  O   UNL     1      32.631 -19.744 -20.774  0.00  0.00    -0.275 OA
ATOM      2  O   UNL     1      36.736 -21.443 -19.587  0.00  0.00    -0.275 OA
ATOM      3  N   UNL     1      34.537 -20.848 -20.044  0.00  0.00    -0.255 N 
ATOM      4  C   UNL     1      34.860 -18.995 -21.433  0.00  0.00    +0.078 C 
ATOM      5  C   UNL     1      36.208 -19.440 -20.837  0.00  0.00    +0.094 C 
ATOM      6  C   UNL     1      33.846 -19.874 -20.720  0.00  0.00    +0.228 C 
ATOM      7  C   UNL     1      34.796 -19.288 -22.934  0.00  0.00    +0.010 C 
ATOM      8  C   UNL     1      35.899 -20.706 -20.089  0.00  0.00    +0.229 C 
ATOM      9  H   UNL     1      34.091 -21.585 -19.566  0.00  0.00    +0.158 HD
ENDROOT
BRANCH   4  10
ATOM     10  C   UNL     1      34.577 -17.520 -21.157  0.00  0.00    +0.009 C 
ATOM     11  C   UNL     1      34.989 -16.655 -22.330  0.00  0.00    +0.001 C 
ENDBRANCH   4  10
TORSDOF 1
ENDMDL
MODEL 7
REMARK VINA RESULT:      -5.8     10.880     12.659
REMARK  Name = 3291
REMARK  1 active torsions:
REMARK  status: ('A' for Active; 'I' for Inactive)
REMARK    1  A    between atoms: C_4  and  C_10
REMARK                            x       y       z     vdW  Elec       q    Type
REMARK                         _______ _______ _______ _____ _____    ______ ____
ROOT
ATOM      1  O   UNL     1      37.607 -27.003 -15.532  0.00  0.00    -0.275 OA
ATOM      2  O   UNL     1      36.404 -25.606 -11.320  0.00  0.00    -0.275 OA
ATOM      3  N   UNL     1      36.824 -26.570 -13.392  0.00  0.00    -0.255 N 
ATOM      4  C   UNL     1      38.493 -25.152 -14.209  0.00  0.00    +0.078 C 
ATOM      5  C   UNL     1      37.913 -24.574 -12.905  0.00  0.00    +0.094 C 
ATOM      6  C   UNL     1      37.601 -26.346 -14.500  0.00  0.00    +0.228 C 
ATOM      7  C   UNL     1      39.927 -25.647 -14.002  0.00  0.00    +0.010 C 
ATOM      8  C   UNL     1      36.965 -25.628 -12.406  0.00  0.00    +0.229 C 
ATOM      9  H   UNL     1      36.216 -27.341 -13.311  0.00  0.00    +0.158 HD
ENDROOT
BRANCH   4  10
ATOM     10  C   UNL     1      38.429 -24.144 -15.355  0.00  0.00    +0.009 C 
ATOM     11  C   UNL     1      37.094 -23.429 -15.381  0.00  0.00    +0.001 C 
ENDBRANCH   4  10
TORSDOF 1
ENDMDL
MODEL 8
REMARK VINA RESULT:      -5.7     10.664     11.657
REMARK  Name = 3291
REMARK  1 active torsions:
REMARK  status: ('A' for Active; 'I' for Inactive)
REMARK    1  A    between atoms: C_4  and  C_10
REMARK                            x       y       z     vdW  Elec       q    Type
REMARK                         _______ _______ _______ _____ _____    ______ ____
ROOT
ATOM      1  O   UNL     1      31.613  -4.745 -22.922  0.00  0.00    -0.275 OA
ATOM      2  O   UNL     1      32.470  -7.594 -19.416  0.00  0.00    -0.275 OA
ATOM      3  N   UNL     1      31.919  -5.951 -20.964  0.00  0.00    -0.255 N 
ATOM      4  C   UNL     1      32.336  -7.077 -22.970  0.00  0.00    +0.078 C 
ATOM      5  C   UNL     1      32.832  -7.925 -21.785  0.00  0.00    +0.094 C 
ATOM      6  C   UNL     1      31.921  -5.766 -22.324  0.00  0.00    +0.228 C 
ATOM      7  C   UNL     1      31.108  -7.712 -23.628  0.00  0.00    +0.010 C 
ATOM      8  C   UNL     1      32.386  -7.175 -20.561  0.00  0.00    +0.229 C 
ATOM      9  H   UNL     1      31.609  -5.262 -20.331  0.00  0.00    +0.158 HD
ENDROOT
BRANCH   4  10
ATOM     10  C   UNL     1      33.439  -6.839 -24.000  0.00  0.00    +0.009 C 
ATOM     11  C   UNL     1      34.734  -7.501 -23.577  0.00  0.00    +0.001 C 
ENDBRANCH   4  10
TORSDOF 1
ENDMDL
MODEL 9
REMARK VINA RESULT:      -5.7     10.880     12.189
REMARK  Name = 3291
REMARK  1 active torsions:
REMARK  status: ('A' for Active; 'I' for Inactive)
REMARK    1  A    between atoms: C_4  and  C_10
REMARK                            x       y       z     vdW  Elec       q    Type
REMARK                         _______ _______ _______ _____ _____    ______ ____
ROOT
ATOM      1  O   UNL     1      37.056 -26.582 -12.019  0.00  0.00    -0.275 OA
ATOM      2  O   UNL     1      35.395 -24.639 -15.841  0.00  0.00    -0.275 OA
ATOM      3  N   UNL     1      35.948 -25.773 -13.890  0.00  0.00    -0.255 N 
ATOM      4  C   UNL     1      37.992 -24.769 -13.361  0.00  0.00    +0.078 C 
ATOM      5  C   UNL     1      37.529 -24.303 -14.753  0.00  0.00    +0.094 C 
ATOM      6  C   UNL     1      36.976 -25.833 -12.983  0.00  0.00    +0.228 C 
ATOM      7  C   UNL     1      37.913 -23.629 -12.342  0.00  0.00    +0.010 C 
ATOM      8  C   UNL     1      36.157 -24.892 -14.920  0.00  0.00    +0.229 C 
ATOM      9  H   UNL     1      35.131 -26.317 -13.809  0.00  0.00    +0.158 HD
ENDROOT
BRANCH   4  10
ATOM     10  C   UNL     1      39.398 -25.363 -13.400  0.00  0.00    +0.009 C 
ATOM     11  C   UNL     1      39.941 -25.394 -14.814  0.00  0.00    +0.001 C 
ENDBRANCH   4  10
TORSDOF 1
ENDMDL
