MODEL 1
REMARK VINA RESULT:      -5.0      0.000      0.000
REMARK  Name = 2724354
REMARK  7 active torsions:
REMARK  status: ('A' for Active; 'I' for Inactive)
REMARK    1  A    between atoms: C_1  and  S_2
REMARK    2  A    between atoms: C_1  and  C_5
REMARK    3  A    between atoms: C_1  and  C_8
REMARK    4  A    between atoms: C_5  and  O_6
REMARK    5  A    between atoms: C_8  and  S_9
REMARK    6  A    between atoms: C_8  and  C_12
REMARK    7  A    between atoms: C_12  and  O_13
REMARK                            x       y       z     vdW  Elec       q    Type
REMARK                         _______ _______ _______ _____ _____    ______ ____
ROOT
ATOM      1  C   UNL     1      38.141 -24.197 -13.400  0.00  0.00    +0.163 C 
ENDROOT
BRANCH   1   2
ATOM      2  S   UNL     1      36.649 -23.821 -14.391  0.00  0.00    -0.157 S 
ATOM      3  H   UNL     1      36.842 -24.228 -15.675  0.00  0.00    +0.103 HD
ENDBRANCH   1   2
BRANCH   1   5
ATOM      4  O   UNL     1      37.334 -24.687 -11.136  0.00  0.00    -0.249 OA
ATOM      5  C   UNL     1      37.869 -23.929 -11.931  0.00  0.00    +0.325 C 
BRANCH   5   6
ATOM      6  O   UNL     1      38.304 -22.685 -11.594  0.00  0.00    -0.480 OA
ATOM      7  H   UNL     1      38.143 -21.961 -12.167  0.00  0.00    +0.295 HD
ENDBRANCH   5   6
ENDBRANCH   1   5
BRANCH   1   8
ATOM      8  C   UNL     1      38.699 -25.615 -13.628  0.00  0.00    +0.163 C 
BRANCH   8   9
ATOM      9  S   UNL     1      40.164 -25.681 -14.724  0.00  0.00    -0.157 S 
ATOM     10  H   UNL     1      40.305 -26.941 -15.218  0.00  0.00    +0.103 HD
ENDBRANCH   8   9
BRANCH   8  12
ATOM     11  O   UNL     1      37.496 -26.934 -15.304  0.00  0.00    -0.249 OA
ATOM     12  C   UNL     1      37.628 -26.564 -14.144  0.00  0.00    +0.325 C 
BRANCH  12  13
ATOM     13  O   UNL     1      36.789 -26.964 -13.151  0.00  0.00    -0.480 OA
ATOM     14  H   UNL     1      35.941 -27.302 -13.362  0.00  0.00    +0.295 HD
ENDBRANCH  12  13
ENDBRANCH   8  12
ENDBRANCH   1   8
TORSDOF 7
ENDMDL
MODEL 2
REMARK VINA RESULT:      -5.0      1.925      2.193
REMARK  Name = 2724354
REMARK  7 active torsions:
REMARK  status: ('A' for Active; 'I' for Inactive)
REMARK    1  A    between atoms: C_1  and  S_2
REMARK    2  A    between atoms: C_1  and  C_5
REMARK    3  A    between atoms: C_1  and  C_8
REMARK    4  A    between atoms: C_5  and  O_6
REMARK    5  A    between atoms: C_8  and  S_9
REMARK    6  A    between atoms: C_8  and  C_12
REMARK    7  A    between atoms: C_12  and  O_13
REMARK                            x       y       z     vdW  Elec       q    Type
REMARK                         _______ _______ _______ _____ _____    ______ ____
ROOT
ATOM      1  C   UNL     1      37.756 -24.019 -13.685  0.00  0.00    +0.163 C 
ENDROOT
BRANCH   1   2
ATOM      2  S   UNL     1      35.962 -23.689 -13.839  0.00  0.00    -0.157 S 
ATOM      3  H   UNL     1      35.418 -23.545 -12.600  0.00  0.00    +0.103 HD
ENDBRANCH   1   2
BRANCH   1   5
ATOM      4  O   UNL     1      37.702 -25.354 -11.628  0.00  0.00    -0.249 OA
ATOM      5  C   UNL     1      38.095 -24.379 -12.250  0.00  0.00    +0.325 C 
BRANCH   5   6
ATOM      6  O   UNL     1      38.919 -23.438 -11.713  0.00  0.00    -0.480 OA
ATOM      7  H   UNL     1      39.126 -22.665 -12.200  0.00  0.00    +0.295 HD
ENDBRANCH   5   6
ENDBRANCH   1   5
BRANCH   1   8
ATOM      8  C   UNL     1      38.282 -25.074 -14.677  0.00  0.00    +0.163 C 
BRANCH   8   9
ATOM      9  S   UNL     1      37.276 -26.601 -14.756  0.00  0.00    -0.157 S 
ATOM     10  H   UNL     1      35.956 -26.273 -14.813  0.00  0.00    +0.103 HD
ENDBRANCH   8   9
BRANCH   8  12
ATOM     11  O   UNL     1      40.629 -24.640 -14.127  0.00  0.00    -0.249 OA
ATOM     12  C   UNL     1      39.735 -25.431 -14.400  0.00  0.00    +0.325 C 
BRANCH  12  13
ATOM     13  O   UNL     1      39.953 -26.769 -14.506  0.00  0.00    -0.480 OA
ATOM     14  H   UNL     1      40.080 -27.158 -15.348  0.00  0.00    +0.295 HD
ENDBRANCH  12  13
ENDBRANCH   8  12
ENDBRANCH   1   8
TORSDOF 7
ENDMDL
MODEL 3
REMARK VINA RESULT:      -5.0      2.007      2.436
REMARK  Name = 2724354
REMARK  7 active torsions:
REMARK  status: ('A' for Active; 'I' for Inactive)
REMARK    1  A    between atoms: C_1  and  S_2
REMARK    2  A    between atoms: C_1  and  C_5
REMARK    3  A    between atoms: C_1  and  C_8
REMARK    4  A    between atoms: C_5  and  O_6
REMARK    5  A    between atoms: C_8  and  S_9
REMARK    6  A    between atoms: C_8  and  C_12
REMARK    7  A    between atoms: C_12  and  O_13
REMARK                            x       y       z     vdW  Elec       q    Type
REMARK                         _______ _______ _______ _____ _____    ______ ____
ROOT
ATOM      1  C   UNL     1      36.011 -24.270 -12.886  0.00  0.00    +0.163 C 
ENDROOT
BRANCH   1   2
ATOM      2  S   UNL     1      34.246 -24.172 -13.364  0.00  0.00    -0.157 S 
ATOM      3  H   UNL     1      33.483 -24.006 -12.250  0.00  0.00    +0.103 HD
ENDBRANCH   1   2
BRANCH   1   5
ATOM      4  O   UNL     1      36.864 -23.480 -10.726  0.00  0.00    -0.249 OA
ATOM      5  C   UNL     1      36.142 -24.222 -11.374  0.00  0.00    +0.325 C 
BRANCH   5   6
ATOM      6  O   UNL     1      35.332 -25.155 -10.805  0.00  0.00    -0.480 OA
ATOM      7  H   UNL     1      35.670 -26.002 -10.592  0.00  0.00    +0.295 HD
ENDBRANCH   5   6
ENDBRANCH   1   5
BRANCH   1   8
ATOM      8  C   UNL     1      36.752 -25.481 -13.485  0.00  0.00    +0.163 C 
BRANCH   8   9
ATOM      9  S   UNL     1      38.541 -25.537 -13.097  0.00  0.00    -0.157 S 
ATOM     10  H   UNL     1      39.041 -24.272 -13.078  0.00  0.00    +0.103 HD
ENDBRANCH   8   9
BRANCH   8  12
ATOM     11  O   UNL     1      36.026 -26.508 -15.586  0.00  0.00    -0.249 OA
ATOM     12  C   UNL     1      36.550 -25.576 -14.989  0.00  0.00    +0.325 C 
BRANCH  12  13
ATOM     13  O   UNL     1      37.043 -24.484 -15.633  0.00  0.00    -0.480 OA
ATOM     14  H   UNL     1      36.749 -23.627 -15.396  0.00  0.00    +0.295 HD
ENDBRANCH  12  13
ENDBRANCH   8  12
ENDBRANCH   1   8
TORSDOF 7
ENDMDL
MODEL 4
REMARK VINA RESULT:      -4.9      1.687      3.977
REMARK  Name = 2724354
REMARK  7 active torsions:
REMARK  status: ('A' for Active; 'I' for Inactive)
REMARK    1  A    between atoms: C_1  and  S_2
REMARK    2  A    between atoms: C_1  and  C_5
REMARK    3  A    between atoms: C_1  and  C_8
REMARK    4  A    between atoms: C_5  and  O_6
REMARK    5  A    between atoms: C_8  and  S_9
REMARK    6  A    between atoms: C_8  and  C_12
REMARK    7  A    between atoms: C_12  and  O_13
REMARK                            x       y       z     vdW  Elec       q    Type
REMARK                         _______ _______ _______ _____ _____    ______ ____
ROOT
ATOM      1  C   UNL     1      36.699 -25.125 -14.158  0.00  0.00    +0.163 C 
ENDROOT
BRANCH   1   2
ATOM      2  S   UNL     1      37.246 -23.652 -15.097  0.00  0.00    -0.157 S 
ATOM      3  H   UNL     1      37.854 -24.047 -16.248  0.00  0.00    +0.103 HD
ENDBRANCH   1   2
BRANCH   1   5
ATOM      4  O   UNL     1      38.214 -26.998 -14.620  0.00  0.00    -0.249 OA
ATOM      5  C   UNL     1      37.180 -26.388 -14.848  0.00  0.00    +0.325 C 
BRANCH   5   6
ATOM      6  O   UNL     1      36.286 -26.771 -15.800  0.00  0.00    -0.480 OA
ATOM      7  H   UNL     1      36.215 -27.674 -16.039  0.00  0.00    +0.295 HD
ENDBRANCH   5   6
ENDBRANCH   1   5
BRANCH   1   8
ATOM      8  C   UNL     1      37.101 -25.100 -12.670  0.00  0.00    +0.163 C 
BRANCH   8   9
ATOM      9  S   UNL     1      35.771 -24.546 -11.540  0.00  0.00    -0.157 S 
ATOM     10  H   UNL     1      34.561 -24.741 -12.132  0.00  0.00    +0.103 HD
ENDBRANCH   8   9
BRANCH   8  12
ATOM     11  O   UNL     1      38.425 -23.261 -11.744  0.00  0.00    -0.249 OA
ATOM     12  C   UNL     1      38.351 -24.265 -12.440  0.00  0.00    +0.325 C 
BRANCH  12  13
ATOM     13  O   UNL     1      39.418 -24.757 -13.126  0.00  0.00    -0.480 OA
ATOM     14  H   UNL     1      39.292 -25.417 -13.778  0.00  0.00    +0.295 HD
ENDBRANCH  12  13
ENDBRANCH   8  12
ENDBRANCH   1   8
TORSDOF 7
ENDMDL
MODEL 5
REMARK VINA RESULT:      -4.9      2.562      3.296
REMARK  Name = 2724354
REMARK  7 active torsions:
REMARK  status: ('A' for Active; 'I' for Inactive)
REMARK    1  A    between atoms: C_1  and  S_2
REMARK    2  A    between atoms: C_1  and  C_5
REMARK    3  A    between atoms: C_1  and  C_8
REMARK    4  A    between atoms: C_5  and  O_6
REMARK    5  A    between atoms: C_8  and  S_9
REMARK    6  A    between atoms: C_8  and  C_12
REMARK    7  A    between atoms: C_12  and  O_13
REMARK                            x       y       z     vdW  Elec       q    Type
REMARK                         _______ _______ _______ _____ _____    ______ ____
ROOT
ATOM      1  C   UNL     1      38.544 -24.874 -13.935  0.00  0.00    +0.163 C 
ENDROOT
BRANCH   1   2
ATOM      2  S   UNL     1      37.894 -25.839 -12.522  0.00  0.00    -0.157 S 
ATOM      3  H   UNL     1      38.549 -25.477 -11.386  0.00  0.00    +0.103 HD
ENDBRANCH   1   2
BRANCH   1   5
ATOM      4  O   UNL     1      40.897 -24.877 -14.628  0.00  0.00    -0.249 OA
ATOM      5  C   UNL     1      39.852 -25.474 -14.415  0.00  0.00    +0.325 C 
BRANCH   5   6
ATOM      6  O   UNL     1      39.713 -26.815 -14.598  0.00  0.00    -0.480 OA
ATOM      7  H   UNL     1      40.318 -27.279 -15.142  0.00  0.00    +0.295 HD
ENDBRANCH   5   6
ENDBRANCH   1   5
BRANCH   1   8
ATOM      8  C   UNL     1      37.537 -24.705 -15.089  0.00  0.00    +0.163 C 
BRANCH   8   9
ATOM      9  S   UNL     1      36.498 -23.202 -14.969  0.00  0.00    -0.157 S 
ATOM     10  H   UNL     1      35.915 -22.955 -16.174  0.00  0.00    +0.103 HD
ENDBRANCH   8   9
BRANCH   8  12
ATOM     11  O   UNL     1      36.982 -26.999 -15.741  0.00  0.00    -0.249 OA
ATOM     12  C   UNL     1      36.649 -25.931 -15.245  0.00  0.00    +0.325 C 
BRANCH  12  13
ATOM     13  O   UNL     1      35.394 -25.706 -14.771  0.00  0.00    -0.480 OA
ATOM     14  H   UNL     1      34.652 -26.052 -15.228  0.00  0.00    +0.295 HD
ENDBRANCH  12  13
ENDBRANCH   8  12
ENDBRANCH   1   8
TORSDOF 7
ENDMDL
MODEL 6
REMARK VINA RESULT:      -4.9      1.911      2.450
REMARK  Name = 2724354
REMARK  7 active torsions:
REMARK  status: ('A' for Active; 'I' for Inactive)
REMARK    1  A    between atoms: C_1  and  S_2
REMARK    2  A    between atoms: C_1  and  C_5
REMARK    3  A    between atoms: C_1  and  C_8
REMARK    4  A    between atoms: C_5  and  O_6
REMARK    5  A    between atoms: C_8  and  S_9
REMARK    6  A    between atoms: C_8  and  C_12
REMARK    7  A    between atoms: C_12  and  O_13
REMARK                            x       y       z     vdW  Elec       q    Type
REMARK                         _______ _______ _______ _____ _____    ______ ____
ROOT
ATOM      1  C   UNL     1      36.533 -23.644 -12.891  0.00  0.00    +0.163 C 
ENDROOT
BRANCH   1   2
ATOM      2  S   UNL     1      34.812 -24.042 -12.409  0.00  0.00    -0.157 S 
ATOM      3  H   UNL     1      34.430 -25.202 -13.009  0.00  0.00    +0.103 HD
ENDBRANCH   1   2
BRANCH   1   5
ATOM      4  O   UNL     1      38.400 -22.677 -11.628  0.00  0.00    -0.249 OA
ATOM      5  C   UNL     1      37.350 -23.300 -11.659  0.00  0.00    +0.325 C 
BRANCH   5   6
ATOM      6  O   UNL     1      36.750 -23.801 -10.545  0.00  0.00    -0.480 OA
ATOM      7  H   UNL     1      36.773 -24.722 -10.374  0.00  0.00    +0.295 HD
ENDBRANCH   5   6
ENDBRANCH   1   5
BRANCH   1   8
ATOM      8  C   UNL     1      37.211 -24.739 -13.737  0.00  0.00    +0.163 C 
BRANCH   8   9
ATOM      9  S   UNL     1      36.143 -25.453 -15.042  0.00  0.00    -0.157 S 
ATOM     10  H   UNL     1      36.254 -24.710 -16.176  0.00  0.00    +0.103 HD
ENDBRANCH   8   9
BRANCH   8  12
ATOM     11  O   UNL     1      37.152 -26.494 -12.030  0.00  0.00    -0.249 OA
ATOM     12  C   UNL     1      37.774 -25.853 -12.868  0.00  0.00    +0.325 C 
BRANCH  12  13
ATOM     13  O   UNL     1      39.095 -26.065 -13.114  0.00  0.00    -0.480 OA
ATOM     14  H   UNL     1      39.371 -26.841 -13.560  0.00  0.00    +0.295 HD
ENDBRANCH  12  13
ENDBRANCH   8  12
ENDBRANCH   1   8
TORSDOF 7
ENDMDL
MODEL 7
REMARK VINA RESULT:      -4.9      2.698      3.769
REMARK  Name = 2724354
REMARK  7 active torsions:
REMARK  status: ('A' for Active; 'I' for Inactive)
REMARK    1  A    between atoms: C_1  and  S_2
REMARK    2  A    between atoms: C_1  and  C_5
REMARK    3  A    between atoms: C_1  and  C_8
REMARK    4  A    between atoms: C_5  and  O_6
REMARK    5  A    between atoms: C_8  and  S_9
REMARK    6  A    between atoms: C_8  and  C_12
REMARK    7  A    between atoms: C_12  and  O_13
REMARK                            x       y       z     vdW  Elec       q    Type
REMARK                         _______ _______ _______ _____ _____    ______ ____
ROOT
ATOM      1  C   UNL     1      38.339 -25.513 -13.713  0.00  0.00    +0.163 C 
ENDROOT
BRANCH   1   2
ATOM      2  S   UNL     1      37.348 -26.759 -14.617  0.00  0.00    -0.157 S 
ATOM      3  H   UNL     1      36.231 -27.057 -13.900  0.00  0.00    +0.103 HD
ENDBRANCH   1   2
BRANCH   1   5
ATOM      4  O   UNL     1      40.634 -24.718 -14.059  0.00  0.00    -0.249 OA
ATOM      5  C   UNL     1      39.794 -25.602 -14.136  0.00  0.00    +0.325 C 
BRANCH   5   6
ATOM      6  O   UNL     1      40.060 -26.836 -14.643  0.00  0.00    -0.480 OA
ATOM      7  H   UNL     1      39.514 -27.194 -15.315  0.00  0.00    +0.295 HD
ENDBRANCH   5   6
ENDBRANCH   1   5
BRANCH   1   8
ATOM      8  C   UNL     1      37.796 -24.077 -13.838  0.00  0.00    +0.163 C 
BRANCH   8   9
ATOM      9  S   UNL     1      36.348 -23.724 -12.774  0.00  0.00    -0.157 S 
ATOM     10  H   UNL     1      35.204 -23.999 -13.458  0.00  0.00    +0.103 HD
ENDBRANCH   8   9
BRANCH   8  12
ATOM     11  O   UNL     1      36.365 -23.775 -15.802  0.00  0.00    -0.249 OA
ATOM     12  C   UNL     1      37.472 -23.721 -15.281  0.00  0.00    +0.325 C 
BRANCH  12  13
ATOM     13  O   UNL     1      38.582 -23.337 -15.966  0.00  0.00    -0.480 OA
ATOM     14  H   UNL     1      38.840 -23.801 -16.738  0.00  0.00    +0.295 HD
ENDBRANCH  12  13
ENDBRANCH   8  12
ENDBRANCH   1   8
TORSDOF 7
ENDMDL
MODEL 8
REMARK VINA RESULT:      -4.9      1.651      3.627
REMARK  Name = 2724354
REMARK  7 active torsions:
REMARK  status: ('A' for Active; 'I' for Inactive)
REMARK    1  A    between atoms: C_1  and  S_2
REMARK    2  A    between atoms: C_1  and  C_5
REMARK    3  A    between atoms: C_1  and  C_8
REMARK    4  A    between atoms: C_5  and  O_6
REMARK    5  A    between atoms: C_8  and  S_9
REMARK    6  A    between atoms: C_8  and  C_12
REMARK    7  A    between atoms: C_12  and  O_13
REMARK                            x       y       z     vdW  Elec       q    Type
REMARK                         _______ _______ _______ _____ _____    ______ ____
ROOT
ATOM      1  C   UNL     1      36.388 -25.056 -13.671  0.00  0.00    +0.163 C 
ENDROOT
BRANCH   1   2
ATOM      2  S   UNL     1      34.973 -24.117 -12.988  0.00  0.00    -0.157 S 
ATOM      3  H   UNL     1      34.581 -24.678 -11.812  0.00  0.00    +0.103 HD
ENDBRANCH   1   2
BRANCH   1   5
ATOM      4  O   UNL     1      36.100 -26.561 -15.586  0.00  0.00    -0.249 OA
ATOM      5  C   UNL     1      36.112 -25.434 -15.114  0.00  0.00    +0.325 C 
BRANCH   5   6
ATOM      6  O   UNL     1      35.879 -24.317 -15.854  0.00  0.00    -0.480 OA
ATOM      7  H   UNL     1      35.323 -23.641 -15.519  0.00  0.00    +0.295 HD
ENDBRANCH   5   6
ENDBRANCH   1   5
BRANCH   1   8
ATOM      8  C   UNL     1      37.743 -24.338 -13.519  0.00  0.00    +0.163 C 
BRANCH   8   9
ATOM      9  S   UNL     1      39.182 -25.317 -14.089  0.00  0.00    -0.157 S 
ATOM     10  H   UNL     1      40.271 -24.507 -14.189  0.00  0.00    +0.103 HD
ENDBRANCH   8   9
BRANCH   8  12
ATOM     11  O   UNL     1      38.271 -22.734 -11.746  0.00  0.00    -0.249 OA
ATOM     12  C   UNL     1      37.975 -23.871 -12.090  0.00  0.00    +0.325 C 
BRANCH  12  13
ATOM     13  O   UNL     1      37.829 -24.888 -11.198  0.00  0.00    -0.480 OA
ATOM     14  H   UNL     1      37.350 -25.656 -11.437  0.00  0.00    +0.295 HD
ENDBRANCH  12  13
ENDBRANCH   8  12
ENDBRANCH   1   8
TORSDOF 7
ENDMDL
MODEL 9
REMARK VINA RESULT:      -4.8      2.640      3.926
REMARK  Name = 2724354
REMARK  7 active torsions:
REMARK  status: ('A' for Active; 'I' for Inactive)
REMARK    1  A    between atoms: C_1  and  S_2
REMARK    2  A    between atoms: C_1  and  C_5
REMARK    3  A    between atoms: C_1  and  C_8
REMARK    4  A    between atoms: C_5  and  O_6
REMARK    5  A    between atoms: C_8  and  S_9
REMARK    6  A    between atoms: C_8  and  C_12
REMARK    7  A    between atoms: C_12  and  O_13
REMARK                            x       y       z     vdW  Elec       q    Type
REMARK                         _______ _______ _______ _____ _____    ______ ____
ROOT
ATOM      1  C   UNL     1      36.583 -25.569 -14.224  0.00  0.00    +0.163 C 
ENDROOT
BRANCH   1   2
ATOM      2  S   UNL     1      35.142 -24.792 -15.043  0.00  0.00    -0.157 S 
ATOM      3  H   UNL     1      34.017 -25.051 -14.323  0.00  0.00    +0.103 HD
ENDBRANCH   1   2
BRANCH   1   5
ATOM      4  O   UNL     1      36.619 -27.160 -16.090  0.00  0.00    -0.249 OA
ATOM      5  C   UNL     1      37.144 -26.674 -15.100  0.00  0.00    +0.325 C 
BRANCH   5   6
ATOM      6  O   UNL     1      38.351 -27.082 -14.622  0.00  0.00    -0.480 OA
ATOM      7  H   UNL     1      38.576 -27.992 -14.633  0.00  0.00    +0.295 HD
ENDBRANCH   5   6
ENDBRANCH   1   5
BRANCH   1   8
ATOM      8  C   UNL     1      37.675 -24.566 -13.802  0.00  0.00    +0.163 C 
BRANCH   8   9
ATOM      9  S   UNL     1      37.207 -23.490 -12.397  0.00  0.00    -0.157 S 
ATOM     10  H   UNL     1      36.577 -22.379 -12.866  0.00  0.00    +0.103 HD
ENDBRANCH   8   9
BRANCH   8  12
ATOM     11  O   UNL     1      37.620 -22.662 -15.341  0.00  0.00    -0.249 OA
ATOM     12  C   UNL     1      38.134 -23.710 -14.973  0.00  0.00    +0.325 C 
BRANCH  12  13
ATOM     13  O   UNL     1      39.207 -24.257 -15.606  0.00  0.00    -0.480 OA
ATOM     14  H   UNL     1      39.079 -24.838 -16.329  0.00  0.00    +0.295 HD
ENDBRANCH  12  13
ENDBRANCH   8  12
ENDBRANCH   1   8
TORSDOF 7
ENDMDL
