MODEL 1
REMARK VINA RESULT:     -10.8      0.000      0.000
REMARK  Name = 62281
REMARK  6 active torsions:
REMARK  status: ('A' for Active; 'I' for Inactive)
REMARK    1  A    between atoms: N_1  and  C_19
REMARK    2  A    between atoms: C_2  and  N_9
REMARK    3  A    between atoms: N_9  and  C_11
REMARK    4  A    between atoms: C_10  and  C_17
REMARK    5  A    between atoms: C_19  and  C_21
REMARK    6  A    between atoms: C_21  and  C_22
REMARK                            x       y       z     vdW  Elec       q    Type
REMARK                         _______ _______ _______ _____ _____    ______ ____
ROOT
ATOM      1  N   UNL     1      35.378 -17.160 -21.535  0.00  0.00    +0.389 N 
ATOM      2  C   UNL     1      33.432 -15.311 -22.698  0.00  0.00    +0.076 C 
ATOM      3  C   UNL     1      34.774 -15.610 -23.365  0.00  0.00    -0.003 C 
ATOM      4  C   UNL     1      33.524 -15.559 -21.193  0.00  0.00    -0.003 C 
ATOM      5  C   UNL     1      35.282 -17.003 -22.992  0.00  0.00    -0.076 C 
ATOM      6  C   UNL     1      34.072 -16.954 -20.892  0.00  0.00    -0.076 C 
ATOM      7  H   UNL     1      36.017 -16.449 -21.183  0.00  0.00    -0.080 HD
ENDROOT
BRANCH   2   9
ATOM      8  O   UNL     1      32.143 -13.432 -20.836  0.00  0.00    -0.275 OA
ATOM      9  N   UNL     1      33.009 -13.962 -22.978  0.00  0.00    -0.260 N 
ATOM     10  C   UNL     1      32.389 -13.123 -22.005  0.00  0.00    +0.229 C 
BRANCH   9  11
ATOM     11  C   UNL     1      33.225 -13.428 -24.322  0.00  0.00    +0.054 C 
ATOM     12  C   UNL     1      32.773 -14.165 -25.375  0.00  0.00    +0.015 C 
ATOM     13  C   UNL     1      33.865 -12.230 -24.428  0.00  0.00    +0.015 C 
ATOM     14  C   UNL     1      32.979 -13.655 -26.656  0.00  0.00    +0.001 C 
ATOM     15  C   UNL     1      34.072 -11.720 -25.710  0.00  0.00    +0.001 C 
ATOM     16  C   UNL     1      33.629 -12.433 -26.825  0.00  0.00    +0.000 C 
ENDBRANCH   9  11
BRANCH  10  17
ATOM     17  C   UNL     1      31.974 -11.745 -22.514  0.00  0.00    +0.086 C 
ATOM     18  C   UNL     1      30.952 -11.067 -21.611  0.00  0.00    +0.010 C 
ENDBRANCH  10  17
ENDBRANCH   2   9
BRANCH   1  19
ATOM     19  C   UNL     1      35.912 -18.479 -21.196  0.00  0.00    -0.054 C 
ATOM     20  C   UNL     1      37.208 -18.690 -21.980  0.00  0.00    -0.023 C 
BRANCH  19  21
ATOM     21  C   UNL     1      34.856 -19.556 -21.502  0.00  0.00    +0.006 C 
BRANCH  21  22
ATOM     22  C   UNL     1      34.668 -20.555 -20.386  0.00  0.00    -0.024 C 
ATOM     23  C   UNL     1      33.386 -20.929 -20.016  0.00  0.00    -0.004 C 
ATOM     24  C   UNL     1      35.783 -21.081 -19.751  0.00  0.00    -0.004 C 
ATOM     25  C   UNL     1      33.213 -21.852 -18.985  0.00  0.00    -0.000 C 
ATOM     26  C   UNL     1      35.610 -22.004 -18.720  0.00  0.00    -0.000 C 
ATOM     27  C   UNL     1      34.326 -22.389 -18.336  0.00  0.00    -0.000 C 
ENDBRANCH  21  22
ENDBRANCH  19  21
ENDBRANCH   1  19
TORSDOF 6
ENDMDL
MODEL 2
REMARK VINA RESULT:     -10.7      1.428      2.476
REMARK  Name = 62281
REMARK  6 active torsions:
REMARK  status: ('A' for Active; 'I' for Inactive)
REMARK    1  A    between atoms: N_1  and  C_19
REMARK    2  A    between atoms: C_2  and  N_9
REMARK    3  A    between atoms: N_9  and  C_11
REMARK    4  A    between atoms: C_10  and  C_17
REMARK    5  A    between atoms: C_19  and  C_21
REMARK    6  A    between atoms: C_21  and  C_22
REMARK                            x       y       z     vdW  Elec       q    Type
REMARK                         _______ _______ _______ _____ _____    ______ ____
ROOT
ATOM      1  N   UNL     1      34.878 -16.040 -23.133  0.00  0.00    +0.389 N 
ATOM      2  C   UNL     1      33.182 -13.657 -23.118  0.00  0.00    +0.076 C 
ATOM      3  C   UNL     1      33.568 -14.376 -24.410  0.00  0.00    -0.003 C 
ATOM      4  C   UNL     1      34.226 -13.923 -22.033  0.00  0.00    -0.003 C 
ATOM      5  C   UNL     1      33.844 -15.859 -24.160  0.00  0.00    -0.076 C 
ATOM      6  C   UNL     1      34.478 -15.421 -21.861  0.00  0.00    -0.076 C 
ATOM      7  H   UNL     1      35.726 -15.576 -23.455  0.00  0.00    -0.080 HD
ENDROOT
BRANCH   2   9
ATOM      8  O   UNL     1      31.315 -11.841 -21.747  0.00  0.00    -0.275 OA
ATOM      9  N   UNL     1      33.018 -12.243 -23.346  0.00  0.00    -0.260 N 
ATOM     10  C   UNL     1      32.082 -11.441 -22.627  0.00  0.00    +0.229 C 
BRANCH   9  11
ATOM     11  C   UNL     1      33.851 -11.600 -24.361  0.00  0.00    +0.054 C 
ATOM     12  C   UNL     1      34.652 -10.572 -23.962  0.00  0.00    +0.015 C 
ATOM     13  C   UNL     1      33.768 -12.072 -25.636  0.00  0.00    +0.015 C 
ATOM     14  C   UNL     1      35.446  -9.959 -24.930  0.00  0.00    +0.001 C 
ATOM     15  C   UNL     1      34.561 -11.458 -26.605  0.00  0.00    +0.001 C 
ATOM     16  C   UNL     1      35.401 -10.400 -26.252  0.00  0.00    +0.000 C 
ENDBRANCH   9  11
BRANCH  10  17
ATOM     17  C   UNL     1      32.030  -9.976 -23.051  0.00  0.00    +0.086 C 
ATOM     18  C   UNL     1      31.964  -9.022 -21.867  0.00  0.00    +0.010 C 
ENDBRANCH  10  17
ENDBRANCH   2   9
BRANCH   1  19
ATOM     19  C   UNL     1      35.165 -17.462 -22.941  0.00  0.00    -0.054 C 
ATOM     20  C   UNL     1      35.005 -18.171 -24.285  0.00  0.00    -0.023 C 
BRANCH  19  21
ATOM     21  C   UNL     1      34.233 -18.033 -21.858  0.00  0.00    +0.006 C 
BRANCH  21  22
ATOM     22  C   UNL     1      34.846 -19.164 -21.066  0.00  0.00    -0.024 C 
ATOM     23  C   UNL     1      36.218 -19.202 -20.887  0.00  0.00    -0.004 C 
ATOM     24  C   UNL     1      34.021 -20.143 -20.533  0.00  0.00    -0.004 C 
ATOM     25  C   UNL     1      36.784 -20.246 -20.155  0.00  0.00    -0.000 C 
ATOM     26  C   UNL     1      34.586 -21.187 -19.802  0.00  0.00    -0.000 C 
ATOM     27  C   UNL     1      35.967 -21.240 -19.613  0.00  0.00    -0.000 C 
ENDBRANCH  21  22
ENDBRANCH  19  21
ENDBRANCH   1  19
TORSDOF 6
ENDMDL
MODEL 3
REMARK VINA RESULT:     -10.6      1.583      2.914
REMARK  Name = 62281
REMARK  6 active torsions:
REMARK  status: ('A' for Active; 'I' for Inactive)
REMARK    1  A    between atoms: N_1  and  C_19
REMARK    2  A    between atoms: C_2  and  N_9
REMARK    3  A    between atoms: N_9  and  C_11
REMARK    4  A    between atoms: C_10  and  C_17
REMARK    5  A    between atoms: C_19  and  C_21
REMARK    6  A    between atoms: C_21  and  C_22
REMARK                            x       y       z     vdW  Elec       q    Type
REMARK                         _______ _______ _______ _____ _____    ______ ____
ROOT
ATOM      1  N   UNL     1      34.881 -18.074 -21.712  0.00  0.00    +0.389 N 
ATOM      2  C   UNL     1      34.640 -15.720 -23.433  0.00  0.00    +0.076 C 
ATOM      3  C   UNL     1      34.139 -15.730 -21.989  0.00  0.00    -0.003 C 
ATOM      4  C   UNL     1      34.665 -17.142 -23.993  0.00  0.00    -0.003 C 
ATOM      5  C   UNL     1      34.927 -16.723 -21.135  0.00  0.00    -0.076 C 
ATOM      6  C   UNL     1      35.437 -18.088 -23.073  0.00  0.00    -0.076 C 
ATOM      7  H   UNL     1      33.904 -18.358 -21.768  0.00  0.00    -0.080 HD
ENDROOT
BRANCH   2   9
ATOM      8  O   UNL     1      33.830 -16.163 -26.228  0.00  0.00    -0.275 OA
ATOM      9  N   UNL     1      33.830 -14.853 -24.252  0.00  0.00    -0.260 N 
ATOM     10  C   UNL     1      33.488 -15.155 -25.604  0.00  0.00    +0.229 C 
BRANCH   9  11
ATOM     11  C   UNL     1      33.335 -13.607 -23.670  0.00  0.00    +0.054 C 
ATOM     12  C   UNL     1      32.302 -13.690 -22.786  0.00  0.00    +0.015 C 
ATOM     13  C   UNL     1      33.941 -12.448 -24.052  0.00  0.00    +0.015 C 
ATOM     14  C   UNL     1      31.829 -12.501 -22.231  0.00  0.00    +0.001 C 
ATOM     15  C   UNL     1      33.469 -11.259 -23.498  0.00  0.00    +0.001 C 
ATOM     16  C   UNL     1      32.412 -11.285 -22.587  0.00  0.00    +0.000 C 
ENDBRANCH   9  11
BRANCH  10  17
ATOM     17  C   UNL     1      32.661 -14.086 -26.313  0.00  0.00    +0.086 C 
ATOM     18  C   UNL     1      33.430 -13.386 -27.424  0.00  0.00    +0.010 C 
ENDBRANCH  10  17
ENDBRANCH   2   9
BRANCH   1  19
ATOM     19  C   UNL     1      35.597 -19.021 -20.857  0.00  0.00    -0.054 C 
ATOM     20  C   UNL     1      37.078 -18.987 -21.236  0.00  0.00    -0.023 C 
BRANCH  19  21
ATOM     21  C   UNL     1      34.981 -20.422 -21.013  0.00  0.00    +0.006 C 
BRANCH  21  22
ATOM     22  C   UNL     1      34.946 -21.215 -19.728  0.00  0.00    -0.024 C 
ATOM     23  C   UNL     1      33.765 -21.824 -19.337  0.00  0.00    -0.004 C 
ATOM     24  C   UNL     1      36.098 -21.318 -18.963  0.00  0.00    -0.004 C 
ATOM     25  C   UNL     1      33.733 -22.556 -18.150  0.00  0.00    -0.000 C 
ATOM     26  C   UNL     1      36.066 -22.049 -17.777  0.00  0.00    -0.000 C 
ATOM     27  C   UNL     1      34.885 -22.668 -17.369  0.00  0.00    -0.000 C 
ENDBRANCH  21  22
ENDBRANCH  19  21
ENDBRANCH   1  19
TORSDOF 6
ENDMDL
MODEL 4
REMARK VINA RESULT:     -10.4      4.241     10.894
REMARK  Name = 62281
REMARK  6 active torsions:
REMARK  status: ('A' for Active; 'I' for Inactive)
REMARK    1  A    between atoms: N_1  and  C_19
REMARK    2  A    between atoms: C_2  and  N_9
REMARK    3  A    between atoms: N_9  and  C_11
REMARK    4  A    between atoms: C_10  and  C_17
REMARK    5  A    between atoms: C_19  and  C_21
REMARK    6  A    between atoms: C_21  and  C_22
REMARK                            x       y       z     vdW  Elec       q    Type
REMARK                         _______ _______ _______ _____ _____    ______ ____
ROOT
ATOM      1  N   UNL     1      34.955 -20.975 -19.266  0.00  0.00    +0.389 N 
ATOM      2  C   UNL     1      34.662 -23.148 -17.328  0.00  0.00    +0.076 C 
ATOM      3  C   UNL     1      33.460 -22.491 -18.006  0.00  0.00    -0.003 C 
ATOM      4  C   UNL     1      35.844 -22.178 -17.296  0.00  0.00    -0.003 C 
ATOM      5  C   UNL     1      33.837 -21.922 -19.375  0.00  0.00    -0.076 C 
ATOM      6  C   UNL     1      36.142 -21.621 -18.688  0.00  0.00    -0.076 C 
ATOM      7  H   UNL     1      34.670 -20.223 -18.640  0.00  0.00    -0.080 HD
ENDROOT
BRANCH   2   9
ATOM      8  O   UNL     1      31.983 -23.218 -16.111  0.00  0.00    -0.275 OA
ATOM      9  N   UNL     1      34.321 -23.595 -16.001  0.00  0.00    -0.260 N 
ATOM     10  C   UNL     1      32.986 -23.592 -15.497  0.00  0.00    +0.229 C 
BRANCH   9  11
ATOM     11  C   UNL     1      35.393 -24.076 -15.130  0.00  0.00    +0.054 C 
ATOM     12  C   UNL     1      35.940 -23.188 -14.253  0.00  0.00    +0.015 C 
ATOM     13  C   UNL     1      35.770 -25.379 -15.256  0.00  0.00    +0.015 C 
ATOM     14  C   UNL     1      36.961 -23.647 -13.423  0.00  0.00    +0.001 C 
ATOM     15  C   UNL     1      36.793 -25.838 -14.426  0.00  0.00    +0.001 C 
ATOM     16  C   UNL     1      37.389 -24.972 -13.509  0.00  0.00    +0.000 C 
ENDBRANCH   9  11
BRANCH  10  17
ATOM     17  C   UNL     1      32.842 -24.061 -14.052  0.00  0.00    +0.086 C 
ATOM     18  C   UNL     1      31.725 -25.080 -13.871  0.00  0.00    +0.010 C 
ENDBRANCH  10  17
ENDBRANCH   2   9
BRANCH   1  19
ATOM     19  C   UNL     1      35.270 -20.402 -20.574  0.00  0.00    -0.054 C 
ATOM     20  C   UNL     1      36.674 -19.800 -20.511  0.00  0.00    -0.023 C 
BRANCH  19  21
ATOM     21  C   UNL     1      34.200 -19.363 -20.953  0.00  0.00    +0.006 C 
BRANCH  21  22
ATOM     22  C   UNL     1      34.481 -18.651 -22.255  0.00  0.00    -0.024 C 
ATOM     23  C   UNL     1      34.528 -19.381 -23.432  0.00  0.00    -0.004 C 
ATOM     24  C   UNL     1      34.686 -17.280 -22.248  0.00  0.00    -0.004 C 
ATOM     25  C   UNL     1      34.788 -18.722 -24.634  0.00  0.00    -0.000 C 
ATOM     26  C   UNL     1      34.945 -16.622 -23.449  0.00  0.00    -0.000 C 
ATOM     27  C   UNL     1      34.996 -17.342 -24.642  0.00  0.00    -0.000 C 
ENDBRANCH  21  22
ENDBRANCH  19  21
ENDBRANCH   1  19
TORSDOF 6
ENDMDL
MODEL 5
REMARK VINA RESULT:     -10.3      3.454      5.793
REMARK  Name = 62281
REMARK  6 active torsions:
REMARK  status: ('A' for Active; 'I' for Inactive)
REMARK    1  A    between atoms: N_1  and  C_19
REMARK    2  A    between atoms: C_2  and  N_9
REMARK    3  A    between atoms: N_9  and  C_11
REMARK    4  A    between atoms: C_10  and  C_17
REMARK    5  A    between atoms: C_19  and  C_21
REMARK    6  A    between atoms: C_21  and  C_22
REMARK                            x       y       z     vdW  Elec       q    Type
REMARK                         _______ _______ _______ _____ _____    ______ ____
ROOT
ATOM      1  N   UNL     1      33.201 -12.744 -22.690  0.00  0.00    +0.389 N 
ATOM      2  C   UNL     1      32.359  -9.955 -22.957  0.00  0.00    +0.076 C 
ATOM      3  C   UNL     1      33.652 -10.480 -23.579  0.00  0.00    -0.003 C 
ATOM      4  C   UNL     1      31.961 -10.817 -21.759  0.00  0.00    -0.003 C 
ATOM      5  C   UNL     1      33.553 -11.974 -23.891  0.00  0.00    -0.076 C 
ATOM      6  C   UNL     1      31.916 -12.299 -22.132  0.00  0.00    -0.076 C 
ATOM      7  H   UNL     1      33.922 -12.580 -21.989  0.00  0.00    -0.080 HD
ENDROOT
BRANCH   2   9
ATOM      8  O   UNL     1      31.938  -8.794 -20.286  0.00  0.00    -0.275 OA
ATOM      9  N   UNL     1      32.497  -8.571 -22.579  0.00  0.00    -0.260 N 
ATOM     10  C   UNL     1      32.270  -8.100 -21.251  0.00  0.00    +0.229 C 
BRANCH   9  11
ATOM     11  C   UNL     1      32.887  -7.604 -23.603  0.00  0.00    +0.054 C 
ATOM     12  C   UNL     1      31.897  -6.891 -24.209  0.00  0.00    +0.015 C 
ATOM     13  C   UNL     1      34.215  -7.482 -23.882  0.00  0.00    +0.015 C 
ATOM     14  C   UNL     1      32.270  -5.968 -25.186  0.00  0.00    +0.001 C 
ATOM     15  C   UNL     1      34.589  -6.560 -24.859  0.00  0.00    +0.001 C 
ATOM     16  C   UNL     1      33.616  -5.803 -25.512  0.00  0.00    +0.000 C 
ENDBRANCH   9  11
BRANCH  10  17
ATOM     17  C   UNL     1      32.423  -6.593 -21.067  0.00  0.00    +0.086 C 
ATOM     18  C   UNL     1      31.089  -5.860 -21.078  0.00  0.00    +0.010 C 
ENDBRANCH  10  17
ENDBRANCH   2   9
BRANCH   1  19
ATOM     19  C   UNL     1      33.157 -14.175 -22.994  0.00  0.00    -0.054 C 
ATOM     20  C   UNL     1      32.531 -14.901 -21.803  0.00  0.00    -0.023 C 
BRANCH  19  21
ATOM     21  C   UNL     1      34.578 -14.677 -23.310  0.00  0.00    +0.006 C 
BRANCH  21  22
ATOM     22  C   UNL     1      34.638 -16.147 -23.650  0.00  0.00    -0.024 C 
ATOM     23  C   UNL     1      34.160 -16.582 -24.875  0.00  0.00    -0.004 C 
ATOM     24  C   UNL     1      35.173 -17.034 -22.728  0.00  0.00    -0.004 C 
ATOM     25  C   UNL     1      34.217 -17.940 -25.188  0.00  0.00    -0.000 C 
ATOM     26  C   UNL     1      35.230 -18.392 -23.041  0.00  0.00    -0.000 C 
ATOM     27  C   UNL     1      34.751 -18.845 -24.271  0.00  0.00    -0.000 C 
ENDBRANCH  21  22
ENDBRANCH  19  21
ENDBRANCH   1  19
TORSDOF 6
ENDMDL
MODEL 6
REMARK VINA RESULT:     -10.2      2.378      8.714
REMARK  Name = 62281
REMARK  6 active torsions:
REMARK  status: ('A' for Active; 'I' for Inactive)
REMARK    1  A    between atoms: N_1  and  C_19
REMARK    2  A    between atoms: C_2  and  N_9
REMARK    3  A    between atoms: N_9  and  C_11
REMARK    4  A    between atoms: C_10  and  C_17
REMARK    5  A    between atoms: C_19  and  C_21
REMARK    6  A    between atoms: C_21  and  C_22
REMARK                            x       y       z     vdW  Elec       q    Type
REMARK                         _______ _______ _______ _____ _____    ______ ____
ROOT
ATOM      1  N   UNL     1      32.908 -13.571 -22.205  0.00  0.00    +0.389 N 
ATOM      2  C   UNL     1      34.541 -15.994 -22.344  0.00  0.00    +0.076 C 
ATOM      3  C   UNL     1      34.466 -14.993 -23.496  0.00  0.00    -0.003 C 
ATOM      4  C   UNL     1      33.278 -15.909 -21.488  0.00  0.00    -0.003 C 
ATOM      5  C   UNL     1      34.150 -13.585 -22.990  0.00  0.00    -0.076 C 
ATOM      6  C   UNL     1      33.002 -14.471 -21.047  0.00  0.00    -0.076 C 
ATOM      7  H   UNL     1      32.154 -13.905 -22.803  0.00  0.00    -0.080 HD
ENDROOT
BRANCH   2   9
ATOM      8  O   UNL     1      34.529 -16.868 -25.154  0.00  0.00    -0.275 OA
ATOM      9  N   UNL     1      34.744 -17.333 -22.839  0.00  0.00    -0.260 N 
ATOM     10  C   UNL     1      34.721 -17.661 -24.228  0.00  0.00    +0.229 C 
BRANCH   9  11
ATOM     11  C   UNL     1      34.986 -18.404 -21.875  0.00  0.00    +0.054 C 
ATOM     12  C   UNL     1      33.917 -19.149 -21.477  0.00  0.00    +0.015 C 
ATOM     13  C   UNL     1      36.265 -18.583 -21.440  0.00  0.00    +0.015 C 
ATOM     14  C   UNL     1      34.149 -20.171 -20.558  0.00  0.00    +0.001 C 
ATOM     15  C   UNL     1      36.497 -19.605 -20.519  0.00  0.00    +0.001 C 
ATOM     16  C   UNL     1      35.438 -20.399 -20.077  0.00  0.00    +0.000 C 
ENDBRANCH   9  11
BRANCH  10  17
ATOM     17  C   UNL     1      34.910 -19.142 -24.543  0.00  0.00    +0.086 C 
ATOM     18  C   UNL     1      33.765 -19.722 -25.362  0.00  0.00    +0.010 C 
ENDBRANCH  10  17
ENDBRANCH   2   9
BRANCH   1  19
ATOM     19  C   UNL     1      32.594 -12.210 -21.770  0.00  0.00    -0.054 C 
ATOM     20  C   UNL     1      31.478 -12.284 -20.727  0.00  0.00    -0.023 C 
BRANCH  19  21
ATOM     21  C   UNL     1      32.205 -11.356 -22.990  0.00  0.00    +0.006 C 
BRANCH  21  22
ATOM     22  C   UNL     1      32.994 -10.073 -23.107  0.00  0.00    -0.024 C 
ATOM     23  C   UNL     1      32.648  -8.989 -22.317  0.00  0.00    -0.004 C 
ATOM     24  C   UNL     1      34.049 -10.005 -24.003  0.00  0.00    -0.004 C 
ATOM     25  C   UNL     1      33.377  -7.804 -22.425  0.00  0.00    -0.000 C 
ATOM     26  C   UNL     1      34.778  -8.821 -24.111  0.00  0.00    -0.000 C 
ATOM     27  C   UNL     1      34.442  -7.720 -23.323  0.00  0.00    -0.000 C 
ENDBRANCH  21  22
ENDBRANCH  19  21
ENDBRANCH   1  19
TORSDOF 6
ENDMDL
MODEL 7
REMARK VINA RESULT:     -10.2      3.299      5.991
REMARK  Name = 62281
REMARK  6 active torsions:
REMARK  status: ('A' for Active; 'I' for Inactive)
REMARK    1  A    between atoms: N_1  and  C_19
REMARK    2  A    between atoms: C_2  and  N_9
REMARK    3  A    between atoms: N_9  and  C_11
REMARK    4  A    between atoms: C_10  and  C_17
REMARK    5  A    between atoms: C_19  and  C_21
REMARK    6  A    between atoms: C_21  and  C_22
REMARK                            x       y       z     vdW  Elec       q    Type
REMARK                         _______ _______ _______ _____ _____    ______ ____
ROOT
ATOM      1  N   UNL     1      33.485 -13.110 -22.691  0.00  0.00    +0.389 N 
ATOM      2  C   UNL     1      33.026 -10.396 -23.684  0.00  0.00    +0.076 C 
ATOM      3  C   UNL     1      34.167 -11.272 -24.200  0.00  0.00    -0.003 C 
ATOM      4  C   UNL     1      32.626 -10.828 -22.273  0.00  0.00    -0.003 C 
ATOM      5  C   UNL     1      33.826 -12.758 -24.076  0.00  0.00    -0.076 C 
ATOM      6  C   UNL     1      32.336 -12.327 -22.213  0.00  0.00    -0.076 C 
ATOM      7  H   UNL     1      34.285 -12.883 -22.102  0.00  0.00    -0.080 HD
ENDROOT
BRANCH   2   9
ATOM      8  O   UNL     1      35.330  -9.200 -25.071  0.00  0.00    -0.275 OA
ATOM      9  N   UNL     1      33.395  -9.003 -23.716  0.00  0.00    -0.260 N 
ATOM     10  C   UNL     1      34.536  -8.515 -24.420  0.00  0.00    +0.229 C 
BRANCH   9  11
ATOM     11  C   UNL     1      32.560  -8.044 -22.994  0.00  0.00    +0.054 C 
ATOM     12  C   UNL     1      31.457  -7.561 -23.632  0.00  0.00    +0.015 C 
ATOM     13  C   UNL     1      32.943  -7.699 -21.733  0.00  0.00    +0.015 C 
ATOM     14  C   UNL     1      30.661  -6.646 -22.944  0.00  0.00    +0.001 C 
ATOM     15  C   UNL     1      32.148  -6.783 -21.044  0.00  0.00    +0.001 C 
ATOM     16  C   UNL     1      31.006  -6.256 -21.650  0.00  0.00    +0.000 C 
ENDBRANCH   9  11
BRANCH  10  17
ATOM     17  C   UNL     1      34.779  -7.014 -24.292  0.00  0.00    +0.086 C 
ATOM     18  C   UNL     1      34.453  -6.252 -25.568  0.00  0.00    +0.010 C 
ENDBRANCH  10  17
ENDBRANCH   2   9
BRANCH   1  19
ATOM     19  C   UNL     1      33.210 -14.542 -22.579  0.00  0.00    -0.054 C 
ATOM     20  C   UNL     1      32.299 -14.765 -21.372  0.00  0.00    -0.023 C 
BRANCH  19  21
ATOM     21  C   UNL     1      34.537 -15.313 -22.467  0.00  0.00    +0.006 C 
BRANCH  21  22
ATOM     22  C   UNL     1      34.552 -16.609 -23.242  0.00  0.00    -0.024 C 
ATOM     23  C   UNL     1      34.450 -16.576 -24.623  0.00  0.00    -0.004 C 
ATOM     24  C   UNL     1      34.668 -17.809 -22.556  0.00  0.00    -0.004 C 
ATOM     25  C   UNL     1      34.464 -17.773 -25.339  0.00  0.00    -0.000 C 
ATOM     26  C   UNL     1      34.682 -19.006 -23.272  0.00  0.00    -0.000 C 
ATOM     27  C   UNL     1      34.580 -18.989 -24.662  0.00  0.00    -0.000 C 
ENDBRANCH  21  22
ENDBRANCH  19  21
ENDBRANCH   1  19
TORSDOF 6
ENDMDL
MODEL 8
REMARK VINA RESULT:     -10.2      1.651      3.221
REMARK  Name = 62281
REMARK  6 active torsions:
REMARK  status: ('A' for Active; 'I' for Inactive)
REMARK    1  A    between atoms: N_1  and  C_19
REMARK    2  A    between atoms: C_2  and  N_9
REMARK    3  A    between atoms: N_9  and  C_11
REMARK    4  A    between atoms: C_10  and  C_17
REMARK    5  A    between atoms: C_19  and  C_21
REMARK    6  A    between atoms: C_21  and  C_22
REMARK                            x       y       z     vdW  Elec       q    Type
REMARK                         _______ _______ _______ _____ _____    ______ ____
ROOT
ATOM      1  N   UNL     1      34.896 -16.749 -22.604  0.00  0.00    +0.389 N 
ATOM      2  C   UNL     1      33.161 -14.393 -22.615  0.00  0.00    +0.076 C 
ATOM      3  C   UNL     1      33.686 -15.026 -23.903  0.00  0.00    -0.003 C 
ATOM      4  C   UNL     1      34.099 -14.712 -21.450  0.00  0.00    -0.003 C 
ATOM      5  C   UNL     1      33.964 -16.518 -23.716  0.00  0.00    -0.076 C 
ATOM      6  C   UNL     1      34.361 -16.214 -21.344  0.00  0.00    -0.076 C 
ATOM      7  H   UNL     1      35.763 -16.255 -22.813  0.00  0.00    -0.080 HD
ENDROOT
BRANCH   2   9
ATOM      8  O   UNL     1      34.272 -12.702 -24.752  0.00  0.00    -0.275 OA
ATOM      9  N   UNL     1      32.993 -12.971 -22.774  0.00  0.00    -0.260 N 
ATOM     10  C   UNL     1      33.574 -12.233 -23.849  0.00  0.00    +0.229 C 
BRANCH   9  11
ATOM     11  C   UNL     1      32.191 -12.249 -21.788  0.00  0.00    +0.054 C 
ATOM     12  C   UNL     1      31.160 -11.487 -22.249  0.00  0.00    +0.015 C 
ATOM     13  C   UNL     1      32.529 -12.387 -20.476  0.00  0.00    +0.015 C 
ATOM     14  C   UNL     1      30.394 -10.798 -21.309  0.00  0.00    +0.001 C 
ATOM     15  C   UNL     1      31.765 -11.699 -19.535  0.00  0.00    +0.001 C 
ATOM     16  C   UNL     1      30.696 -10.903 -19.951  0.00  0.00    +0.000 C 
ENDBRANCH   9  11
BRANCH  10  17
ATOM     17  C   UNL     1      33.317 -10.730 -23.811  0.00  0.00    +0.086 C 
ATOM     18  C   UNL     1      34.562  -9.911 -24.122  0.00  0.00    +0.010 C 
ENDBRANCH  10  17
ENDBRANCH   2   9
BRANCH   1  19
ATOM     19  C   UNL     1      35.190 -18.176 -22.470  0.00  0.00    -0.054 C 
ATOM     20  C   UNL     1      35.355 -18.767 -23.870  0.00  0.00    -0.023 C 
BRANCH  19  21
ATOM     21  C   UNL     1      34.068 -18.859 -21.669  0.00  0.00    +0.006 C 
BRANCH  21  22
ATOM     22  C   UNL     1      34.560 -19.948 -20.745  0.00  0.00    -0.024 C 
ATOM     23  C   UNL     1      33.641 -20.773 -20.118  0.00  0.00    -0.004 C 
ATOM     24  C   UNL     1      35.923 -20.101 -20.543  0.00  0.00    -0.004 C 
ATOM     25  C   UNL     1      34.096 -21.779 -19.265  0.00  0.00    -0.000 C 
ATOM     26  C   UNL     1      36.377 -21.106 -19.690  0.00  0.00    -0.000 C 
ATOM     27  C   UNL     1      35.465 -21.945 -19.051  0.00  0.00    -0.000 C 
ENDBRANCH  21  22
ENDBRANCH  19  21
ENDBRANCH   1  19
TORSDOF 6
ENDMDL
MODEL 9
REMARK VINA RESULT:     -10.1      2.511      4.594
REMARK  Name = 62281
REMARK  6 active torsions:
REMARK  status: ('A' for Active; 'I' for Inactive)
REMARK    1  A    between atoms: N_1  and  C_19
REMARK    2  A    between atoms: C_2  and  N_9
REMARK    3  A    between atoms: N_9  and  C_11
REMARK    4  A    between atoms: C_10  and  C_17
REMARK    5  A    between atoms: C_19  and  C_21
REMARK    6  A    between atoms: C_21  and  C_22
REMARK                            x       y       z     vdW  Elec       q    Type
REMARK                         _______ _______ _______ _____ _____    ______ ____
ROOT
ATOM      1  N   UNL     1      35.302 -20.171 -19.847  0.00  0.00    +0.389 N 
ATOM      2  C   UNL     1      34.793 -18.562 -22.237  0.00  0.00    +0.076 C 
ATOM      3  C   UNL     1      36.054 -18.391 -21.390  0.00  0.00    -0.003 C 
ATOM      4  C   UNL     1      33.663 -19.143 -21.387  0.00  0.00    -0.003 C 
ATOM      5  C   UNL     1      36.420 -19.688 -20.669  0.00  0.00    -0.076 C 
ATOM      6  C   UNL     1      34.107 -20.416 -20.667  0.00  0.00    -0.076 C 
ATOM      7  H   UNL     1      35.074 -19.445 -19.169  0.00  0.00    -0.080 HD
ENDROOT
BRANCH   2   9
ATOM      8  O   UNL     1      34.806 -17.884 -25.101  0.00  0.00    -0.275 OA
ATOM      9  N   UNL     1      34.403 -17.311 -22.836  0.00  0.00    -0.260 N 
ATOM     10  C   UNL     1      34.443 -17.074 -24.243  0.00  0.00    +0.229 C 
BRANCH   9  11
ATOM     11  C   UNL     1      33.943 -16.233 -21.962  0.00  0.00    +0.054 C 
ATOM     12  C   UNL     1      34.811 -15.215 -21.705  0.00  0.00    +0.015 C 
ATOM     13  C   UNL     1      32.678 -16.321 -21.464  0.00  0.00    +0.015 C 
ATOM     14  C   UNL     1      34.372 -14.187 -20.871  0.00  0.00    +0.001 C 
ATOM     15  C   UNL     1      32.238 -15.294 -20.630  0.00  0.00    +0.001 C 
ATOM     16  C   UNL     1      33.086 -14.226 -20.332  0.00  0.00    +0.000 C 
ENDBRANCH   9  11
BRANCH  10  17
ATOM     17  C   UNL     1      34.034 -15.668 -24.671  0.00  0.00    +0.086 C 
ATOM     18  C   UNL     1      33.264 -15.653 -25.984  0.00  0.00    +0.010 C 
ENDBRANCH  10  17
ENDBRANCH   2   9
BRANCH   1  19
ATOM     19  C   UNL     1      35.684 -21.385 -19.125  0.00  0.00    -0.054 C 
ATOM     20  C   UNL     1      36.951 -21.950 -19.770  0.00  0.00    -0.023 C 
BRANCH  19  21
ATOM     21  C   UNL     1      34.515 -22.386 -19.146  0.00  0.00    +0.006 C 
BRANCH  21  22
ATOM     22  C   UNL     1      34.005 -22.749 -17.772  0.00  0.00    -0.024 C 
ATOM     23  C   UNL     1      34.907 -22.916 -16.734  0.00  0.00    -0.004 C 
ATOM     24  C   UNL     1      32.642 -22.910 -17.575  0.00  0.00    -0.004 C 
ATOM     25  C   UNL     1      34.435 -23.251 -15.465  0.00  0.00    -0.000 C 
ATOM     26  C   UNL     1      32.170 -23.245 -16.306  0.00  0.00    -0.000 C 
ATOM     27  C   UNL     1      33.066 -23.416 -15.251  0.00  0.00    -0.000 C 
ENDBRANCH  21  22
ENDBRANCH  19  21
ENDBRANCH   1  19
TORSDOF 6
ENDMDL
