MODEL 1
REMARK VINA RESULT:      -9.5      0.000      0.000
REMARK  Name = 5289215
REMARK  7 active torsions:
REMARK  status: ('A' for Active; 'I' for Inactive)
REMARK    1  A    between atoms: P_1  and  O_3
REMARK    2  A    between atoms: P_1  and  O_5
REMARK    3  A    between atoms: P_1  and  O_13
REMARK    4  A    between atoms: O_5  and  C_6
REMARK    5  A    between atoms: C_6  and  C_7
REMARK    6  A    between atoms: O_13  and  C_14
REMARK    7  A    between atoms: C_15  and  C_21
REMARK                            x       y       z     vdW  Elec       q    Type
REMARK                         _______ _______ _______ _____ _____    ______ ____
ROOT
ATOM      1  P   UNL     1      34.695 -16.109 -21.143  0.00  0.00    +0.532 P 
ATOM      2  O   UNL     1      34.924 -14.937 -20.231  0.00  0.00    -0.215 OA
ENDROOT
BRANCH   1   3
ATOM      3  O   UNL     1      33.130 -16.486 -21.330  0.00  0.00    -0.293 OA
ATOM      4  H   UNL     1      32.863 -16.309 -22.245  0.00  0.00    +0.223 HD
ENDBRANCH   1   3
BRANCH   1   5
ATOM      5  O   UNL     1      35.372 -17.497 -20.658  0.00  0.00    -0.259 OA
BRANCH   5   6
ATOM      6  C   UNL     1      35.357 -18.631 -21.507  0.00  0.00    +0.181 C 
BRANCH   6   7
ATOM      7  C   UNL     1      34.938 -19.833 -20.713  0.00  0.00    +0.008 C 
ATOM      8  C   UNL     1      35.904 -20.683 -20.188  0.00  0.00    -0.002 C 
ATOM      9  C   UNL     1      33.585 -20.086 -20.508  0.00  0.00    -0.002 C 
ATOM     10  C   UNL     1      35.515 -21.800 -19.449  0.00  0.00    -0.000 C 
ATOM     11  C   UNL     1      33.196 -21.203 -19.769  0.00  0.00    -0.000 C 
ATOM     12  C   UNL     1      34.160 -22.060 -19.239  0.00  0.00    -0.000 C 
ENDBRANCH   6   7
ENDBRANCH   5   6
ENDBRANCH   1   5
BRANCH   1  13
ATOM     13  O   UNL     1      35.199 -15.893 -22.665  0.00  0.00    -0.402 OA
BRANCH  13  14
ATOM     14  C   UNL     1      34.467 -15.318 -23.661  0.00  0.00    +0.152 C 
ATOM     15  C   UNL     1      34.147 -16.029 -24.817  0.00  0.00    +0.077 C 
ATOM     16  C   UNL     1      34.035 -14.000 -23.511  0.00  0.00    +0.038 C 
ATOM     17  C   UNL     1      33.394 -15.423 -25.823  0.00  0.00    +0.006 C 
ATOM     18  C   UNL     1      33.283 -13.394 -24.517  0.00  0.00    +0.003 C 
ATOM     19  C   UNL     1      32.963 -14.105 -25.673  0.00  0.00    +0.000 C 
BRANCH  15  21
ATOM     20  O   UNL     1      33.888 -18.271 -25.531  0.00  0.00    -0.283 OA
ATOM     21  C   UNL     1      34.586 -17.407 -24.993  0.00  0.00    +0.237 C 
ENDBRANCH  15  21
ENDBRANCH  13  14
ENDBRANCH   1  13
TORSDOF 7
ENDMDL
MODEL 2
REMARK VINA RESULT:      -9.0      1.175      2.160
REMARK  Name = 5289215
REMARK  7 active torsions:
REMARK  status: ('A' for Active; 'I' for Inactive)
REMARK    1  A    between atoms: P_1  and  O_3
REMARK    2  A    between atoms: P_1  and  O_5
REMARK    3  A    between atoms: P_1  and  O_13
REMARK    4  A    between atoms: O_5  and  C_6
REMARK    5  A    between atoms: C_6  and  C_7
REMARK    6  A    between atoms: O_13  and  C_14
REMARK    7  A    between atoms: C_15  and  C_21
REMARK                            x       y       z     vdW  Elec       q    Type
REMARK                         _______ _______ _______ _____ _____    ______ ____
ROOT
ATOM      1  P   UNL     1      34.563 -16.057 -21.146  0.00  0.00    +0.532 P 
ATOM      2  O   UNL     1      34.951 -15.359 -19.874  0.00  0.00    -0.215 OA
ENDROOT
BRANCH   1   3
ATOM      3  O   UNL     1      32.960 -16.143 -21.372  0.00  0.00    -0.293 OA
ATOM      4  H   UNL     1      32.585 -16.807 -20.773  0.00  0.00    +0.223 HD
ENDBRANCH   1   3
BRANCH   1   5
ATOM      5  O   UNL     1      35.053 -17.596 -21.261  0.00  0.00    -0.259 OA
BRANCH   5   6
ATOM      6  C   UNL     1      34.138 -18.608 -21.644  0.00  0.00    +0.181 C 
BRANCH   6   7
ATOM      7  C   UNL     1      34.342 -19.809 -20.768  0.00  0.00    +0.008 C 
ATOM      8  C   UNL     1      35.630 -20.266 -20.516  0.00  0.00    -0.002 C 
ATOM      9  C   UNL     1      33.240 -20.455 -20.217  0.00  0.00    -0.002 C 
ATOM     10  C   UNL     1      35.820 -21.383 -19.702  0.00  0.00    -0.000 C 
ATOM     11  C   UNL     1      33.431 -21.572 -19.403  0.00  0.00    -0.000 C 
ATOM     12  C   UNL     1      34.720 -22.035 -19.145  0.00  0.00    -0.000 C 
ENDBRANCH   6   7
ENDBRANCH   5   6
ENDBRANCH   1   5
BRANCH   1  13
ATOM     13  O   UNL     1      35.080 -15.338 -22.501  0.00  0.00    -0.402 OA
BRANCH  13  14
ATOM     14  C   UNL     1      34.414 -15.332 -23.689  0.00  0.00    +0.152 C 
ATOM     15  C   UNL     1      33.602 -14.256 -24.050  0.00  0.00    +0.077 C 
ATOM     16  C   UNL     1      34.551 -16.421 -24.550  0.00  0.00    +0.038 C 
ATOM     17  C   UNL     1      32.930 -14.269 -25.271  0.00  0.00    +0.006 C 
ATOM     18  C   UNL     1      33.878 -16.433 -25.772  0.00  0.00    +0.003 C 
ATOM     19  C   UNL     1      33.067 -15.357 -26.132  0.00  0.00    +0.000 C 
BRANCH  15  21
ATOM     20  O   UNL     1      32.637 -13.082 -22.236  0.00  0.00    -0.283 OA
ATOM     21  C   UNL     1      33.446 -13.109 -23.167  0.00  0.00    +0.237 C 
ENDBRANCH  15  21
ENDBRANCH  13  14
ENDBRANCH   1  13
TORSDOF 7
ENDMDL
MODEL 3
REMARK VINA RESULT:      -8.9      1.633      2.902
REMARK  Name = 5289215
REMARK  7 active torsions:
REMARK  status: ('A' for Active; 'I' for Inactive)
REMARK    1  A    between atoms: P_1  and  O_3
REMARK    2  A    between atoms: P_1  and  O_5
REMARK    3  A    between atoms: P_1  and  O_13
REMARK    4  A    between atoms: O_5  and  C_6
REMARK    5  A    between atoms: C_6  and  C_7
REMARK    6  A    between atoms: O_13  and  C_14
REMARK    7  A    between atoms: C_15  and  C_21
REMARK                            x       y       z     vdW  Elec       q    Type
REMARK                         _______ _______ _______ _____ _____    ______ ____
ROOT
ATOM      1  P   UNL     1      34.575 -17.007 -24.332  0.00  0.00    +0.532 P 
ATOM      2  O   UNL     1      34.793 -17.673 -25.660  0.00  0.00    -0.215 OA
ENDROOT
BRANCH   1   3
ATOM      3  O   UNL     1      35.859 -16.164 -23.814  0.00  0.00    -0.293 OA
ATOM      4  H   UNL     1      35.751 -15.231 -24.056  0.00  0.00    +0.223 HD
ENDBRANCH   1   3
BRANCH   1   5
ATOM      5  O   UNL     1      34.252 -18.013 -23.106  0.00  0.00    -0.259 OA
BRANCH   5   6
ATOM      6  C   UNL     1      35.233 -18.265 -22.114  0.00  0.00    +0.181 C 
BRANCH   6   7
ATOM      7  C   UNL     1      34.746 -19.360 -21.212  0.00  0.00    +0.008 C 
ATOM      8  C   UNL     1      35.660 -20.230 -20.630  0.00  0.00    -0.002 C 
ATOM      9  C   UNL     1      33.383 -19.495 -20.965  0.00  0.00    -0.002 C 
ATOM     10  C   UNL     1      35.208 -21.249 -19.790  0.00  0.00    -0.000 C 
ATOM     11  C   UNL     1      32.931 -20.513 -20.125  0.00  0.00    -0.000 C 
ATOM     12  C   UNL     1      33.843 -21.389 -19.538  0.00  0.00    -0.000 C 
ENDBRANCH   6   7
ENDBRANCH   5   6
ENDBRANCH   1   5
BRANCH   1  13
ATOM     13  O   UNL     1      33.388 -15.907 -24.310  0.00  0.00    -0.402 OA
BRANCH  13  14
ATOM     14  C   UNL     1      33.430 -14.696 -24.934  0.00  0.00    +0.152 C 
ATOM     15  C   UNL     1      33.587 -13.519 -24.203  0.00  0.00    +0.077 C 
ATOM     16  C   UNL     1      33.313 -14.643 -26.323  0.00  0.00    +0.038 C 
ATOM     17  C   UNL     1      33.628 -12.289 -24.861  0.00  0.00    +0.006 C 
ATOM     18  C   UNL     1      33.355 -13.414 -26.981  0.00  0.00    +0.003 C 
ATOM     19  C   UNL     1      33.511 -12.237 -26.250  0.00  0.00    +0.000 C 
BRANCH  15  21
ATOM     20  O   UNL     1      34.616 -14.155 -22.169  0.00  0.00    -0.283 OA
ATOM     21  C   UNL     1      33.712 -13.550 -22.753  0.00  0.00    +0.237 C 
ENDBRANCH  15  21
ENDBRANCH  13  14
ENDBRANCH   1  13
TORSDOF 7
ENDMDL
MODEL 4
REMARK VINA RESULT:      -8.8      6.636     11.272
REMARK  Name = 5289215
REMARK  7 active torsions:
REMARK  status: ('A' for Active; 'I' for Inactive)
REMARK    1  A    between atoms: P_1  and  O_3
REMARK    2  A    between atoms: P_1  and  O_5
REMARK    3  A    between atoms: P_1  and  O_13
REMARK    4  A    between atoms: O_5  and  C_6
REMARK    5  A    between atoms: C_6  and  C_7
REMARK    6  A    between atoms: O_13  and  C_14
REMARK    7  A    between atoms: C_15  and  C_21
REMARK                            x       y       z     vdW  Elec       q    Type
REMARK                         _______ _______ _______ _____ _____    ______ ____
ROOT
ATOM      1  P   UNL     1      34.275 -23.453 -15.303  0.00  0.00    +0.532 P 
ATOM      2  O   UNL     1      32.875 -23.101 -14.888  0.00  0.00    -0.215 OA
ENDROOT
BRANCH   1   3
ATOM      3  O   UNL     1      35.376 -22.350 -14.860  0.00  0.00    -0.293 OA
ATOM      4  H   UNL     1      35.904 -22.093 -15.632  0.00  0.00    +0.223 HD
ENDBRANCH   1   3
BRANCH   1   5
ATOM      5  O   UNL     1      34.498 -23.604 -16.899  0.00  0.00    -0.259 OA
BRANCH   5   6
ATOM      6  C   UNL     1      33.498 -23.168 -17.803  0.00  0.00    +0.181 C 
BRANCH   6   7
ATOM      7  C   UNL     1      34.091 -22.160 -18.743  0.00  0.00    +0.008 C 
ATOM      8  C   UNL     1      33.255 -21.352 -19.503  0.00  0.00    -0.002 C 
ATOM      9  C   UNL     1      35.474 -22.044 -18.844  0.00  0.00    -0.002 C 
ATOM     10  C   UNL     1      33.807 -20.415 -20.377  0.00  0.00    -0.000 C 
ATOM     11  C   UNL     1      36.025 -21.107 -19.718  0.00  0.00    -0.000 C 
ATOM     12  C   UNL     1      35.192 -20.292 -20.484  0.00  0.00    -0.000 C 
ENDBRANCH   6   7
ENDBRANCH   5   6
ENDBRANCH   1   5
BRANCH   1  13
ATOM     13  O   UNL     1      34.851 -24.820 -14.657  0.00  0.00    -0.402 OA
BRANCH  13  14
ATOM     14  C   UNL     1      36.119 -24.991 -14.185  0.00  0.00    +0.152 C 
ATOM     15  C   UNL     1      36.393 -24.901 -12.821  0.00  0.00    +0.077 C 
ATOM     16  C   UNL     1      37.148 -25.259 -15.087  0.00  0.00    +0.038 C 
ATOM     17  C   UNL     1      37.696 -25.081 -12.358  0.00  0.00    +0.006 C 
ATOM     18  C   UNL     1      38.452 -25.439 -14.624  0.00  0.00    +0.003 C 
ATOM     19  C   UNL     1      38.726 -25.349 -13.260  0.00  0.00    +0.000 C 
BRANCH  15  21
ATOM     20  O   UNL     1      35.325 -25.083 -10.717  0.00  0.00    -0.283 OA
ATOM     21  C   UNL     1      35.333 -24.623 -11.862  0.00  0.00    +0.237 C 
ENDBRANCH  15  21
ENDBRANCH  13  14
ENDBRANCH   1  13
TORSDOF 7
ENDMDL
MODEL 5
REMARK VINA RESULT:      -8.8      3.330      7.961
REMARK  Name = 5289215
REMARK  7 active torsions:
REMARK  status: ('A' for Active; 'I' for Inactive)
REMARK    1  A    between atoms: P_1  and  O_3
REMARK    2  A    between atoms: P_1  and  O_5
REMARK    3  A    between atoms: P_1  and  O_13
REMARK    4  A    between atoms: O_5  and  C_6
REMARK    5  A    between atoms: C_6  and  C_7
REMARK    6  A    between atoms: O_13  and  C_14
REMARK    7  A    between atoms: C_15  and  C_21
REMARK                            x       y       z     vdW  Elec       q    Type
REMARK                         _______ _______ _______ _____ _____    ______ ____
ROOT
ATOM      1  P   UNL     1      33.342 -13.966 -23.902  0.00  0.00    +0.532 P 
ATOM      2  O   UNL     1      32.734 -14.149 -25.263  0.00  0.00    -0.215 OA
ENDROOT
BRANCH   1   3
ATOM      3  O   UNL     1      32.342 -14.360 -22.690  0.00  0.00    -0.293 OA
ATOM      4  H   UNL     1      32.847 -14.426 -21.864  0.00  0.00    +0.223 HD
ENDBRANCH   1   3
BRANCH   1   5
ATOM      5  O   UNL     1      33.796 -12.452 -23.553  0.00  0.00    -0.259 OA
BRANCH   5   6
ATOM      6  C   UNL     1      33.859 -11.473 -24.576  0.00  0.00    +0.181 C 
BRANCH   6   7
ATOM      7  C   UNL     1      33.836 -10.109 -23.951  0.00  0.00    +0.008 C 
ATOM      8  C   UNL     1      34.852  -9.205 -24.234  0.00  0.00    -0.002 C 
ATOM      9  C   UNL     1      32.796  -9.762 -23.094  0.00  0.00    -0.002 C 
ATOM     10  C   UNL     1      34.831  -7.937 -23.653  0.00  0.00    -0.000 C 
ATOM     11  C   UNL     1      32.775  -8.494 -22.513  0.00  0.00    -0.000 C 
ATOM     12  C   UNL     1      33.791  -7.581 -22.793  0.00  0.00    -0.000 C 
ENDBRANCH   6   7
ENDBRANCH   5   6
ENDBRANCH   1   5
BRANCH   1  13
ATOM     13  O   UNL     1      34.643 -14.883 -23.611  0.00  0.00    -0.402 OA
BRANCH  13  14
ATOM     14  C   UNL     1      34.665 -16.245 -23.640  0.00  0.00    +0.152 C 
ATOM     15  C   UNL     1      34.767 -16.985 -22.462  0.00  0.00    +0.077 C 
ATOM     16  C   UNL     1      34.584 -16.899 -24.869  0.00  0.00    +0.038 C 
ATOM     17  C   UNL     1      34.786 -18.379 -22.514  0.00  0.00    +0.006 C 
ATOM     18  C   UNL     1      34.603 -18.293 -24.921  0.00  0.00    +0.003 C 
ATOM     19  C   UNL     1      34.705 -19.033 -23.743  0.00  0.00    +0.000 C 
BRANCH  15  21
ATOM     20  O   UNL     1      33.874 -15.825 -20.603  0.00  0.00    -0.283 OA
ATOM     21  C   UNL     1      34.851 -16.323 -21.168  0.00  0.00    +0.237 C 
ENDBRANCH  15  21
ENDBRANCH  13  14
ENDBRANCH   1  13
TORSDOF 7
ENDMDL
MODEL 6
REMARK VINA RESULT:      -8.8      1.830      2.684
REMARK  Name = 5289215
REMARK  7 active torsions:
REMARK  status: ('A' for Active; 'I' for Inactive)
REMARK    1  A    between atoms: P_1  and  O_3
REMARK    2  A    between atoms: P_1  and  O_5
REMARK    3  A    between atoms: P_1  and  O_13
REMARK    4  A    between atoms: O_5  and  C_6
REMARK    5  A    between atoms: C_6  and  C_7
REMARK    6  A    between atoms: O_13  and  C_14
REMARK    7  A    between atoms: C_15  and  C_21
REMARK                            x       y       z     vdW  Elec       q    Type
REMARK                         _______ _______ _______ _____ _____    ______ ____
ROOT
ATOM      1  P   UNL     1      35.289 -17.774 -22.912  0.00  0.00    +0.532 P 
ATOM      2  O   UNL     1      34.546 -18.331 -24.092  0.00  0.00    -0.215 OA
ENDROOT
BRANCH   1   3
ATOM      3  O   UNL     1      36.849 -18.210 -22.867  0.00  0.00    -0.293 OA
ATOM      4  H   UNL     1      37.386 -17.457 -22.573  0.00  0.00    +0.223 HD
ENDBRANCH   1   3
BRANCH   1   5
ATOM      5  O   UNL     1      34.719 -18.227 -21.466  0.00  0.00    -0.259 OA
BRANCH   5   6
ATOM      6  C   UNL     1      33.680 -19.187 -21.379  0.00  0.00    +0.181 C 
BRANCH   6   7
ATOM      7  C   UNL     1      34.101 -20.282 -20.444  0.00  0.00    +0.008 C 
ATOM      8  C   UNL     1      35.453 -20.528 -20.236  0.00  0.00    -0.002 C 
ATOM      9  C   UNL     1      33.135 -21.042 -19.794  0.00  0.00    -0.002 C 
ATOM     10  C   UNL     1      35.845 -21.546 -19.367  0.00  0.00    -0.000 C 
ATOM     11  C   UNL     1      33.527 -22.060 -18.925  0.00  0.00    -0.000 C 
ATOM     12  C   UNL     1      34.882 -22.312 -18.711  0.00  0.00    -0.000 C 
ENDBRANCH   6   7
ENDBRANCH   5   6
ENDBRANCH   1   5
BRANCH   1  13
ATOM     13  O   UNL     1      35.363 -16.158 -22.857  0.00  0.00    -0.402 OA
BRANCH  13  14
ATOM     14  C   UNL     1      34.363 -15.341 -22.421  0.00  0.00    +0.152 C 
ATOM     15  C   UNL     1      33.498 -14.724 -23.324  0.00  0.00    +0.077 C 
ATOM     16  C   UNL     1      34.211 -15.126 -21.051  0.00  0.00    +0.038 C 
ATOM     17  C   UNL     1      32.479 -13.893 -22.857  0.00  0.00    +0.006 C 
ATOM     18  C   UNL     1      33.193 -14.295 -20.584  0.00  0.00    +0.003 C 
ATOM     19  C   UNL     1      32.327 -13.678 -21.487  0.00  0.00    +0.000 C 
BRANCH  15  21
ATOM     20  O   UNL     1      32.810 -14.534 -25.580  0.00  0.00    -0.283 OA
ATOM     21  C   UNL     1      33.637 -14.936 -24.758  0.00  0.00    +0.237 C 
ENDBRANCH  15  21
ENDBRANCH  13  14
ENDBRANCH   1  13
TORSDOF 7
ENDMDL
MODEL 7
REMARK VINA RESULT:      -8.7      1.614      7.079
REMARK  Name = 5289215
REMARK  7 active torsions:
REMARK  status: ('A' for Active; 'I' for Inactive)
REMARK    1  A    between atoms: P_1  and  O_3
REMARK    2  A    between atoms: P_1  and  O_5
REMARK    3  A    between atoms: P_1  and  O_13
REMARK    4  A    between atoms: O_5  and  C_6
REMARK    5  A    between atoms: C_6  and  C_7
REMARK    6  A    between atoms: O_13  and  C_14
REMARK    7  A    between atoms: C_15  and  C_21
REMARK                            x       y       z     vdW  Elec       q    Type
REMARK                         _______ _______ _______ _____ _____    ______ ____
ROOT
ATOM      1  P   UNL     1      34.560 -16.342 -22.060  0.00  0.00    +0.532 P 
ATOM      2  O   UNL     1      34.962 -15.813 -20.713  0.00  0.00    -0.215 OA
ENDROOT
BRANCH   1   3
ATOM      3  O   UNL     1      35.683 -16.113 -23.205  0.00  0.00    -0.293 OA
ATOM      4  H   UNL     1      36.438 -15.635 -22.826  0.00  0.00    +0.223 HD
ENDBRANCH   1   3
BRANCH   1   5
ATOM      5  O   UNL     1      33.226 -15.674 -22.688  0.00  0.00    -0.259 OA
BRANCH   5   6
ATOM      6  C   UNL     1      33.029 -14.273 -22.615  0.00  0.00    +0.181 C 
BRANCH   6   7
ATOM      7  C   UNL     1      33.224 -13.679 -23.979  0.00  0.00    +0.008 C 
ATOM      8  C   UNL     1      33.729 -12.390 -24.103  0.00  0.00    -0.002 C 
ATOM      9  C   UNL     1      32.897 -14.424 -25.107  0.00  0.00    -0.002 C 
ATOM     10  C   UNL     1      33.911 -11.838 -25.371  0.00  0.00    -0.000 C 
ATOM     11  C   UNL     1      33.079 -13.871 -26.375  0.00  0.00    -0.000 C 
ATOM     12  C   UNL     1      33.586 -12.579 -26.507  0.00  0.00    -0.000 C 
ENDBRANCH   6   7
ENDBRANCH   5   6
ENDBRANCH   1   5
BRANCH   1  13
ATOM     13  O   UNL     1      34.308 -17.940 -22.115  0.00  0.00    -0.402 OA
BRANCH  13  14
ATOM     14  C   UNL     1      34.994 -18.867 -21.389  0.00  0.00    +0.152 C 
ATOM     15  C   UNL     1      34.323 -19.889 -20.717  0.00  0.00    +0.077 C 
ATOM     16  C   UNL     1      36.385 -18.785 -21.323  0.00  0.00    +0.038 C 
ATOM     17  C   UNL     1      35.044 -20.830 -19.981  0.00  0.00    +0.006 C 
ATOM     18  C   UNL     1      37.105 -19.726 -20.587  0.00  0.00    +0.003 C 
ATOM     19  C   UNL     1      36.435 -20.748 -19.916  0.00  0.00    +0.000 C 
BRANCH  15  21
ATOM     20  O   UNL     1      32.175 -20.215 -19.780  0.00  0.00    -0.283 OA
ATOM     21  C   UNL     1      32.872 -19.995 -20.774  0.00  0.00    +0.237 C 
ENDBRANCH  15  21
ENDBRANCH  13  14
ENDBRANCH   1  13
TORSDOF 7
ENDMDL
MODEL 8
REMARK VINA RESULT:      -8.6      3.309      7.902
REMARK  Name = 5289215
REMARK  7 active torsions:
REMARK  status: ('A' for Active; 'I' for Inactive)
REMARK    1  A    between atoms: P_1  and  O_3
REMARK    2  A    between atoms: P_1  and  O_5
REMARK    3  A    between atoms: P_1  and  O_13
REMARK    4  A    between atoms: O_5  and  C_6
REMARK    5  A    between atoms: C_6  and  C_7
REMARK    6  A    between atoms: O_13  and  C_14
REMARK    7  A    between atoms: C_15  and  C_21
REMARK                            x       y       z     vdW  Elec       q    Type
REMARK                         _______ _______ _______ _____ _____    ______ ____
ROOT
ATOM      1  P   UNL     1      33.406 -13.933 -23.760  0.00  0.00    +0.532 P 
ATOM      2  O   UNL     1      32.760 -14.159 -25.096  0.00  0.00    -0.215 OA
ENDROOT
BRANCH   1   3
ATOM      3  O   UNL     1      32.472 -14.366 -22.509  0.00  0.00    -0.293 OA
ATOM      4  H   UNL     1      33.017 -14.442 -21.710  0.00  0.00    +0.223 HD
ENDBRANCH   1   3
BRANCH   1   5
ATOM      5  O   UNL     1      33.794 -12.394 -23.438  0.00  0.00    -0.259 OA
BRANCH   5   6
ATOM      6  C   UNL     1      33.887 -11.449 -24.489  0.00  0.00    +0.181 C 
BRANCH   6   7
ATOM      7  C   UNL     1      33.855 -10.066 -23.909  0.00  0.00    +0.008 C 
ATOM      8  C   UNL     1      32.816  -9.698 -23.062  0.00  0.00    -0.002 C 
ATOM      9  C   UNL     1      34.866  -9.163 -24.222  0.00  0.00    -0.002 C 
ATOM     10  C   UNL     1      32.785  -8.413 -22.522  0.00  0.00    -0.000 C 
ATOM     11  C   UNL     1      34.835  -7.877 -23.682  0.00  0.00    -0.000 C 
ATOM     12  C   UNL     1      33.795  -7.502 -22.832  0.00  0.00    -0.000 C 
ENDBRANCH   6   7
ENDBRANCH   5   6
ENDBRANCH   1   5
BRANCH   1  13
ATOM     13  O   UNL     1      34.763 -14.780 -23.509  0.00  0.00    -0.402 OA
BRANCH  13  14
ATOM     14  C   UNL     1      34.818 -16.031 -22.971  0.00  0.00    +0.152 C 
ATOM     15  C   UNL     1      34.835 -17.161 -23.787  0.00  0.00    +0.077 C 
ATOM     16  C   UNL     1      34.857 -16.172 -21.584  0.00  0.00    +0.038 C 
ATOM     17  C   UNL     1      34.893 -18.433 -23.217  0.00  0.00    +0.006 C 
ATOM     18  C   UNL     1      34.915 -17.443 -21.013  0.00  0.00    +0.003 C 
ATOM     19  C   UNL     1      34.933 -18.574 -21.830  0.00  0.00    +0.000 C 
BRANCH  15  21
ATOM     20  O   UNL     1      33.763 -17.174 -25.897  0.00  0.00    -0.283 OA
ATOM     21  C   UNL     1      34.797 -17.037 -25.238  0.00  0.00    +0.237 C 
ENDBRANCH  15  21
ENDBRANCH  13  14
ENDBRANCH   1  13
TORSDOF 7
ENDMDL
MODEL 9
REMARK VINA RESULT:      -8.6      2.055      3.285
REMARK  Name = 5289215
REMARK  7 active torsions:
REMARK  status: ('A' for Active; 'I' for Inactive)
REMARK    1  A    between atoms: P_1  and  O_3
REMARK    2  A    between atoms: P_1  and  O_5
REMARK    3  A    between atoms: P_1  and  O_13
REMARK    4  A    between atoms: O_5  and  C_6
REMARK    5  A    between atoms: C_6  and  C_7
REMARK    6  A    between atoms: O_13  and  C_14
REMARK    7  A    between atoms: C_15  and  C_21
REMARK                            x       y       z     vdW  Elec       q    Type
REMARK                         _______ _______ _______ _____ _____    ______ ____
ROOT
ATOM      1  P   UNL     1      34.785 -16.828 -24.247  0.00  0.00    +0.532 P 
ATOM      2  O   UNL     1      35.093 -16.993 -25.708  0.00  0.00    -0.215 OA
ENDROOT
BRANCH   1   3
ATOM      3  O   UNL     1      35.863 -15.910 -23.459  0.00  0.00    -0.293 OA
ATOM      4  H   UNL     1      36.636 -16.448 -23.227  0.00  0.00    +0.223 HD
ENDBRANCH   1   3
BRANCH   1   5
ATOM      5  O   UNL     1      34.751 -18.204 -23.394  0.00  0.00    -0.259 OA
BRANCH   5   6
ATOM      6  C   UNL     1      35.519 -18.326 -22.210  0.00  0.00    +0.181 C 
BRANCH   6   7
ATOM      7  C   UNL     1      34.874 -19.339 -21.310  0.00  0.00    +0.008 C 
ATOM      8  C   UNL     1      35.664 -20.262 -20.635  0.00  0.00    -0.002 C 
ATOM      9  C   UNL     1      33.491 -19.346 -21.160  0.00  0.00    -0.002 C 
ATOM     10  C   UNL     1      35.065 -21.204 -19.799  0.00  0.00    -0.000 C 
ATOM     11  C   UNL     1      32.892 -20.288 -20.324  0.00  0.00    -0.000 C 
ATOM     12  C   UNL     1      33.679 -21.217 -19.643  0.00  0.00    -0.000 C 
ENDBRANCH   6   7
ENDBRANCH   5   6
ENDBRANCH   1   5
BRANCH   1  13
ATOM     13  O   UNL     1      33.380 -16.090 -23.928  0.00  0.00    -0.402 OA
BRANCH  13  14
ATOM     14  C   UNL     1      33.160 -15.239 -22.887  0.00  0.00    +0.152 C 
ATOM     15  C   UNL     1      33.087 -13.861 -23.092  0.00  0.00    +0.077 C 
ATOM     16  C   UNL     1      33.008 -15.761 -21.603  0.00  0.00    +0.038 C 
ATOM     17  C   UNL     1      32.859 -13.007 -22.014  0.00  0.00    +0.006 C 
ATOM     18  C   UNL     1      32.780 -14.907 -20.524  0.00  0.00    +0.003 C 
ATOM     19  C   UNL     1      32.707 -13.529 -20.730  0.00  0.00    +0.000 C 
BRANCH  15  21
ATOM     20  O   UNL     1      33.678 -12.157 -24.625  0.00  0.00    -0.283 OA
ATOM     21  C   UNL     1      33.242 -13.294 -24.425  0.00  0.00    +0.237 C 
ENDBRANCH  15  21
ENDBRANCH  13  14
ENDBRANCH   1  13
TORSDOF 7
ENDMDL
