MODEL 1
REMARK VINA RESULT:      -9.5      0.000      0.000
REMARK  Name = 4477692
REMARK  10 active torsions:
REMARK  status: ('A' for Active; 'I' for Inactive)
REMARK    1  A    between atoms: N_2  and  C_7
REMARK    2  A    between atoms: C_4  and  C_19
REMARK    3  A    between atoms: C_7  and  C_11
REMARK    4  A    between atoms: C_19  and  C_20
REMARK    5  A    between atoms: C_20  and  O_21
REMARK    6  A    between atoms: O_21  and  P_22
REMARK    7  A    between atoms: P_22  and  O_24
REMARK    8  A    between atoms: P_22  and  O_26
REMARK    9  A    between atoms: O_26  and  P_27
REMARK   10  A    between atoms: P_27  and  O_30
REMARK                            x       y       z     vdW  Elec       q    Type
REMARK                         _______ _______ _______ _____ _____    ______ ____
ROOT
ATOM      1  S   UNL     1      32.941 -20.290 -20.488  0.00  0.00    -0.095 S 
ATOM      2  N   UNL     1      34.832 -18.703 -20.923  0.00  0.00    -0.300 N 
ATOM      3  C   UNL     1      35.445 -19.851 -20.471  0.00  0.00    +0.028 C 
ATOM      4  C   UNL     1      34.535 -20.812 -20.189  0.00  0.00    +0.016 C 
ATOM      5  C   UNL     1      33.520 -18.762 -20.993  0.00  0.00    +0.154 C 
ATOM      6  C   UNL     1      36.910 -19.864 -20.363  0.00  0.00    +0.047 C 
ENDROOT
BRANCH   2   7
ATOM      7  C   UNL     1      35.552 -17.511 -21.300  0.00  0.00    +0.106 C 
BRANCH   7  11
ATOM      8  N   UNL     1      33.631 -15.177 -23.547  0.00  0.00    -0.352 NA
ATOM      9  N   UNL     1      34.510 -16.977 -24.887  0.00  0.00    -0.333 NA
ATOM     10  N   UNL     1      35.797 -18.695 -23.883  0.00  0.00    -0.335 N 
ATOM     11  C   UNL     1      34.930 -16.911 -22.532  0.00  0.00    +0.136 C 
ATOM     12  C   UNL     1      34.205 -15.749 -22.468  0.00  0.00    +0.108 C 
ATOM     13  C   UNL     1      35.057 -17.493 -23.767  0.00  0.00    +0.174 C 
ATOM     14  C   UNL     1      34.006 -15.035 -21.171  0.00  0.00    +0.063 C 
ATOM     15  C   UNL     1      33.820 -15.833 -24.707  0.00  0.00    +0.115 C 
ATOM     16  C   UNL     1      33.201 -15.232 -25.922  0.00  0.00    +0.143 C 
ATOM     17  H   UNL     1      35.898 -19.128 -24.763  0.00  0.00    +0.144 HD
ATOM     18  H   UNL     1      36.209 -19.099 -23.086  0.00  0.00    +0.144 HD
ENDBRANCH   7  11
ENDBRANCH   2   7
BRANCH   4  19
ATOM     19  C   UNL     1      34.766 -22.212 -19.673  0.00  0.00    +0.066 C 
BRANCH  19  20
ATOM     20  C   UNL     1      33.990 -22.484 -18.387  0.00  0.00    +0.159 C 
BRANCH  20  21
ATOM     21  O   UNL     1      34.859 -22.927 -17.358  0.00  0.00    -0.273 OA
BRANCH  21  22
ATOM     22  P   UNL     1      34.253 -23.386 -15.930  0.00  0.00    +0.484 P 
ATOM     23  O   UNL     1      32.761 -23.265 -15.811  0.00  0.00    -0.227 OA
BRANCH  22  24
ATOM     24  O   UNL     1      35.082 -22.520 -14.843  0.00  0.00    -0.302 OA
ATOM     25  H   UNL     1      35.244 -23.062 -14.055  0.00  0.00    +0.222 HD
ENDBRANCH  22  24
BRANCH  22  26
ATOM     26  O   UNL     1      34.813 -24.888 -15.714  0.00  0.00    -0.185 OA
BRANCH  26  27
ATOM     27  P   UNL     1      36.212 -25.411 -15.058  0.00  0.00    +0.511 P 
ATOM     28  O   UNL     1      36.545 -26.774 -15.624  0.00  0.00    -0.225 OA
ATOM     29  O   UNL     1      36.169 -25.183 -13.564  0.00  0.00    -0.116 OA
BRANCH  27  30
ATOM     30  O   UNL     1      37.222 -24.313 -15.722  0.00  0.00    -0.301 OA
ATOM     31  H   UNL     1      38.050 -24.289 -15.217  0.00  0.00    +0.222 HD
ENDBRANCH  27  30
ENDBRANCH  26  27
ENDBRANCH  22  26
ENDBRANCH  21  22
ENDBRANCH  20  21
ENDBRANCH  19  20
ENDBRANCH   4  19
TORSDOF 10
ENDMDL
MODEL 2
REMARK VINA RESULT:      -9.4      2.682      4.390
REMARK  Name = 4477692
REMARK  10 active torsions:
REMARK  status: ('A' for Active; 'I' for Inactive)
REMARK    1  A    between atoms: N_2  and  C_7
REMARK    2  A    between atoms: C_4  and  C_19
REMARK    3  A    between atoms: C_7  and  C_11
REMARK    4  A    between atoms: C_19  and  C_20
REMARK    5  A    between atoms: C_20  and  O_21
REMARK    6  A    between atoms: O_21  and  P_22
REMARK    7  A    between atoms: P_22  and  O_24
REMARK    8  A    between atoms: P_22  and  O_26
REMARK    9  A    between atoms: O_26  and  P_27
REMARK   10  A    between atoms: P_27  and  O_30
REMARK                            x       y       z     vdW  Elec       q    Type
REMARK                         _______ _______ _______ _____ _____    ______ ____
ROOT
ATOM      1  S   UNL     1      36.970 -21.654 -16.665  0.00  0.00    -0.095 S 
ATOM      2  N   UNL     1      35.723 -21.857 -18.831  0.00  0.00    -0.300 N 
ATOM      3  C   UNL     1      34.933 -22.519 -17.917  0.00  0.00    +0.028 C 
ATOM      4  C   UNL     1      35.487 -22.492 -16.683  0.00  0.00    +0.016 C 
ATOM      5  C   UNL     1      36.830 -21.343 -18.341  0.00  0.00    +0.154 C 
ATOM      6  C   UNL     1      33.678 -23.122 -18.387  0.00  0.00    +0.047 C 
ENDROOT
BRANCH   2   7
ATOM      7  C   UNL     1      35.385 -21.723 -20.227  0.00  0.00    +0.106 C 
BRANCH   7  11
ATOM      8  N   UNL     1      35.559 -18.046 -21.029  0.00  0.00    -0.352 NA
ATOM      9  N   UNL     1      33.243 -18.666 -20.786  0.00  0.00    -0.333 NA
ATOM     10  N   UNL     1      32.653 -20.904 -20.275  0.00  0.00    -0.335 N 
ATOM     11  C   UNL     1      34.965 -20.306 -20.513  0.00  0.00    +0.136 C 
ATOM     12  C   UNL     1      35.892 -19.328 -20.768  0.00  0.00    +0.108 C 
ATOM     13  C   UNL     1      33.646 -19.928 -20.532  0.00  0.00    +0.174 C 
ATOM     14  C   UNL     1      37.354 -19.634 -20.771  0.00  0.00    +0.063 C 
ATOM     15  C   UNL     1      34.238 -17.789 -21.023  0.00  0.00    +0.115 C 
ATOM     16  C   UNL     1      33.832 -16.383 -21.307  0.00  0.00    +0.143 C 
ATOM     17  H   UNL     1      31.700 -20.651 -20.284  0.00  0.00    +0.144 HD
ATOM     18  H   UNL     1      32.912 -21.834 -20.086  0.00  0.00    +0.144 HD
ENDBRANCH   7  11
ENDBRANCH   2   7
BRANCH   4  19
ATOM     19  C   UNL     1      34.964 -23.089 -15.397  0.00  0.00    +0.066 C 
BRANCH  19  20
ATOM     20  C   UNL     1      36.052 -23.832 -14.627  0.00  0.00    +0.159 C 
BRANCH  20  21
ATOM     21  O   UNL     1      36.743 -24.735 -15.474  0.00  0.00    -0.273 OA
BRANCH  21  22
ATOM     22  P   UNL     1      36.972 -26.267 -15.008  0.00  0.00    +0.484 P 
ATOM     23  O   UNL     1      36.300 -27.295 -15.871  0.00  0.00    -0.227 OA
BRANCH  22  24
ATOM     24  O   UNL     1      36.510 -26.290 -13.458  0.00  0.00    -0.302 OA
ATOM     25  H   UNL     1      35.698 -25.770 -13.355  0.00  0.00    +0.222 HD
ENDBRANCH  22  24
BRANCH  22  26
ATOM     26  O   UNL     1      38.579 -26.428 -14.918  0.00  0.00    -0.185 OA
BRANCH  26  27
ATOM     27  P   UNL     1      39.721 -25.383 -14.403  0.00  0.00    +0.511 P 
ATOM     28  O   UNL     1      41.080 -26.037 -14.520  0.00  0.00    -0.225 OA
ATOM     29  O   UNL     1      39.267 -24.766 -13.098  0.00  0.00    -0.116 OA
BRANCH  27  30
ATOM     30  O   UNL     1      39.580 -24.263 -15.583  0.00  0.00    -0.301 OA
ATOM     31  H   UNL     1      38.735 -24.383 -16.043  0.00  0.00    +0.222 HD
ENDBRANCH  27  30
ENDBRANCH  26  27
ENDBRANCH  22  26
ENDBRANCH  21  22
ENDBRANCH  20  21
ENDBRANCH  19  20
ENDBRANCH   4  19
TORSDOF 10
ENDMDL
MODEL 3
REMARK VINA RESULT:      -9.3      2.654      4.253
REMARK  Name = 4477692
REMARK  10 active torsions:
REMARK  status: ('A' for Active; 'I' for Inactive)
REMARK    1  A    between atoms: N_2  and  C_7
REMARK    2  A    between atoms: C_4  and  C_19
REMARK    3  A    between atoms: C_7  and  C_11
REMARK    4  A    between atoms: C_19  and  C_20
REMARK    5  A    between atoms: C_20  and  O_21
REMARK    6  A    between atoms: O_21  and  P_22
REMARK    7  A    between atoms: P_22  and  O_24
REMARK    8  A    between atoms: P_22  and  O_26
REMARK    9  A    between atoms: O_26  and  P_27
REMARK   10  A    between atoms: P_27  and  O_30
REMARK                            x       y       z     vdW  Elec       q    Type
REMARK                         _______ _______ _______ _____ _____    ______ ____
ROOT
ATOM      1  S   UNL     1      36.968 -21.645 -16.674  0.00  0.00    -0.095 S 
ATOM      2  N   UNL     1      35.818 -21.793 -18.896  0.00  0.00    -0.300 N 
ATOM      3  C   UNL     1      34.986 -22.471 -18.034  0.00  0.00    +0.028 C 
ATOM      4  C   UNL     1      35.485 -22.476 -16.776  0.00  0.00    +0.016 C 
ATOM      5  C   UNL     1      36.905 -21.296 -18.347  0.00  0.00    +0.154 C 
ATOM      6  C   UNL     1      33.750 -23.058 -18.573  0.00  0.00    +0.047 C 
ENDROOT
BRANCH   2   7
ATOM      7  C   UNL     1      35.543 -21.626 -20.303  0.00  0.00    +0.106 C 
BRANCH   7  11
ATOM      8  N   UNL     1      33.587 -18.459 -20.880  0.00  0.00    -0.352 NA
ATOM      9  N   UNL     1      35.935 -17.953 -21.074  0.00  0.00    -0.333 NA
ATOM     10  N   UNL     1      37.553 -19.660 -20.785  0.00  0.00    -0.335 N 
ATOM     11  C   UNL     1      35.219 -20.184 -20.588  0.00  0.00    +0.136 C 
ATOM     12  C   UNL     1      33.922 -19.742 -20.629  0.00  0.00    +0.108 C 
ATOM     13  C   UNL     1      36.198 -19.251 -20.817  0.00  0.00    +0.174 C 
ATOM     14  C   UNL     1      32.782 -20.677 -20.393  0.00  0.00    +0.063 C 
ATOM     15  C   UNL     1      34.627 -17.630 -21.090  0.00  0.00    +0.115 C 
ATOM     16  C   UNL     1      34.296 -16.204 -21.371  0.00  0.00    +0.143 C 
ATOM     17  H   UNL     1      38.270 -19.003 -20.947  0.00  0.00    +0.144 HD
ATOM     18  H   UNL     1      37.780 -20.600 -20.601  0.00  0.00    +0.144 HD
ENDBRANCH   7  11
ENDBRANCH   2   7
BRANCH   4  19
ATOM     19  C   UNL     1      34.903 -23.099 -15.529  0.00  0.00    +0.066 C 
BRANCH  19  20
ATOM     20  C   UNL     1      35.963 -23.820 -14.701  0.00  0.00    +0.159 C 
BRANCH  20  21
ATOM     21  O   UNL     1      36.714 -24.710 -15.509  0.00  0.00    -0.273 OA
BRANCH  21  22
ATOM     22  P   UNL     1      36.955 -26.235 -15.025  0.00  0.00    +0.484 P 
ATOM     23  O   UNL     1      36.280 -27.277 -15.869  0.00  0.00    -0.227 OA
BRANCH  22  24
ATOM     24  O   UNL     1      36.504 -26.240 -13.471  0.00  0.00    -0.302 OA
ATOM     25  H   UNL     1      35.631 -25.825 -13.386  0.00  0.00    +0.222 HD
ENDBRANCH  22  24
BRANCH  22  26
ATOM     26  O   UNL     1      38.563 -26.388 -14.945  0.00  0.00    -0.185 OA
BRANCH  26  27
ATOM     27  P   UNL     1      39.702 -25.339 -14.429  0.00  0.00    +0.511 P 
ATOM     28  O   UNL     1      41.064 -25.985 -14.558  0.00  0.00    -0.225 OA
ATOM     29  O   UNL     1      39.252 -24.734 -13.118  0.00  0.00    -0.116 OA
BRANCH  27  30
ATOM     30  O   UNL     1      39.548 -24.213 -15.600  0.00  0.00    -0.301 OA
ATOM     31  H   UNL     1      39.363 -23.351 -15.197  0.00  0.00    +0.222 HD
ENDBRANCH  27  30
ENDBRANCH  26  27
ENDBRANCH  22  26
ENDBRANCH  21  22
ENDBRANCH  20  21
ENDBRANCH  19  20
ENDBRANCH   4  19
TORSDOF 10
ENDMDL
MODEL 4
REMARK VINA RESULT:      -9.3      0.927      1.726
REMARK  Name = 4477692
REMARK  10 active torsions:
REMARK  status: ('A' for Active; 'I' for Inactive)
REMARK    1  A    between atoms: N_2  and  C_7
REMARK    2  A    between atoms: C_4  and  C_19
REMARK    3  A    between atoms: C_7  and  C_11
REMARK    4  A    between atoms: C_19  and  C_20
REMARK    5  A    between atoms: C_20  and  O_21
REMARK    6  A    between atoms: O_21  and  P_22
REMARK    7  A    between atoms: P_22  and  O_24
REMARK    8  A    between atoms: P_22  and  O_26
REMARK    9  A    between atoms: O_26  and  P_27
REMARK   10  A    between atoms: P_27  and  O_30
REMARK                            x       y       z     vdW  Elec       q    Type
REMARK                         _______ _______ _______ _____ _____    ______ ____
ROOT
ATOM      1  S   UNL     1      32.713 -20.383 -20.301  0.00  0.00    -0.095 S 
ATOM      2  N   UNL     1      34.889 -19.275 -20.870  0.00  0.00    -0.300 N 
ATOM      3  C   UNL     1      35.254 -20.439 -20.230  0.00  0.00    +0.028 C 
ATOM      4  C   UNL     1      34.167 -21.153 -19.857  0.00  0.00    +0.016 C 
ATOM      5  C   UNL     1      33.592 -19.088 -20.991  0.00  0.00    +0.154 C 
ATOM      6  C   UNL     1      36.686 -20.718 -20.054  0.00  0.00    +0.047 C 
ENDROOT
BRANCH   2   7
ATOM      7  C   UNL     1      35.837 -18.313 -21.379  0.00  0.00    +0.106 C 
BRANCH   7  11
ATOM      8  N   UNL     1      34.289 -16.816 -24.469  0.00  0.00    -0.352 NA
ATOM      9  N   UNL     1      34.060 -15.241 -22.659  0.00  0.00    -0.333 NA
ATOM     10  N   UNL     1      34.899 -15.765 -20.505  0.00  0.00    -0.335 N 
ATOM     11  C   UNL     1      35.137 -17.347 -22.295  0.00  0.00    +0.136 C 
ATOM     12  C   UNL     1      34.913 -17.652 -23.613  0.00  0.00    +0.108 C 
ATOM     13  C   UNL     1      34.691 -16.125 -21.859  0.00  0.00    +0.174 C 
ATOM     14  C   UNL     1      35.359 -18.957 -24.188  0.00  0.00    +0.063 C 
ATOM     15  C   UNL     1      33.894 -15.645 -23.933  0.00  0.00    +0.115 C 
ATOM     16  C   UNL     1      33.201 -14.694 -24.849  0.00  0.00    +0.143 C 
ATOM     17  H   UNL     1      34.586 -14.891 -20.175  0.00  0.00    +0.144 HD
ATOM     18  H   UNL     1      35.356 -16.387 -19.895  0.00  0.00    +0.144 HD
ENDBRANCH   7  11
ENDBRANCH   2   7
BRANCH   4  19
ATOM     19  C   UNL     1      34.107 -22.478 -19.136  0.00  0.00    +0.066 C 
BRANCH  19  20
ATOM     20  C   UNL     1      34.751 -22.408 -17.754  0.00  0.00    +0.159 C 
BRANCH  20  21
ATOM     21  O   UNL     1      34.525 -23.606 -17.031  0.00  0.00    -0.273 OA
BRANCH  21  22
ATOM     22  P   UNL     1      34.149 -23.543 -15.459  0.00  0.00    +0.484 P 
ATOM     23  O   UNL     1      32.690 -23.333 -15.169  0.00  0.00    -0.227 OA
BRANCH  22  24
ATOM     24  O   UNL     1      35.121 -22.399 -14.857  0.00  0.00    -0.302 OA
ATOM     25  H   UNL     1      34.635 -21.562 -14.794  0.00  0.00    +0.222 HD
ENDBRANCH  22  24
BRANCH  22  26
ATOM     26  O   UNL     1      34.755 -24.909 -14.841  0.00  0.00    -0.185 OA
BRANCH  26  27
ATOM     27  P   UNL     1      36.256 -25.540 -14.937  0.00  0.00    +0.511 P 
ATOM     28  O   UNL     1      36.231 -26.743 -15.854  0.00  0.00    -0.225 OA
ATOM     29  O   UNL     1      36.836 -25.640 -13.543  0.00  0.00    -0.116 OA
BRANCH  27  30
ATOM     30  O   UNL     1      36.991 -24.308 -15.717  0.00  0.00    -0.301 OA
ATOM     31  H   UNL     1      37.866 -24.154 -15.326  0.00  0.00    +0.222 HD
ENDBRANCH  27  30
ENDBRANCH  26  27
ENDBRANCH  22  26
ENDBRANCH  21  22
ENDBRANCH  20  21
ENDBRANCH  19  20
ENDBRANCH   4  19
TORSDOF 10
ENDMDL
MODEL 5
REMARK VINA RESULT:      -9.2      2.767      4.442
REMARK  Name = 4477692
REMARK  10 active torsions:
REMARK  status: ('A' for Active; 'I' for Inactive)
REMARK    1  A    between atoms: N_2  and  C_7
REMARK    2  A    between atoms: C_4  and  C_19
REMARK    3  A    between atoms: C_7  and  C_11
REMARK    4  A    between atoms: C_19  and  C_20
REMARK    5  A    between atoms: C_20  and  O_21
REMARK    6  A    between atoms: O_21  and  P_22
REMARK    7  A    between atoms: P_22  and  O_24
REMARK    8  A    between atoms: P_22  and  O_26
REMARK    9  A    between atoms: O_26  and  P_27
REMARK   10  A    between atoms: P_27  and  O_30
REMARK                            x       y       z     vdW  Elec       q    Type
REMARK                         _______ _______ _______ _____ _____    ______ ____
ROOT
ATOM      1  S   UNL     1      32.523 -20.506 -20.236  0.00  0.00    -0.095 S 
ATOM      2  N   UNL     1      34.771 -19.539 -20.782  0.00  0.00    -0.300 N 
ATOM      3  C   UNL     1      35.054 -20.695 -20.088  0.00  0.00    +0.028 C 
ATOM      4  C   UNL     1      33.920 -21.334 -19.720  0.00  0.00    +0.016 C 
ATOM      5  C   UNL     1      33.490 -19.289 -20.949  0.00  0.00    +0.154 C 
ATOM      6  C   UNL     1      36.463 -21.043 -19.859  0.00  0.00    +0.047 C 
ENDROOT
BRANCH   2   7
ATOM      7  C   UNL     1      35.784 -18.651 -21.299  0.00  0.00    +0.106 C 
BRANCH   7  11
ATOM      8  N   UNL     1      34.393 -17.140 -24.458  0.00  0.00    -0.352 NA
ATOM      9  N   UNL     1      34.202 -15.518 -22.686  0.00  0.00    -0.333 NA
ATOM     10  N   UNL     1      34.958 -16.039 -20.501  0.00  0.00    -0.335 N 
ATOM     11  C   UNL     1      35.158 -17.669 -22.252  0.00  0.00    +0.136 C 
ATOM     12  C   UNL     1      34.951 -17.990 -23.570  0.00  0.00    +0.108 C 
ATOM     13  C   UNL     1      34.766 -16.417 -21.853  0.00  0.00    +0.174 C 
ATOM     14  C   UNL     1      35.342 -19.327 -24.107  0.00  0.00    +0.063 C 
ATOM     15  C   UNL     1      34.047 -15.940 -23.956  0.00  0.00    +0.115 C 
ATOM     16  C   UNL     1      33.428 -14.974 -24.907  0.00  0.00    +0.143 C 
ATOM     17  H   UNL     1      34.683 -15.144 -20.196  0.00  0.00    +0.144 HD
ATOM     18  H   UNL     1      35.367 -16.671 -19.867  0.00  0.00    +0.144 HD
ENDBRANCH   7  11
ENDBRANCH   2   7
BRANCH   4  19
ATOM     19  C   UNL     1      33.768 -22.625 -18.951  0.00  0.00    +0.066 C 
BRANCH  19  20
ATOM     20  C   UNL     1      33.018 -22.424 -17.637  0.00  0.00    +0.159 C 
BRANCH  20  21
ATOM     21  O   UNL     1      31.929 -23.325 -17.535  0.00  0.00    -0.273 OA
BRANCH  21  22
ATOM     22  P   UNL     1      30.878 -23.189 -16.312  0.00  0.00    +0.484 P 
ATOM     23  O   UNL     1      31.434 -22.549 -15.073  0.00  0.00    -0.227 OA
BRANCH  22  24
ATOM     24  O   UNL     1      30.316 -24.690 -16.094  0.00  0.00    -0.302 OA
ATOM     25  H   UNL     1      29.616 -24.869 -16.741  0.00  0.00    +0.222 HD
ENDBRANCH  22  24
BRANCH  22  26
ATOM     26  O   UNL     1      29.614 -22.407 -16.949  0.00  0.00    -0.185 OA
BRANCH  26  27
ATOM     27  P   UNL     1      28.020 -22.756 -16.901  0.00  0.00    +0.511 P 
ATOM     28  O   UNL     1      27.768 -24.026 -17.683  0.00  0.00    -0.225 OA
ATOM     29  O   UNL     1      27.235 -21.497 -17.192  0.00  0.00    -0.116 OA
BRANCH  27  30
ATOM     30  O   UNL     1      27.890 -23.092 -15.308  0.00  0.00    -0.301 OA
ATOM     31  H   UNL     1      27.330 -22.425 -14.882  0.00  0.00    +0.222 HD
ENDBRANCH  27  30
ENDBRANCH  26  27
ENDBRANCH  22  26
ENDBRANCH  21  22
ENDBRANCH  20  21
ENDBRANCH  19  20
ENDBRANCH   4  19
TORSDOF 10
ENDMDL
MODEL 6
REMARK VINA RESULT:      -9.1      2.665      4.505
REMARK  Name = 4477692
REMARK  10 active torsions:
REMARK  status: ('A' for Active; 'I' for Inactive)
REMARK    1  A    between atoms: N_2  and  C_7
REMARK    2  A    between atoms: C_4  and  C_19
REMARK    3  A    between atoms: C_7  and  C_11
REMARK    4  A    between atoms: C_19  and  C_20
REMARK    5  A    between atoms: C_20  and  O_21
REMARK    6  A    between atoms: O_21  and  P_22
REMARK    7  A    between atoms: P_22  and  O_24
REMARK    8  A    between atoms: P_22  and  O_26
REMARK    9  A    between atoms: O_26  and  P_27
REMARK   10  A    between atoms: P_27  and  O_30
REMARK                            x       y       z     vdW  Elec       q    Type
REMARK                         _______ _______ _______ _____ _____    ______ ____
ROOT
ATOM      1  S   UNL     1      36.932 -21.696 -16.654  0.00  0.00    -0.095 S 
ATOM      2  N   UNL     1      35.707 -21.880 -18.834  0.00  0.00    -0.300 N 
ATOM      3  C   UNL     1      34.883 -22.504 -17.924  0.00  0.00    +0.028 C 
ATOM      4  C   UNL     1      35.422 -22.483 -16.683  0.00  0.00    +0.016 C 
ATOM      5  C   UNL     1      36.826 -21.399 -18.335  0.00  0.00    +0.154 C 
ATOM      6  C   UNL     1      33.614 -23.068 -18.405  0.00  0.00    +0.047 C 
ENDROOT
BRANCH   2   7
ATOM      7  C   UNL     1      35.393 -21.749 -20.236  0.00  0.00    +0.106 C 
BRANCH   7  11
ATOM      8  N   UNL     1      35.612 -18.078 -21.050  0.00  0.00    -0.352 NA
ATOM      9  N   UNL     1      33.287 -18.678 -20.846  0.00  0.00    -0.333 NA
ATOM     10  N   UNL     1      32.669 -20.908 -20.336  0.00  0.00    -0.335 N 
ATOM     11  C   UNL     1      34.990 -20.331 -20.535  0.00  0.00    +0.136 C 
ATOM     12  C   UNL     1      35.929 -19.361 -20.778  0.00  0.00    +0.108 C 
ATOM     13  C   UNL     1      33.675 -19.942 -20.580  0.00  0.00    +0.174 C 
ATOM     14  C   UNL     1      37.388 -19.679 -20.753  0.00  0.00    +0.063 C 
ATOM     15  C   UNL     1      34.293 -17.810 -21.068  0.00  0.00    +0.115 C 
ATOM     16  C   UNL     1      33.904 -16.402 -21.365  0.00  0.00    +0.143 C 
ATOM     17  H   UNL     1      31.719 -20.647 -20.364  0.00  0.00    +0.144 HD
ATOM     18  H   UNL     1      32.917 -21.840 -20.139  0.00  0.00    +0.144 HD
ENDBRANCH   7  11
ENDBRANCH   2   7
BRANCH   4  19
ATOM     19  C   UNL     1      34.861 -23.047 -15.399  0.00  0.00    +0.066 C 
BRANCH  19  20
ATOM     20  C   UNL     1      35.059 -24.557 -15.302  0.00  0.00    +0.159 C 
BRANCH  20  21
ATOM     21  O   UNL     1      36.403 -24.909 -15.585  0.00  0.00    -0.273 OA
BRANCH  21  22
ATOM     22  P   UNL     1      37.380 -25.394 -14.391  0.00  0.00    +0.484 P 
ATOM     23  O   UNL     1      38.525 -26.262 -14.827  0.00  0.00    -0.227 OA
BRANCH  22  24
ATOM     24  O   UNL     1      36.390 -26.087 -13.315  0.00  0.00    -0.302 OA
ATOM     25  H   UNL     1      36.829 -26.128 -12.451  0.00  0.00    +0.222 HD
ENDBRANCH  22  24
BRANCH  22  26
ATOM     26  O   UNL     1      37.832 -24.027 -13.653  0.00  0.00    -0.185 OA
BRANCH  26  27
ATOM     27  P   UNL     1      37.600 -23.526 -12.118  0.00  0.00    +0.511 P 
ATOM     28  O   UNL     1      38.377 -22.248 -11.892  0.00  0.00    -0.225 OA
ATOM     29  O   UNL     1      37.763 -24.707 -11.187  0.00  0.00    -0.116 OA
BRANCH  27  30
ATOM     30  O   UNL     1      36.012 -23.158 -12.216  0.00  0.00    -0.301 OA
ATOM     31  H   UNL     1      35.847 -22.655 -13.029  0.00  0.00    +0.222 HD
ENDBRANCH  27  30
ENDBRANCH  26  27
ENDBRANCH  22  26
ENDBRANCH  21  22
ENDBRANCH  20  21
ENDBRANCH  19  20
ENDBRANCH   4  19
TORSDOF 10
ENDMDL
MODEL 7
REMARK VINA RESULT:      -8.8      1.421      2.685
REMARK  Name = 4477692
REMARK  10 active torsions:
REMARK  status: ('A' for Active; 'I' for Inactive)
REMARK    1  A    between atoms: N_2  and  C_7
REMARK    2  A    between atoms: C_4  and  C_19
REMARK    3  A    between atoms: C_7  and  C_11
REMARK    4  A    between atoms: C_19  and  C_20
REMARK    5  A    between atoms: C_20  and  O_21
REMARK    6  A    between atoms: O_21  and  P_22
REMARK    7  A    between atoms: P_22  and  O_24
REMARK    8  A    between atoms: P_22  and  O_26
REMARK    9  A    between atoms: O_26  and  P_27
REMARK   10  A    between atoms: P_27  and  O_30
REMARK                            x       y       z     vdW  Elec       q    Type
REMARK                         _______ _______ _______ _____ _____    ______ ____
ROOT
ATOM      1  S   UNL     1      32.671 -20.575 -20.279  0.00  0.00    -0.095 S 
ATOM      2  N   UNL     1      34.869 -19.453 -20.725  0.00  0.00    -0.300 N 
ATOM      3  C   UNL     1      35.210 -20.675 -20.187  0.00  0.00    +0.028 C 
ATOM      4  C   UNL     1      34.109 -21.402 -19.891  0.00  0.00    +0.016 C 
ATOM      5  C   UNL     1      33.577 -19.237 -20.843  0.00  0.00    +0.154 C 
ATOM      6  C   UNL     1      36.636 -20.990 -20.022  0.00  0.00    +0.047 C 
ENDROOT
BRANCH   2   7
ATOM      7  C   UNL     1      35.837 -18.465 -21.138  0.00  0.00    +0.106 C 
BRANCH   7  11
ATOM      8  N   UNL     1      34.388 -16.755 -24.165  0.00  0.00    -0.352 NA
ATOM      9  N   UNL     1      34.118 -15.300 -22.263  0.00  0.00    -0.333 NA
ATOM     10  N   UNL     1      34.890 -15.972 -20.126  0.00  0.00    -0.335 N 
ATOM     11  C   UNL     1      35.169 -17.435 -22.007  0.00  0.00    +0.136 C 
ATOM     12  C   UNL     1      34.982 -17.651 -23.349  0.00  0.00    +0.108 C 
ATOM     13  C   UNL     1      34.719 -16.240 -21.505  0.00  0.00    +0.174 C 
ATOM     14  C   UNL     1      35.435 -18.919 -23.996  0.00  0.00    +0.063 C 
ATOM     15  C   UNL     1      33.986 -15.619 -23.565  0.00  0.00    +0.115 C 
ATOM     16  C   UNL     1      33.326 -14.604 -24.435  0.00  0.00    +0.143 C 
ATOM     17  H   UNL     1      34.573 -15.119 -19.747  0.00  0.00    +0.144 HD
ATOM     18  H   UNL     1      35.325 -16.636 -19.544  0.00  0.00    +0.144 HD
ENDBRANCH   7  11
ENDBRANCH   2   7
BRANCH   4  19
ATOM     19  C   UNL     1      34.022 -22.785 -19.290  0.00  0.00    +0.066 C 
BRANCH  19  20
ATOM     20  C   UNL     1      33.823 -22.742 -17.777  0.00  0.00    +0.159 C 
BRANCH  20  21
ATOM     21  O   UNL     1      35.069 -22.797 -17.104  0.00  0.00    -0.273 OA
BRANCH  21  22
ATOM     22  P   UNL     1      35.147 -23.373 -15.594  0.00  0.00    +0.484 P 
ATOM     23  O   UNL     1      36.093 -22.639 -14.688  0.00  0.00    -0.227 OA
BRANCH  22  24
ATOM     24  O   UNL     1      35.485 -24.945 -15.780  0.00  0.00    -0.302 OA
ATOM     25  H   UNL     1      34.732 -25.389 -16.200  0.00  0.00    +0.222 HD
ENDBRANCH  22  24
BRANCH  22  26
ATOM     26  O   UNL     1      33.613 -23.381 -15.082  0.00  0.00    -0.185 OA
BRANCH  26  27
ATOM     27  P   UNL     1      32.936 -24.092 -13.779  0.00  0.00    +0.511 P 
ATOM     28  O   UNL     1      34.031 -24.566 -12.848  0.00  0.00    -0.225 OA
ATOM     29  O   UNL     1      31.852 -25.038 -14.245  0.00  0.00    -0.116 OA
BRANCH  27  30
ATOM     30  O   UNL     1      32.229 -22.776 -13.120  0.00  0.00    -0.301 OA
ATOM     31  H   UNL     1      31.289 -22.761 -13.359  0.00  0.00    +0.222 HD
ENDBRANCH  27  30
ENDBRANCH  26  27
ENDBRANCH  22  26
ENDBRANCH  21  22
ENDBRANCH  20  21
ENDBRANCH  19  20
ENDBRANCH   4  19
TORSDOF 10
ENDMDL
MODEL 8
REMARK VINA RESULT:      -8.6      2.948      4.626
REMARK  Name = 4477692
REMARK  10 active torsions:
REMARK  status: ('A' for Active; 'I' for Inactive)
REMARK    1  A    between atoms: N_2  and  C_7
REMARK    2  A    between atoms: C_4  and  C_19
REMARK    3  A    between atoms: C_7  and  C_11
REMARK    4  A    between atoms: C_19  and  C_20
REMARK    5  A    between atoms: C_20  and  O_21
REMARK    6  A    between atoms: O_21  and  P_22
REMARK    7  A    between atoms: P_22  and  O_24
REMARK    8  A    between atoms: P_22  and  O_26
REMARK    9  A    between atoms: O_26  and  P_27
REMARK   10  A    between atoms: P_27  and  O_30
REMARK                            x       y       z     vdW  Elec       q    Type
REMARK                         _______ _______ _______ _____ _____    ______ ____
ROOT
ATOM      1  S   UNL     1      36.891 -21.816 -16.400  0.00  0.00    -0.095 S 
ATOM      2  N   UNL     1      35.643 -22.076 -18.560  0.00  0.00    -0.300 N 
ATOM      3  C   UNL     1      34.809 -22.629 -17.613  0.00  0.00    +0.028 C 
ATOM      4  C   UNL     1      35.359 -22.561 -16.379  0.00  0.00    +0.016 C 
ATOM      5  C   UNL     1      36.779 -21.602 -18.094  0.00  0.00    +0.154 C 
ATOM      6  C   UNL     1      33.521 -23.181 -18.056  0.00  0.00    +0.047 C 
ENDROOT
BRANCH   2   7
ATOM      7  C   UNL     1      35.320 -22.007 -19.964  0.00  0.00    +0.106 C 
BRANCH   7  11
ATOM      8  N   UNL     1      35.716 -18.389 -20.933  0.00  0.00    -0.352 NA
ATOM      9  N   UNL     1      33.363 -18.885 -20.777  0.00  0.00    -0.333 NA
ATOM     10  N   UNL     1      32.637 -21.064 -20.189  0.00  0.00    -0.335 N 
ATOM     11  C   UNL     1      34.985 -20.589 -20.339  0.00  0.00    +0.136 C 
ATOM     12  C   UNL     1      35.971 -19.670 -20.594  0.00  0.00    +0.108 C 
ATOM     13  C   UNL     1      33.690 -20.151 -20.443  0.00  0.00    +0.174 C 
ATOM     14  C   UNL     1      37.414 -20.045 -20.508  0.00  0.00    +0.063 C 
ATOM     15  C   UNL     1      34.410 -18.069 -21.006  0.00  0.00    +0.115 C 
ATOM     16  C   UNL     1      34.088 -16.662 -21.378  0.00  0.00    +0.143 C 
ATOM     17  H   UNL     1      31.701 -20.767 -20.259  0.00  0.00    +0.144 HD
ATOM     18  H   UNL     1      32.841 -21.994 -19.943  0.00  0.00    +0.144 HD
ENDBRANCH   7  11
ENDBRANCH   2   7
BRANCH   4  19
ATOM     19  C   UNL     1      34.794 -23.043 -15.063  0.00  0.00    +0.066 C 
BRANCH  19  20
ATOM     20  C   UNL     1      35.652 -24.140 -14.439  0.00  0.00    +0.159 C 
BRANCH  20  21
ATOM     21  O   UNL     1      36.479 -23.612 -13.416  0.00  0.00    -0.273 OA
BRANCH  21  22
ATOM     22  P   UNL     1      37.187 -24.606 -12.354  0.00  0.00    +0.484 P 
ATOM     23  O   UNL     1      36.273 -25.145 -11.291  0.00  0.00    -0.227 OA
BRANCH  22  24
ATOM     24  O   UNL     1      38.445 -23.762 -11.788  0.00  0.00    -0.302 OA
ATOM     25  H   UNL     1      38.471 -22.893 -12.217  0.00  0.00    +0.222 HD
ENDBRANCH  22  24
BRANCH  22  26
ATOM     26  O   UNL     1      37.883 -25.746 -13.266  0.00  0.00    -0.185 OA
BRANCH  26  27
ATOM     27  P   UNL     1      39.044 -25.626 -14.406  0.00  0.00    +0.511 P 
ATOM     28  O   UNL     1      40.238 -26.455 -13.986  0.00  0.00    -0.225 OA
ATOM     29  O   UNL     1      39.206 -24.172 -14.789  0.00  0.00    -0.116 OA
BRANCH  27  30
ATOM     30  O   UNL     1      38.276 -26.401 -15.621  0.00  0.00    -0.301 OA
ATOM     31  H   UNL     1      37.483 -26.838 -15.275  0.00  0.00    +0.222 HD
ENDBRANCH  27  30
ENDBRANCH  26  27
ENDBRANCH  22  26
ENDBRANCH  21  22
ENDBRANCH  20  21
ENDBRANCH  19  20
ENDBRANCH   4  19
TORSDOF 10
ENDMDL
MODEL 9
REMARK VINA RESULT:      -8.6      8.473     10.693
REMARK  Name = 4477692
REMARK  10 active torsions:
REMARK  status: ('A' for Active; 'I' for Inactive)
REMARK    1  A    between atoms: N_2  and  C_7
REMARK    2  A    between atoms: C_4  and  C_19
REMARK    3  A    between atoms: C_7  and  C_11
REMARK    4  A    between atoms: C_19  and  C_20
REMARK    5  A    between atoms: C_20  and  O_21
REMARK    6  A    between atoms: O_21  and  P_22
REMARK    7  A    between atoms: P_22  and  O_24
REMARK    8  A    between atoms: P_22  and  O_26
REMARK    9  A    between atoms: O_26  and  P_27
REMARK   10  A    between atoms: P_27  and  O_30
REMARK                            x       y       z     vdW  Elec       q    Type
REMARK                         _______ _______ _______ _____ _____    ______ ____
ROOT
ATOM      1  S   UNL     1      34.304 -15.090 -20.875  0.00  0.00    -0.095 S 
ATOM      2  N   UNL     1      34.474 -17.158 -22.281  0.00  0.00    -0.300 N 
ATOM      3  C   UNL     1      34.326 -16.135 -23.192  0.00  0.00    +0.028 C 
ATOM      4  C   UNL     1      34.219 -14.939 -22.569  0.00  0.00    +0.016 C 
ATOM      5  C   UNL     1      34.483 -16.785 -21.020  0.00  0.00    +0.154 C 
ATOM      6  C   UNL     1      34.305 -16.472 -24.622  0.00  0.00    +0.047 C 
ENDROOT
BRANCH   2   7
ATOM      7  C   UNL     1      34.611 -18.545 -22.655  0.00  0.00    +0.106 C 
BRANCH   7  11
ATOM      8  N   UNL     1      34.808 -20.787 -19.635  0.00  0.00    -0.352 NA
ATOM      9  N   UNL     1      37.033 -20.036 -20.176  0.00  0.00    -0.333 NA
ATOM     10  N   UNL     1      37.392 -18.593 -22.021  0.00  0.00    -0.335 N 
ATOM     11  C   UNL     1      35.168 -19.329 -21.498  0.00  0.00    +0.136 C 
ATOM     12  C   UNL     1      34.351 -20.069 -20.682  0.00  0.00    +0.108 C 
ATOM     13  C   UNL     1      36.509 -19.342 -21.207  0.00  0.00    +0.174 C 
ATOM     14  C   UNL     1      32.877 -20.123 -20.913  0.00  0.00    +0.063 C 
ATOM     15  C   UNL     1      36.139 -20.727 -19.442  0.00  0.00    +0.115 C 
ATOM     16  C   UNL     1      36.682 -21.507 -18.293  0.00  0.00    +0.143 C 
ATOM     17  H   UNL     1      38.358 -18.590 -21.826  0.00  0.00    +0.144 HD
ATOM     18  H   UNL     1      37.042 -18.075 -22.781  0.00  0.00    +0.144 HD
ENDBRANCH   7  11
ENDBRANCH   2   7
BRANCH   4  19
ATOM     19  C   UNL     1      34.044 -13.567 -23.178  0.00  0.00    +0.066 C 
BRANCH  19  20
ATOM     20  C   UNL     1      32.591 -13.104 -23.137  0.00  0.00    +0.159 C 
BRANCH  20  21
ATOM     21  O   UNL     1      32.504 -11.754 -22.712  0.00  0.00    -0.273 OA
BRANCH  21  22
ATOM     22  P   UNL     1      31.653 -11.377 -21.389  0.00  0.00    +0.484 P 
ATOM     23  O   UNL     1      31.932 -12.240 -20.193  0.00  0.00    -0.227 OA
BRANCH  22  24
ATOM     24  O   UNL     1      30.112 -11.398 -21.882  0.00  0.00    -0.302 OA
ATOM     25  H   UNL     1      29.818 -12.316 -21.986  0.00  0.00    +0.222 HD
ENDBRANCH  22  24
BRANCH  22  26
ATOM     26  O   UNL     1      31.945  -9.804 -21.152  0.00  0.00    -0.185 OA
BRANCH  26  27
ATOM     27  P   UNL     1      32.096  -8.582 -22.222  0.00  0.00    +0.511 P 
ATOM     28  O   UNL     1      32.375  -7.298 -21.472  0.00  0.00    -0.225 OA
ATOM     29  O   UNL     1      30.964  -8.665 -23.222  0.00  0.00    -0.116 OA
BRANCH  27  30
ATOM     30  O   UNL     1      33.472  -9.065 -22.956  0.00  0.00    -0.301 OA
ATOM     31  H   UNL     1      34.207  -9.020 -22.325  0.00  0.00    +0.222 HD
ENDBRANCH  27  30
ENDBRANCH  26  27
ENDBRANCH  22  26
ENDBRANCH  21  22
ENDBRANCH  20  21
ENDBRANCH  19  20
ENDBRANCH   4  19
TORSDOF 10
ENDMDL
