MODEL 1
REMARK VINA RESULT:      -9.1      0.000      0.000
REMARK  Name = 446857
REMARK  8 active torsions:
REMARK  status: ('A' for Active; 'I' for Inactive)
REMARK    1  A    between atoms: C_2  and  O_15
REMARK    2  A    between atoms: C_3  and  O_17
REMARK    3  A    between atoms: C_4  and  N_6
REMARK    4  A    between atoms: C_5  and  C_19
REMARK    5  A    between atoms: C_19  and  O_20
REMARK    6  A    between atoms: O_20  and  P_21
REMARK    7  A    between atoms: P_21  and  O_23
REMARK    8  A    between atoms: P_21  and  O_25
REMARK                            x       y       z     vdW  Elec       q    Type
REMARK                         _______ _______ _______ _____ _____    ______ ____
ROOT
ATOM      1  O   UNL     1      35.765 -25.206 -15.606  0.00  0.00    -0.333 OA
ATOM      2  C   UNL     1      35.545 -23.511 -13.944  0.00  0.00    +0.187 C 
ATOM      3  C   UNL     1      36.788 -24.329 -13.661  0.00  0.00    +0.171 C 
ATOM      4  C   UNL     1      34.778 -24.488 -14.833  0.00  0.00    +0.224 C 
ATOM      5  C   UNL     1      37.059 -24.959 -15.023  0.00  0.00    +0.176 C 
ENDROOT
BRANCH   4   6
ATOM      6  N   UNL     1      33.775 -23.894 -15.708  0.00  0.00    -0.253 N 
ATOM      7  N   UNL     1      32.884 -22.980 -17.544  0.00  0.00    -0.196 NA
ATOM      8  N   UNL     1      30.637 -22.699 -16.662  0.00  0.00    -0.170 NA
ATOM      9  N   UNL     1      30.374 -23.471 -14.363  0.00  0.00    -0.220 NA
ATOM     10  C   UNL     1      32.460 -23.649 -15.410  0.00  0.00    +0.134 C 
ATOM     11  C   UNL     1      33.977 -23.474 -17.001  0.00  0.00    +0.233 C 
ATOM     12  C   UNL     1      31.932 -23.084 -16.563  0.00  0.00    +0.050 C 
ATOM     13  C   UNL     1      31.671 -23.847 -14.294  0.00  0.00    +0.126 C 
ATOM     14  C   UNL     1      29.943 -22.929 -15.526  0.00  0.00    +0.209 C 
ENDBRANCH   4   6
BRANCH   2  15
ATOM     15  O   UNL     1      35.891 -22.335 -14.670  0.00  0.00    -0.378 OA
ATOM     16  H   UNL     1      36.738 -21.991 -14.344  0.00  0.00    +0.211 HD
ENDBRANCH   2  15
BRANCH   3  17
ATOM     17  O   UNL     1      37.879 -23.555 -13.211  0.00  0.00    -0.379 OA
ATOM     18  H   UNL     1      38.238 -23.040 -13.951  0.00  0.00    +0.211 HD
ENDBRANCH   3  17
BRANCH   5  19
ATOM     19  C   UNL     1      37.838 -26.259 -14.939  0.00  0.00    +0.186 C 
BRANCH  19  20
ATOM     20  O   UNL     1      38.865 -26.115 -13.972  0.00  0.00    -0.271 OA
BRANCH  20  21
ATOM     21  P   UNL     1      40.392 -25.959 -14.487  0.00  0.00    +0.473 P 
ATOM     22  O   UNL     1      41.338 -27.016 -13.997  0.00  0.00    -0.227 OA
BRANCH  21  23
ATOM     23  O   UNL     1      40.779 -24.442 -14.081  0.00  0.00    -0.303 OA
ATOM     24  H   UNL     1      41.316 -24.046 -14.786  0.00  0.00    +0.222 HD
ENDBRANCH  21  23
BRANCH  21  25
ATOM     25  O   UNL     1      40.224 -25.883 -16.093  0.00  0.00    -0.303 OA
ATOM     26  H   UNL     1      39.494 -25.286 -16.315  0.00  0.00    +0.222 HD
ENDBRANCH  21  25
ENDBRANCH  20  21
ENDBRANCH  19  20
ENDBRANCH   5  19
TORSDOF 8
ENDMDL
MODEL 2
REMARK VINA RESULT:      -8.6      9.009     11.280
REMARK  Name = 446857
REMARK  8 active torsions:
REMARK  status: ('A' for Active; 'I' for Inactive)
REMARK    1  A    between atoms: C_2  and  O_15
REMARK    2  A    between atoms: C_3  and  O_17
REMARK    3  A    between atoms: C_4  and  N_6
REMARK    4  A    between atoms: C_5  and  C_19
REMARK    5  A    between atoms: C_19  and  O_20
REMARK    6  A    between atoms: O_20  and  P_21
REMARK    7  A    between atoms: P_21  and  O_23
REMARK    8  A    between atoms: P_21  and  O_25
REMARK                            x       y       z     vdW  Elec       q    Type
REMARK                         _______ _______ _______ _____ _____    ______ ____
ROOT
ATOM      1  O   UNL     1      34.623 -17.184 -21.003  0.00  0.00    -0.333 OA
ATOM      2  C   UNL     1      35.046 -18.360 -23.034  0.00  0.00    +0.187 C 
ATOM      3  C   UNL     1      34.638 -16.936 -23.356  0.00  0.00    +0.171 C 
ATOM      4  C   UNL     1      34.486 -18.484 -21.618  0.00  0.00    +0.224 C 
ATOM      5  C   UNL     1      34.924 -16.228 -22.037  0.00  0.00    +0.176 C 
ENDROOT
BRANCH   4   6
ATOM      6  N   UNL     1      35.096 -19.512 -20.784  0.00  0.00    -0.253 N 
ATOM      7  N   UNL     1      36.691 -20.655 -19.711  0.00  0.00    -0.196 NA
ATOM      8  N   UNL     1      35.229 -22.332 -18.731  0.00  0.00    -0.170 NA
ATOM      9  N   UNL     1      32.875 -22.048 -19.303  0.00  0.00    -0.220 NA
ATOM     10  C   UNL     1      34.458 -20.541 -20.142  0.00  0.00    +0.134 C 
ATOM     11  C   UNL     1      36.434 -19.627 -20.492  0.00  0.00    +0.233 C 
ATOM     12  C   UNL     1      35.467 -21.233 -19.486  0.00  0.00    +0.050 C 
ATOM     13  C   UNL     1      33.143 -20.953 -20.050  0.00  0.00    +0.126 C 
ATOM     14  C   UNL     1      33.919 -22.661 -18.698  0.00  0.00    +0.209 C 
ENDBRANCH   4   6
BRANCH   2  15
ATOM     15  O   UNL     1      36.467 -18.468 -23.024  0.00  0.00    -0.378 OA
ATOM     16  H   UNL     1      36.765 -18.732 -22.139  0.00  0.00    +0.211 HD
ENDBRANCH   2  15
BRANCH   3  17
ATOM     17  O   UNL     1      35.365 -16.374 -24.427  0.00  0.00    -0.379 OA
ATOM     18  H   UNL     1      34.777 -16.253 -25.189  0.00  0.00    +0.211 HD
ENDBRANCH   3  17
BRANCH   5  19
ATOM     19  C   UNL     1      34.089 -14.976 -21.834  0.00  0.00    +0.186 C 
BRANCH  19  20
ATOM     20  O   UNL     1      34.513 -13.989 -22.759  0.00  0.00    -0.271 OA
BRANCH  20  21
ATOM     21  P   UNL     1      33.390 -13.223 -23.638  0.00  0.00    +0.473 P 
ATOM     22  O   UNL     1      32.092 -12.970 -22.928  0.00  0.00    -0.227 OA
BRANCH  21  23
ATOM     23  O   UNL     1      33.280 -14.115 -24.982  0.00  0.00    -0.303 OA
ATOM     24  H   UNL     1      33.173 -13.532 -25.750  0.00  0.00    +0.222 HD
ENDBRANCH  21  23
BRANCH  21  25
ATOM     25  O   UNL     1      34.166 -11.894 -24.136  0.00  0.00    -0.303 OA
ATOM     26  H   UNL     1      33.889 -11.677 -25.039  0.00  0.00    +0.222 HD
ENDBRANCH  21  25
ENDBRANCH  20  21
ENDBRANCH  19  20
ENDBRANCH   5  19
TORSDOF 8
ENDMDL
MODEL 3
REMARK VINA RESULT:      -8.4      1.676      2.618
REMARK  Name = 446857
REMARK  8 active torsions:
REMARK  status: ('A' for Active; 'I' for Inactive)
REMARK    1  A    between atoms: C_2  and  O_15
REMARK    2  A    between atoms: C_3  and  O_17
REMARK    3  A    between atoms: C_4  and  N_6
REMARK    4  A    between atoms: C_5  and  C_19
REMARK    5  A    between atoms: C_19  and  O_20
REMARK    6  A    between atoms: O_20  and  P_21
REMARK    7  A    between atoms: P_21  and  O_23
REMARK    8  A    between atoms: P_21  and  O_25
REMARK                            x       y       z     vdW  Elec       q    Type
REMARK                         _______ _______ _______ _____ _____    ______ ____
ROOT
ATOM      1  O   UNL     1      34.603 -24.019 -13.896  0.00  0.00    -0.333 OA
ATOM      2  C   UNL     1      34.342 -23.087 -16.075  0.00  0.00    +0.187 C 
ATOM      3  C   UNL     1      35.781 -22.924 -15.631  0.00  0.00    +0.171 C 
ATOM      4  C   UNL     1      33.666 -23.292 -14.721  0.00  0.00    +0.224 C 
ATOM      5  C   UNL     1      35.890 -23.985 -14.542  0.00  0.00    +0.176 C 
ENDROOT
BRANCH   4   6
ATOM      6  N   UNL     1      32.376 -23.971 -14.753  0.00  0.00    -0.253 N 
ATOM      7  N   UNL     1      30.796 -25.474 -14.260  0.00  0.00    -0.196 NA
ATOM      8  N   UNL     1      29.078 -24.574 -15.725  0.00  0.00    -0.170 NA
ATOM      9  N   UNL     1      29.780 -22.601 -16.975  0.00  0.00    -0.220 NA
ATOM     10  C   UNL     1      31.282 -23.630 -15.503  0.00  0.00    +0.134 C 
ATOM     11  C   UNL     1      32.032 -25.084 -14.025  0.00  0.00    +0.233 C 
ATOM     12  C   UNL     1      30.318 -24.576 -15.179  0.00  0.00    +0.050 C 
ATOM     13  C   UNL     1      31.010 -22.628 -16.414  0.00  0.00    +0.126 C 
ATOM     14  C   UNL     1      28.903 -23.561 -16.601  0.00  0.00    +0.209 C 
ENDBRANCH   4   6
BRANCH   2  15
ATOM     15  O   UNL     1      34.211 -24.253 -16.884  0.00  0.00    -0.378 OA
ATOM     16  H   UNL     1      34.759 -24.157 -17.680  0.00  0.00    +0.211 HD
ENDBRANCH   2  15
BRANCH   3  17
ATOM     17  O   UNL     1      36.715 -23.133 -16.668  0.00  0.00    -0.379 OA
ATOM     18  H   UNL     1      37.590 -22.824 -16.384  0.00  0.00    +0.211 HD
ENDBRANCH   3  17
BRANCH   5  19
ATOM     19  C   UNL     1      36.968 -23.684 -13.516  0.00  0.00    +0.186 C 
BRANCH  19  20
ATOM     20  O   UNL     1      38.237 -23.834 -14.130  0.00  0.00    -0.271 OA
BRANCH  20  21
ATOM     21  P   UNL     1      38.975 -25.272 -14.036  0.00  0.00    +0.473 P 
ATOM     22  O   UNL     1      38.552 -26.127 -12.876  0.00  0.00    -0.227 OA
BRANCH  21  23
ATOM     23  O   UNL     1      40.548 -24.900 -14.084  0.00  0.00    -0.303 OA
ATOM     24  H   UNL     1      41.049 -25.658 -14.424  0.00  0.00    +0.222 HD
ENDBRANCH  21  23
BRANCH  21  25
ATOM     25  O   UNL     1      38.699 -25.914 -15.494  0.00  0.00    -0.303 OA
ATOM     26  H   UNL     1      37.923 -25.491 -15.893  0.00  0.00    +0.222 HD
ENDBRANCH  21  25
ENDBRANCH  20  21
ENDBRANCH  19  20
ENDBRANCH   5  19
TORSDOF 8
ENDMDL
MODEL 4
REMARK VINA RESULT:      -8.3      8.521     10.241
REMARK  Name = 446857
REMARK  8 active torsions:
REMARK  status: ('A' for Active; 'I' for Inactive)
REMARK    1  A    between atoms: C_2  and  O_15
REMARK    2  A    between atoms: C_3  and  O_17
REMARK    3  A    between atoms: C_4  and  N_6
REMARK    4  A    between atoms: C_5  and  C_19
REMARK    5  A    between atoms: C_19  and  O_20
REMARK    6  A    between atoms: O_20  and  P_21
REMARK    7  A    between atoms: P_21  and  O_23
REMARK    8  A    between atoms: P_21  and  O_25
REMARK                            x       y       z     vdW  Elec       q    Type
REMARK                         _______ _______ _______ _____ _____    ______ ____
ROOT
ATOM      1  O   UNL     1      33.913 -19.030 -22.134  0.00  0.00    -0.333 OA
ATOM      2  C   UNL     1      35.961 -17.864 -21.774  0.00  0.00    +0.187 C 
ATOM      3  C   UNL     1      35.744 -18.852 -20.646  0.00  0.00    +0.171 C 
ATOM      4  C   UNL     1      34.532 -17.734 -22.295  0.00  0.00    +0.224 C 
ATOM      5  C   UNL     1      34.753 -19.825 -21.276  0.00  0.00    +0.176 C 
ENDROOT
BRANCH   4   6
ATOM      6  N   UNL     1      34.399 -17.270 -23.671  0.00  0.00    -0.253 N 
ATOM      7  N   UNL     1      34.501 -17.304 -25.904  0.00  0.00    -0.196 NA
ATOM      8  N   UNL     1      33.605 -15.073 -26.265  0.00  0.00    -0.170 NA
ATOM      9  N   UNL     1      33.041 -13.890 -24.207  0.00  0.00    -0.220 NA
ATOM     10  C   UNL     1      33.920 -16.057 -24.090  0.00  0.00    +0.134 C 
ATOM     11  C   UNL     1      34.733 -17.980 -24.799  0.00  0.00    +0.233 C 
ATOM     12  C   UNL     1      33.995 -16.104 -25.476  0.00  0.00    +0.050 C 
ATOM     13  C   UNL     1      33.437 -14.935 -23.446  0.00  0.00    +0.126 C 
ATOM     14  C   UNL     1      33.147 -14.022 -25.550  0.00  0.00    +0.209 C 
ENDBRANCH   4   6
BRANCH   2  15
ATOM     15  O   UNL     1      36.809 -18.437 -22.766  0.00  0.00    -0.378 OA
ATOM     16  H   UNL     1      37.273 -19.202 -22.391  0.00  0.00    +0.211 HD
ENDBRANCH   2  15
BRANCH   3  17
ATOM     17  O   UNL     1      36.928 -19.499 -20.231  0.00  0.00    -0.379 OA
ATOM     18  H   UNL     1      37.240 -19.101 -19.403  0.00  0.00    +0.211 HD
ENDBRANCH   3  17
BRANCH   5  19
ATOM     19  C   UNL     1      33.897 -20.553 -20.256  0.00  0.00    +0.186 C 
BRANCH  19  20
ATOM     20  O   UNL     1      34.721 -21.433 -19.511  0.00  0.00    -0.271 OA
BRANCH  20  21
ATOM     21  P   UNL     1      34.016 -22.612 -18.655  0.00  0.00    +0.473 P 
ATOM     22  O   UNL     1      34.651 -22.897 -17.325  0.00  0.00    -0.227 OA
BRANCH  21  23
ATOM     23  O   UNL     1      33.974 -23.860 -19.682  0.00  0.00    -0.303 OA
ATOM     24  H   UNL     1      33.197 -23.779 -20.257  0.00  0.00    +0.222 HD
ENDBRANCH  21  23
BRANCH  21  25
ATOM     25  O   UNL     1      32.473 -22.134 -18.586  0.00  0.00    -0.303 OA
ATOM     26  H   UNL     1      32.390 -21.395 -17.964  0.00  0.00    +0.222 HD
ENDBRANCH  21  25
ENDBRANCH  20  21
ENDBRANCH  19  20
ENDBRANCH   5  19
TORSDOF 8
ENDMDL
MODEL 5
REMARK VINA RESULT:      -7.9      2.736      3.897
REMARK  Name = 446857
REMARK  8 active torsions:
REMARK  status: ('A' for Active; 'I' for Inactive)
REMARK    1  A    between atoms: C_2  and  O_15
REMARK    2  A    between atoms: C_3  and  O_17
REMARK    3  A    between atoms: C_4  and  N_6
REMARK    4  A    between atoms: C_5  and  C_19
REMARK    5  A    between atoms: C_19  and  O_20
REMARK    6  A    between atoms: O_20  and  P_21
REMARK    7  A    between atoms: P_21  and  O_23
REMARK    8  A    between atoms: P_21  and  O_25
REMARK                            x       y       z     vdW  Elec       q    Type
REMARK                         _______ _______ _______ _____ _____    ______ ____
ROOT
ATOM      1  O   UNL     1      33.898 -23.921 -14.207  0.00  0.00    -0.333 OA
ATOM      2  C   UNL     1      33.678 -22.987 -16.390  0.00  0.00    +0.187 C 
ATOM      3  C   UNL     1      35.091 -22.763 -15.890  0.00  0.00    +0.171 C 
ATOM      4  C   UNL     1      32.961 -23.231 -15.064  0.00  0.00    +0.224 C 
ATOM      5  C   UNL     1      35.206 -23.825 -14.803  0.00  0.00    +0.176 C 
ENDROOT
BRANCH   4   6
ATOM      6  N   UNL     1      31.706 -23.967 -15.148  0.00  0.00    -0.253 N 
ATOM      7  N   UNL     1      30.218 -25.602 -14.812  0.00  0.00    -0.196 NA
ATOM      8  N   UNL     1      28.409 -24.612 -16.100  0.00  0.00    -0.170 NA
ATOM      9  N   UNL     1      28.972 -22.461 -17.101  0.00  0.00    -0.220 NA
ATOM     10  C   UNL     1      30.571 -23.591 -15.817  0.00  0.00    +0.134 C 
ATOM     11  C   UNL     1      31.440 -25.181 -14.563  0.00  0.00    +0.233 C 
ATOM     12  C   UNL     1      29.666 -24.620 -15.593  0.00  0.00    +0.050 C 
ATOM     13  C   UNL     1      30.220 -22.495 -16.582  0.00  0.00    +0.126 C 
ATOM     14  C   UNL     1      28.155 -23.506 -16.831  0.00  0.00    +0.209 C 
ENDBRANCH   4   6
BRANCH   2  15
ATOM     15  O   UNL     1      33.632 -24.153 -17.209  0.00  0.00    -0.378 OA
ATOM     16  H   UNL     1      33.982 -23.943 -18.089  0.00  0.00    +0.211 HD
ENDBRANCH   2  15
BRANCH   3  17
ATOM     17  O   UNL     1      36.072 -22.923 -16.891  0.00  0.00    -0.379 OA
ATOM     18  H   UNL     1      36.529 -23.770 -16.764  0.00  0.00    +0.211 HD
ENDBRANCH   3  17
BRANCH   5  19
ATOM     19  C   UNL     1      36.229 -23.483 -13.735  0.00  0.00    +0.186 C 
BRANCH  19  20
ATOM     20  O   UNL     1      35.616 -23.594 -12.461  0.00  0.00    -0.271 OA
BRANCH  20  21
ATOM     21  P   UNL     1      36.460 -24.265 -11.255  0.00  0.00    +0.473 P 
ATOM     22  O   UNL     1      37.502 -25.257 -11.685  0.00  0.00    -0.227 OA
BRANCH  21  23
ATOM     23  O   UNL     1      35.321 -24.845 -10.265  0.00  0.00    -0.303 OA
ATOM     24  H   UNL     1      34.644 -25.306 -10.785  0.00  0.00    +0.222 HD
ENDBRANCH  21  23
BRANCH  21  25
ATOM     25  O   UNL     1      37.030 -22.980 -10.455  0.00  0.00    -0.303 OA
ATOM     26  H   UNL     1      36.693 -22.169 -10.865  0.00  0.00    +0.222 HD
ENDBRANCH  21  25
ENDBRANCH  20  21
ENDBRANCH  19  20
ENDBRANCH   5  19
TORSDOF 8
ENDMDL
MODEL 6
REMARK VINA RESULT:      -7.8      4.666      7.767
REMARK  Name = 446857
REMARK  8 active torsions:
REMARK  status: ('A' for Active; 'I' for Inactive)
REMARK    1  A    between atoms: C_2  and  O_15
REMARK    2  A    between atoms: C_3  and  O_17
REMARK    3  A    between atoms: C_4  and  N_6
REMARK    4  A    between atoms: C_5  and  C_19
REMARK    5  A    between atoms: C_19  and  O_20
REMARK    6  A    between atoms: O_20  and  P_21
REMARK    7  A    between atoms: P_21  and  O_23
REMARK    8  A    between atoms: P_21  and  O_25
REMARK                            x       y       z     vdW  Elec       q    Type
REMARK                         _______ _______ _______ _____ _____    ______ ____
ROOT
ATOM      1  O   UNL     1      33.546 -23.526 -14.455  0.00  0.00    -0.333 OA
ATOM      2  C   UNL     1      34.612 -23.942 -16.547  0.00  0.00    +0.187 C 
ATOM      3  C   UNL     1      33.134 -23.703 -16.778  0.00  0.00    +0.171 C 
ATOM      4  C   UNL     1      34.594 -24.311 -15.065  0.00  0.00    +0.224 C 
ATOM      5  C   UNL     1      32.739 -22.961 -15.506  0.00  0.00    +0.176 C 
ENDROOT
BRANCH   4   6
ATOM      6  N   UNL     1      35.852 -24.128 -14.352  0.00  0.00    -0.253 N 
ATOM      7  N   UNL     1      37.365 -23.200 -12.991  0.00  0.00    -0.196 NA
ATOM      8  N   UNL     1      39.115 -24.851 -13.341  0.00  0.00    -0.170 NA
ATOM      9  N   UNL     1      38.497 -26.633 -14.887  0.00  0.00    -0.220 NA
ATOM     10  C   UNL     1      36.958 -24.936 -14.407  0.00  0.00    +0.134 C 
ATOM     11  C   UNL     1      36.150 -23.102 -13.488  0.00  0.00    +0.233 C 
ATOM     12  C   UNL     1      37.879 -24.339 -13.556  0.00  0.00    +0.050 C 
ATOM     13  C   UNL     1      37.270 -26.100 -15.082  0.00  0.00    +0.126 C 
ATOM     14  C   UNL     1      39.331 -25.986 -14.040  0.00  0.00    +0.209 C 
ENDBRANCH   4   6
BRANCH   2  15
ATOM     15  O   UNL     1      35.339 -22.734 -16.756  0.00  0.00    -0.378 OA
ATOM     16  H   UNL     1      34.843 -21.990 -16.379  0.00  0.00    +0.211 HD
ENDBRANCH   2  15
BRANCH   3  17
ATOM     17  O   UNL     1      32.863 -22.944 -17.937  0.00  0.00    -0.379 OA
ATOM     18  H   UNL     1      31.963 -22.586 -17.886  0.00  0.00    +0.211 HD
ENDBRANCH   3  17
BRANCH   5  19
ATOM     19  C   UNL     1      31.269 -23.110 -15.157  0.00  0.00    +0.186 C 
BRANCH  19  20
ATOM     20  O   UNL     1      30.491 -22.736 -16.282  0.00  0.00    -0.271 OA
BRANCH  20  21
ATOM     21  P   UNL     1      28.915 -23.104 -16.286  0.00  0.00    +0.473 P 
ATOM     22  O   UNL     1      28.318 -23.319 -17.646  0.00  0.00    -0.227 OA
BRANCH  21  23
ATOM     23  O   UNL     1      28.242 -21.920 -15.415  0.00  0.00    -0.303 OA
ATOM     24  H   UNL     1      27.296 -21.862 -15.624  0.00  0.00    +0.222 HD
ENDBRANCH  21  23
BRANCH  21  25
ATOM     25  O   UNL     1      28.841 -24.382 -15.298  0.00  0.00    -0.303 OA
ATOM     26  H   UNL     1      27.939 -24.738 -15.296  0.00  0.00    +0.222 HD
ENDBRANCH  21  25
ENDBRANCH  20  21
ENDBRANCH  19  20
ENDBRANCH   5  19
TORSDOF 8
ENDMDL
MODEL 7
REMARK VINA RESULT:      -7.6     13.066     15.430
REMARK  Name = 446857
REMARK  8 active torsions:
REMARK  status: ('A' for Active; 'I' for Inactive)
REMARK    1  A    between atoms: C_2  and  O_15
REMARK    2  A    between atoms: C_3  and  O_17
REMARK    3  A    between atoms: C_4  and  N_6
REMARK    4  A    between atoms: C_5  and  C_19
REMARK    5  A    between atoms: C_19  and  O_20
REMARK    6  A    between atoms: O_20  and  P_21
REMARK    7  A    between atoms: P_21  and  O_23
REMARK    8  A    between atoms: P_21  and  O_25
REMARK                            x       y       z     vdW  Elec       q    Type
REMARK                         _______ _______ _______ _____ _____    ______ ____
ROOT
ATOM      1  O   UNL     1      33.187 -12.156 -23.937  0.00  0.00    -0.333 OA
ATOM      2  C   UNL     1      32.984 -13.577 -22.033  0.00  0.00    +0.187 C 
ATOM      3  C   UNL     1      32.716 -12.145 -21.619  0.00  0.00    +0.171 C 
ATOM      4  C   UNL     1      33.752 -13.340 -23.332  0.00  0.00    +0.224 C 
ATOM      5  C   UNL     1      32.366 -11.498 -22.954  0.00  0.00    +0.176 C 
ENDROOT
BRANCH   4   6
ATOM      6  N   UNL     1      33.753 -14.449 -24.278  0.00  0.00    -0.253 N 
ATOM      7  N   UNL     1      33.381 -15.576 -26.173  0.00  0.00    -0.196 NA
ATOM      8  N   UNL     1      34.392 -17.670 -25.463  0.00  0.00    -0.170 NA
ATOM      9  N   UNL     1      35.285 -17.616 -23.194  0.00  0.00    -0.220 NA
ATOM     10  C   UNL     1      34.267 -15.704 -24.080  0.00  0.00    +0.134 C 
ATOM     11  C   UNL     1      33.233 -14.426 -25.550  0.00  0.00    +0.233 C 
ATOM     12  C   UNL     1      34.023 -16.381 -25.267  0.00  0.00    +0.050 C 
ATOM     13  C   UNL     1      34.907 -16.329 -23.028  0.00  0.00    +0.126 C 
ATOM     14  C   UNL     1      35.009 -18.199 -24.384  0.00  0.00    +0.209 C 
ENDBRANCH   4   6
BRANCH   2  15
ATOM     15  O   UNL     1      31.753 -14.247 -22.292  0.00  0.00    -0.378 OA
ATOM     16  H   UNL     1      31.110 -13.615 -22.650  0.00  0.00    +0.211 HD
ENDBRANCH   2  15
BRANCH   3  17
ATOM     17  O   UNL     1      31.669 -12.019 -20.680  0.00  0.00    -0.379 OA
ATOM     18  H   UNL     1      31.838 -11.255 -20.107  0.00  0.00    +0.211 HD
ENDBRANCH   3  17
BRANCH   5  19
ATOM     19  C   UNL     1      32.632 -10.004 -22.985  0.00  0.00    +0.186 C 
BRANCH  19  20
ATOM     20  O   UNL     1      32.189  -9.434 -21.764  0.00  0.00    -0.271 OA
BRANCH  20  21
ATOM     21  P   UNL     1      32.552  -7.887 -21.459  0.00  0.00    +0.473 P 
ATOM     22  O   UNL     1      31.450  -6.908 -21.744  0.00  0.00    -0.227 OA
BRANCH  21  23
ATOM     23  O   UNL     1      33.922  -7.644 -22.282  0.00  0.00    -0.303 OA
ATOM     24  H   UNL     1      33.853  -8.061 -23.155  0.00  0.00    +0.222 HD
ENDBRANCH  21  23
BRANCH  21  25
ATOM     25  O   UNL     1      33.046  -7.930 -19.919  0.00  0.00    -0.303 OA
ATOM     26  H   UNL     1      33.980  -7.676 -19.872  0.00  0.00    +0.222 HD
ENDBRANCH  21  25
ENDBRANCH  20  21
ENDBRANCH  19  20
ENDBRANCH   5  19
TORSDOF 8
ENDMDL
MODEL 8
REMARK VINA RESULT:      -7.5     12.358     14.715
REMARK  Name = 446857
REMARK  8 active torsions:
REMARK  status: ('A' for Active; 'I' for Inactive)
REMARK    1  A    between atoms: C_2  and  O_15
REMARK    2  A    between atoms: C_3  and  O_17
REMARK    3  A    between atoms: C_4  and  N_6
REMARK    4  A    between atoms: C_5  and  C_19
REMARK    5  A    between atoms: C_19  and  O_20
REMARK    6  A    between atoms: O_20  and  P_21
REMARK    7  A    between atoms: P_21  and  O_23
REMARK    8  A    between atoms: P_21  and  O_25
REMARK                            x       y       z     vdW  Elec       q    Type
REMARK                         _______ _______ _______ _____ _____    ______ ____
ROOT
ATOM      1  O   UNL     1      34.061 -13.129 -23.738  0.00  0.00    -0.333 OA
ATOM      2  C   UNL     1      32.899 -13.944 -21.822  0.00  0.00    +0.187 C 
ATOM      3  C   UNL     1      32.640 -12.458 -21.969  0.00  0.00    +0.171 C 
ATOM      4  C   UNL     1      34.173 -14.077 -22.653  0.00  0.00    +0.224 C 
ATOM      5  C   UNL     1      32.975 -12.231 -23.438  0.00  0.00    +0.176 C 
ENDROOT
BRANCH   4   6
ATOM      6  N   UNL     1      34.459 -15.411 -23.166  0.00  0.00    -0.253 N 
ATOM      7  N   UNL     1      34.714 -17.068 -24.645  0.00  0.00    -0.196 NA
ATOM      8  N   UNL     1      35.358 -18.782 -23.046  0.00  0.00    -0.170 NA
ATOM      9  N   UNL     1      35.433 -18.000 -20.736  0.00  0.00    -0.220 NA
ATOM     10  C   UNL     1      34.835 -16.511 -22.441  0.00  0.00    +0.134 C 
ATOM     11  C   UNL     1      34.401 -15.800 -24.482  0.00  0.00    +0.233 C 
ATOM     12  C   UNL     1      34.986 -17.522 -23.380  0.00  0.00    +0.050 C 
ATOM     13  C   UNL     1      35.062 -16.752 -21.100  0.00  0.00    +0.126 C 
ATOM     14  C   UNL     1      35.557 -18.925 -21.717  0.00  0.00    +0.209 C 
ENDBRANCH   4   6
BRANCH   2  15
ATOM     15  O   UNL     1      31.834 -14.684 -22.412  0.00  0.00    -0.378 OA
ATOM     16  H   UNL     1      31.774 -15.556 -21.991  0.00  0.00    +0.211 HD
ENDBRANCH   2  15
BRANCH   3  17
ATOM     17  O   UNL     1      31.312 -12.088 -21.666  0.00  0.00    -0.379 OA
ATOM     18  H   UNL     1      30.729 -12.348 -22.397  0.00  0.00    +0.211 HD
ENDBRANCH   3  17
BRANCH   5  19
ATOM     19  C   UNL     1      33.393 -10.804 -23.745  0.00  0.00    +0.186 C 
BRANCH  19  20
ATOM     20  O   UNL     1      32.294  -9.943 -23.499  0.00  0.00    -0.271 OA
BRANCH  20  21
ATOM     21  P   UNL     1      32.531  -8.636 -22.573  0.00  0.00    +0.473 P 
ATOM     22  O   UNL     1      33.861  -7.964 -22.752  0.00  0.00    -0.227 OA
BRANCH  21  23
ATOM     23  O   UNL     1      32.219  -9.165 -21.077  0.00  0.00    -0.303 OA
ATOM     24  H   UNL     1      32.458  -8.479 -20.435  0.00  0.00    +0.222 HD
ENDBRANCH  21  23
BRANCH  21  25
ATOM     25  O   UNL     1      31.248  -7.714 -22.916  0.00  0.00    -0.303 OA
ATOM     26  H   UNL     1      31.527  -6.789 -22.998  0.00  0.00    +0.222 HD
ENDBRANCH  21  25
ENDBRANCH  20  21
ENDBRANCH  19  20
ENDBRANCH   5  19
TORSDOF 8
ENDMDL
MODEL 9
REMARK VINA RESULT:      -7.5      4.427      6.997
REMARK  Name = 446857
REMARK  8 active torsions:
REMARK  status: ('A' for Active; 'I' for Inactive)
REMARK    1  A    between atoms: C_2  and  O_15
REMARK    2  A    between atoms: C_3  and  O_17
REMARK    3  A    between atoms: C_4  and  N_6
REMARK    4  A    between atoms: C_5  and  C_19
REMARK    5  A    between atoms: C_19  and  O_20
REMARK    6  A    between atoms: O_20  and  P_21
REMARK    7  A    between atoms: P_21  and  O_23
REMARK    8  A    between atoms: P_21  and  O_25
REMARK                            x       y       z     vdW  Elec       q    Type
REMARK                         _______ _______ _______ _____ _____    ______ ____
ROOT
ATOM      1  O   UNL     1      33.797 -23.070 -14.745  0.00  0.00    -0.333 OA
ATOM      2  C   UNL     1      34.101 -23.748 -17.011  0.00  0.00    +0.187 C 
ATOM      3  C   UNL     1      32.643 -23.405 -16.784  0.00  0.00    +0.171 C 
ATOM      4  C   UNL     1      34.547 -23.988 -15.570  0.00  0.00    +0.224 C 
ATOM      5  C   UNL     1      32.723 -22.529 -15.538  0.00  0.00    +0.176 C 
ENDROOT
BRANCH   4   6
ATOM      6  N   UNL     1      35.977 -23.853 -15.319  0.00  0.00    -0.253 N 
ATOM      7  N   UNL     1      37.961 -22.863 -15.031  0.00  0.00    -0.196 NA
ATOM      8  N   UNL     1      39.238 -24.893 -14.632  0.00  0.00    -0.170 NA
ATOM      9  N   UNL     1      37.903 -26.932 -14.715  0.00  0.00    -0.220 NA
ATOM     10  C   UNL     1      36.871 -24.861 -15.072  0.00  0.00    +0.134 C 
ATOM     11  C   UNL     1      36.683 -22.675 -15.283  0.00  0.00    +0.233 C 
ATOM     12  C   UNL     1      38.091 -24.221 -14.898  0.00  0.00    +0.050 C 
ATOM     13  C   UNL     1      36.774 -26.236 -14.979  0.00  0.00    +0.126 C 
ATOM     14  C   UNL     1      39.048 -26.228 -14.559  0.00  0.00    +0.209 C 
ENDBRANCH   4   6
BRANCH   2  15
ATOM     15  O   UNL     1      34.783 -22.627 -17.568  0.00  0.00    -0.378 OA
ATOM     16  H   UNL     1      34.757 -22.682 -18.537  0.00  0.00    +0.211 HD
ENDBRANCH   2  15
BRANCH   3  17
ATOM     17  O   UNL     1      32.050 -22.726 -17.870  0.00  0.00    -0.379 OA
ATOM     18  H   UNL     1      31.672 -21.888 -17.560  0.00  0.00    +0.211 HD
ENDBRANCH   3  17
BRANCH   5  19
ATOM     19  C   UNL     1      31.441 -22.523 -14.725  0.00  0.00    +0.186 C 
BRANCH  19  20
ATOM     20  O   UNL     1      30.737 -23.729 -14.973  0.00  0.00    -0.271 OA
BRANCH  20  21
ATOM     21  P   UNL     1      30.673 -24.840 -13.798  0.00  0.00    +0.473 P 
ATOM     22  O   UNL     1      30.364 -24.302 -12.431  0.00  0.00    -0.227 OA
BRANCH  21  23
ATOM     23  O   UNL     1      32.084 -25.620 -13.930  0.00  0.00    -0.303 OA
ATOM     24  H   UNL     1      32.420 -25.832 -13.046  0.00  0.00    +0.222 HD
ENDBRANCH  21  23
BRANCH  21  25
ATOM     25  O   UNL     1      29.603 -25.909 -14.370  0.00  0.00    -0.303 OA
ATOM     26  H   UNL     1      29.819 -26.794 -14.038  0.00  0.00    +0.222 HD
ENDBRANCH  21  25
ENDBRANCH  20  21
ENDBRANCH  19  20
ENDBRANCH   5  19
TORSDOF 8
ENDMDL
