MODEL 1
REMARK VINA RESULT:      -9.2      0.000      0.000
REMARK  Name = 122623
REMARK  5 active torsions:
REMARK  status: ('A' for Active; 'I' for Inactive)
REMARK    1  A    between atoms: C_3  and  C_13
REMARK    2  A    between atoms: C_7  and  O_17
REMARK    3  A    between atoms: C_10  and  C_16
REMARK    4  A    between atoms: O_17  and  C_18
REMARK    5  A    between atoms: C_18  and  C_19
REMARK                            x       y       z     vdW  Elec       q    Type
REMARK                         _______ _______ _______ _____ _____    ______ ____
ROOT
ATOM      1  O   UNL     1      31.701 -23.104 -17.625  0.00  0.00    -0.226 OA
ATOM      2  N   UNL     1      32.795 -23.637 -15.658  0.00  0.00    -0.239 N 
ATOM      3  C   UNL     1      33.959 -23.480 -14.797  0.00  0.00    +0.155 C 
ATOM      4  C   UNL     1      33.442 -23.788 -13.396  0.00  0.00    +0.031 C 
ATOM      5  C   UNL     1      32.293 -24.762 -13.645  0.00  0.00    +0.024 C 
ATOM      6  C   UNL     1      31.685 -24.262 -14.947  0.00  0.00    +0.097 C 
ATOM      7  C   UNL     1      32.719 -23.107 -16.937  0.00  0.00    +0.406 C 
ENDROOT
BRANCH   3  13
ATOM      8  O   UNL     1      34.712 -25.279 -16.150  0.00  0.00    -0.273 OA
ATOM      9  N   UNL     1      36.193 -24.440 -14.582  0.00  0.00    -0.273 N 
ATOM     10  C   UNL     1      37.344 -25.229 -15.000  0.00  0.00    +0.140 C 
ATOM     11  C   UNL     1      36.551 -23.513 -13.509  0.00  0.00    +0.094 C 
ATOM     12  C   UNL     1      38.537 -24.559 -14.330  0.00  0.00    +0.030 C 
ATOM     13  C   UNL     1      34.979 -24.482 -15.248  0.00  0.00    +0.244 C 
ATOM     14  C   UNL     1      37.938 -23.949 -13.064  0.00  0.00    +0.024 C 
BRANCH  10  16
ATOM     15  O   UNL     1      37.953 -27.524 -14.625  0.00  0.00    -0.286 OA
ATOM     16  C   UNL     1      37.131 -26.624 -14.493  0.00  0.00    +0.227 C 
ENDBRANCH  10  16
ENDBRANCH   3  13
BRANCH   7  17
ATOM     17  O   UNL     1      33.916 -22.585 -17.347  0.00  0.00    -0.430 OA
BRANCH  17  18
ATOM     18  C   UNL     1      34.319 -22.912 -18.683  0.00  0.00    +0.237 C 
BRANCH  18  19
ATOM     19  C   UNL     1      34.384 -21.653 -19.496  0.00  0.00    +0.021 C 
ATOM     20  C   UNL     1      35.621 -21.138 -19.869  0.00  0.00    -0.001 C 
ATOM     21  C   UNL     1      33.207 -21.012 -19.870  0.00  0.00    -0.001 C 
ATOM     22  C   UNL     1      35.681 -19.967 -20.626  0.00  0.00    -0.000 C 
ATOM     23  C   UNL     1      33.269 -19.841 -20.626  0.00  0.00    -0.000 C 
ATOM     24  C   UNL     1      34.506 -19.318 -21.004  0.00  0.00    -0.000 C 
ENDBRANCH  18  19
ENDBRANCH  17  18
ENDBRANCH   7  17
TORSDOF 5
ENDMDL
MODEL 2
REMARK VINA RESULT:      -9.0      1.814      4.262
REMARK  Name = 122623
REMARK  5 active torsions:
REMARK  status: ('A' for Active; 'I' for Inactive)
REMARK    1  A    between atoms: C_3  and  C_13
REMARK    2  A    between atoms: C_7  and  O_17
REMARK    3  A    between atoms: C_10  and  C_16
REMARK    4  A    between atoms: O_17  and  C_18
REMARK    5  A    between atoms: C_18  and  C_19
REMARK                            x       y       z     vdW  Elec       q    Type
REMARK                         _______ _______ _______ _____ _____    ______ ____
ROOT
ATOM      1  O   UNL     1      37.236 -21.737 -16.901  0.00  0.00    -0.226 OA
ATOM      2  N   UNL     1      36.268 -23.506 -15.766  0.00  0.00    -0.239 N 
ATOM      3  C   UNL     1      35.127 -24.390 -15.575  0.00  0.00    +0.155 C 
ATOM      4  C   UNL     1      35.721 -25.654 -14.964  0.00  0.00    +0.031 C 
ATOM      5  C   UNL     1      36.946 -25.144 -14.208  0.00  0.00    +0.024 C 
ATOM      6  C   UNL     1      37.457 -24.014 -15.090  0.00  0.00    +0.097 C 
ATOM      7  C   UNL     1      36.248 -22.411 -16.617  0.00  0.00    +0.406 C 
ENDROOT
BRANCH   3  13
ATOM      8  O   UNL     1      34.597 -23.270 -13.551  0.00  0.00    -0.273 OA
ATOM      9  N   UNL     1      32.874 -23.604 -15.059  0.00  0.00    -0.273 N 
ATOM     10  C   UNL     1      31.872 -22.827 -14.342  0.00  0.00    +0.140 C 
ATOM     11  C   UNL     1      32.348 -24.099 -16.330  0.00  0.00    +0.094 C 
ATOM     12  C   UNL     1      30.754 -22.609 -15.354  0.00  0.00    +0.030 C 
ATOM     13  C   UNL     1      34.189 -23.701 -14.631  0.00  0.00    +0.244 C 
ATOM     14  C   UNL     1      30.852 -23.833 -16.262  0.00  0.00    +0.024 C 
BRANCH  10  16
ATOM     15  O   UNL     1      31.547 -24.877 -13.129  0.00  0.00    -0.286 OA
ATOM     16  C   UNL     1      31.416 -23.659 -13.180  0.00  0.00    +0.227 C 
ENDBRANCH  10  16
ENDBRANCH   3  13
BRANCH   7  17
ATOM     17  O   UNL     1      34.993 -22.167 -17.108  0.00  0.00    -0.430 OA
BRANCH  17  18
ATOM     18  C   UNL     1      34.721 -22.679 -18.418  0.00  0.00    +0.237 C 
BRANCH  18  19
ATOM     19  C   UNL     1      34.462 -21.530 -19.348  0.00  0.00    +0.021 C 
ATOM     20  C   UNL     1      35.532 -20.880 -19.953  0.00  0.00    -0.001 C 
ATOM     21  C   UNL     1      33.155 -21.126 -19.596  0.00  0.00    -0.001 C 
ATOM     22  C   UNL     1      35.291 -19.813 -20.819  0.00  0.00    -0.000 C 
ATOM     23  C   UNL     1      32.915 -20.058 -20.461  0.00  0.00    -0.000 C 
ATOM     24  C   UNL     1      33.984 -19.401 -21.072  0.00  0.00    -0.000 C 
ENDBRANCH  18  19
ENDBRANCH  17  18
ENDBRANCH   7  17
TORSDOF 5
ENDMDL
MODEL 3
REMARK VINA RESULT:      -8.5      8.454     11.978
REMARK  Name = 122623
REMARK  5 active torsions:
REMARK  status: ('A' for Active; 'I' for Inactive)
REMARK    1  A    between atoms: C_3  and  C_13
REMARK    2  A    between atoms: C_7  and  O_17
REMARK    3  A    between atoms: C_10  and  C_16
REMARK    4  A    between atoms: O_17  and  C_18
REMARK    5  A    between atoms: C_18  and  C_19
REMARK                            x       y       z     vdW  Elec       q    Type
REMARK                         _______ _______ _______ _____ _____    ______ ____
ROOT
ATOM      1  O   UNL     1      33.145 -16.328 -26.613  0.00  0.00    -0.226 OA
ATOM      2  N   UNL     1      33.487 -14.297 -25.558  0.00  0.00    -0.239 N 
ATOM      3  C   UNL     1      34.033 -13.555 -24.431  0.00  0.00    +0.155 C 
ATOM      4  C   UNL     1      34.269 -12.151 -24.977  0.00  0.00    +0.031 C 
ATOM      5  C   UNL     1      33.211 -12.010 -26.070  0.00  0.00    +0.024 C 
ATOM      6  C   UNL     1      33.128 -13.411 -26.659  0.00  0.00    +0.097 C 
ATOM      7  C   UNL     1      33.469 -15.683 -25.618  0.00  0.00    +0.406 C 
ENDROOT
BRANCH   3  13
ATOM      8  O   UNL     1      31.885 -13.065 -23.548  0.00  0.00    -0.273 OA
ATOM      9  N   UNL     1      33.380 -14.156 -22.157  0.00  0.00    -0.273 N 
ATOM     10  C   UNL     1      32.447 -14.395 -21.065  0.00  0.00    +0.140 C 
ATOM     11  C   UNL     1      34.682 -14.760 -21.881  0.00  0.00    +0.094 C 
ATOM     12  C   UNL     1      33.135 -15.435 -20.188  0.00  0.00    +0.030 C 
ATOM     13  C   UNL     1      32.994 -13.566 -23.351  0.00  0.00    +0.244 C 
ATOM     14  C   UNL     1      34.621 -15.165 -20.416  0.00  0.00    +0.024 C 
BRANCH  10  16
ATOM     15  O   UNL     1      31.351 -12.311 -20.581  0.00  0.00    -0.286 OA
ATOM     16  C   UNL     1      32.266 -13.092 -20.345  0.00  0.00    +0.227 C 
ENDBRANCH  10  16
ENDBRANCH   3  13
BRANCH   7  17
ATOM     17  O   UNL     1      33.857 -16.252 -24.435  0.00  0.00    -0.430 OA
BRANCH  17  18
ATOM     18  C   UNL     1      34.915 -17.215 -24.518  0.00  0.00    +0.237 C 
BRANCH  18  19
ATOM     19  C   UNL     1      34.979 -17.983 -23.231  0.00  0.00    +0.021 C 
ATOM     20  C   UNL     1      36.161 -18.000 -22.499  0.00  0.00    -0.001 C 
ATOM     21  C   UNL     1      33.857 -18.672 -22.783  0.00  0.00    -0.001 C 
ATOM     22  C   UNL     1      36.222 -18.715 -21.302  0.00  0.00    -0.000 C 
ATOM     23  C   UNL     1      33.919 -19.386 -21.586  0.00  0.00    -0.000 C 
ATOM     24  C   UNL     1      35.101 -19.408 -20.846  0.00  0.00    -0.000 C 
ENDBRANCH  18  19
ENDBRANCH  17  18
ENDBRANCH   7  17
TORSDOF 5
ENDMDL
MODEL 4
REMARK VINA RESULT:      -8.5      2.489      5.678
REMARK  Name = 122623
REMARK  5 active torsions:
REMARK  status: ('A' for Active; 'I' for Inactive)
REMARK    1  A    between atoms: C_3  and  C_13
REMARK    2  A    between atoms: C_7  and  O_17
REMARK    3  A    between atoms: C_10  and  C_16
REMARK    4  A    between atoms: O_17  and  C_18
REMARK    5  A    between atoms: C_18  and  C_19
REMARK                            x       y       z     vdW  Elec       q    Type
REMARK                         _______ _______ _______ _____ _____    ______ ____
ROOT
ATOM      1  O   UNL     1      35.081 -22.771 -16.078  0.00  0.00    -0.226 OA
ATOM      2  N   UNL     1      33.200 -23.707 -15.110  0.00  0.00    -0.239 N 
ATOM      3  C   UNL     1      31.877 -24.294 -15.269  0.00  0.00    +0.155 C 
ATOM      4  C   UNL     1      31.697 -25.172 -14.036  0.00  0.00    +0.031 C 
ATOM      5  C   UNL     1      32.550 -24.478 -12.976  0.00  0.00    +0.024 C 
ATOM      6  C   UNL     1      33.732 -23.943 -13.772  0.00  0.00    +0.097 C 
ATOM      7  C   UNL     1      33.912 -23.142 -16.157  0.00  0.00    +0.406 C 
ENDROOT
BRANCH   3  13
ATOM      8  O   UNL     1      31.145 -22.105 -14.717  0.00  0.00    -0.273 OA
ATOM      9  N   UNL     1      29.723 -23.406 -15.998  0.00  0.00    -0.273 N 
ATOM     10  C   UNL     1      28.738 -22.366 -16.261  0.00  0.00    +0.140 C 
ATOM     11  C   UNL     1      29.385 -24.643 -16.700  0.00  0.00    +0.094 C 
ATOM     12  C   UNL     1      27.891 -22.915 -17.403  0.00  0.00    +0.030 C 
ATOM     13  C   UNL     1      30.894 -23.163 -15.298  0.00  0.00    +0.244 C 
ATOM     14  C   UNL     1      27.968 -24.428 -17.208  0.00  0.00    +0.024 C 
BRANCH  10  16
ATOM     15  O   UNL     1      26.709 -22.134 -14.992  0.00  0.00    -0.286 OA
ATOM     16  C   UNL     1      27.934 -22.192 -15.007  0.00  0.00    +0.227 C 
ENDBRANCH  10  16
ENDBRANCH   3  13
BRANCH   7  17
ATOM     17  O   UNL     1      33.159 -23.046 -17.296  0.00  0.00    -0.430 OA
BRANCH  17  18
ATOM     18  C   UNL     1      33.828 -23.367 -18.521  0.00  0.00    +0.237 C 
BRANCH  18  19
ATOM     19  C   UNL     1      34.060 -22.105 -19.298  0.00  0.00    +0.021 C 
ATOM     20  C   UNL     1      35.358 -21.726 -19.623  0.00  0.00    -0.001 C 
ATOM     21  C   UNL     1      32.975 -21.326 -19.686  0.00  0.00    -0.001 C 
ATOM     22  C   UNL     1      35.573 -20.552 -20.346  0.00  0.00    -0.000 C 
ATOM     23  C   UNL     1      33.191 -20.152 -20.409  0.00  0.00    -0.000 C 
ATOM     24  C   UNL     1      34.491 -19.765 -20.739  0.00  0.00    -0.000 C 
ENDBRANCH  18  19
ENDBRANCH  17  18
ENDBRANCH   7  17
TORSDOF 5
ENDMDL
MODEL 5
REMARK VINA RESULT:      -8.4      9.094     12.827
REMARK  Name = 122623
REMARK  5 active torsions:
REMARK  status: ('A' for Active; 'I' for Inactive)
REMARK    1  A    between atoms: C_3  and  C_13
REMARK    2  A    between atoms: C_7  and  O_17
REMARK    3  A    between atoms: C_10  and  C_16
REMARK    4  A    between atoms: O_17  and  C_18
REMARK    5  A    between atoms: C_18  and  C_19
REMARK                            x       y       z     vdW  Elec       q    Type
REMARK                         _______ _______ _______ _____ _____    ______ ____
ROOT
ATOM      1  O   UNL     1      33.727 -10.641 -24.660  0.00  0.00    -0.226 OA
ATOM      2  N   UNL     1      33.436 -12.899 -25.075  0.00  0.00    -0.239 N 
ATOM      3  C   UNL     1      32.946 -14.195 -24.629  0.00  0.00    +0.155 C 
ATOM      4  C   UNL     1      32.682 -14.968 -25.917  0.00  0.00    +0.031 C 
ATOM      5  C   UNL     1      33.684 -14.371 -26.903  0.00  0.00    +0.024 C 
ATOM      6  C   UNL     1      33.739 -12.904 -26.502  0.00  0.00    +0.097 C 
ATOM      7  C   UNL     1      33.452 -11.773 -24.266  0.00  0.00    +0.406 C 
ENDROOT
BRANCH   3  13
ATOM      8  O   UNL     1      35.133 -15.067 -24.326  0.00  0.00    -0.273 OA
ATOM      9  N   UNL     1      33.714 -15.103 -22.497  0.00  0.00    -0.273 N 
ATOM     10  C   UNL     1      34.702 -15.560 -21.529  0.00  0.00    +0.140 C 
ATOM     11  C   UNL     1      32.431 -14.831 -21.853  0.00  0.00    +0.094 C 
ATOM     12  C   UNL     1      34.063 -15.299 -20.171  0.00  0.00    +0.030 C 
ATOM     13  C   UNL     1      34.037 -14.823 -23.816  0.00  0.00    +0.244 C 
ATOM     14  C   UNL     1      32.567 -15.411 -20.454  0.00  0.00    +0.024 C 
BRANCH  10  16
ATOM     15  O   UNL     1      35.335 -17.798 -20.919  0.00  0.00    -0.286 OA
ATOM     16  C   UNL     1      34.912 -17.026 -21.772  0.00  0.00    +0.227 C 
ENDBRANCH  10  16
ENDBRANCH   3  13
BRANCH   7  17
ATOM     17  O   UNL     1      33.125 -12.069 -22.970  0.00  0.00    -0.430 OA
BRANCH  17  18
ATOM     18  C   UNL     1      31.775 -11.784 -22.583  0.00  0.00    +0.237 C 
BRANCH  18  19
ATOM     19  C   UNL     1      31.788 -10.947 -21.339  0.00  0.00    +0.021 C 
ATOM     20  C   UNL     1      31.513 -11.537 -20.110  0.00  0.00    -0.001 C 
ATOM     21  C   UNL     1      32.075  -9.589 -21.425  0.00  0.00    -0.001 C 
ATOM     22  C   UNL     1      31.526 -10.758 -18.952  0.00  0.00    -0.000 C 
ATOM     23  C   UNL     1      32.087  -8.811 -20.267  0.00  0.00    -0.000 C 
ATOM     24  C   UNL     1      31.813  -9.395 -19.030  0.00  0.00    -0.000 C 
ENDBRANCH  18  19
ENDBRANCH  17  18
ENDBRANCH   7  17
TORSDOF 5
ENDMDL
MODEL 6
REMARK VINA RESULT:      -8.0      9.313     13.307
REMARK  Name = 122623
REMARK  5 active torsions:
REMARK  status: ('A' for Active; 'I' for Inactive)
REMARK    1  A    between atoms: C_3  and  C_13
REMARK    2  A    between atoms: C_7  and  O_17
REMARK    3  A    between atoms: C_10  and  C_16
REMARK    4  A    between atoms: O_17  and  C_18
REMARK    5  A    between atoms: C_18  and  C_19
REMARK                            x       y       z     vdW  Elec       q    Type
REMARK                         _______ _______ _______ _____ _____    ______ ____
ROOT
ATOM      1  O   UNL     1      33.831 -10.323 -24.679  0.00  0.00    -0.226 OA
ATOM      2  N   UNL     1      33.442 -12.581 -25.001  0.00  0.00    -0.239 N 
ATOM      3  C   UNL     1      32.911 -13.839 -24.495  0.00  0.00    +0.155 C 
ATOM      4  C   UNL     1      32.587 -14.648 -25.746  0.00  0.00    +0.031 C 
ATOM      5  C   UNL     1      33.588 -14.129 -26.776  0.00  0.00    +0.024 C 
ATOM      6  C   UNL     1      33.710 -12.652 -26.433  0.00  0.00    +0.097 C 
ATOM      7  C   UNL     1      33.521 -11.427 -24.236  0.00  0.00    +0.406 C 
ENDROOT
BRANCH   3  13
ATOM      8  O   UNL     1      35.116 -14.654 -24.166  0.00  0.00    -0.273 OA
ATOM      9  N   UNL     1      33.639 -14.850 -22.395  0.00  0.00    -0.273 N 
ATOM     10  C   UNL     1      34.609 -15.334 -21.422  0.00  0.00    +0.140 C 
ATOM     11  C   UNL     1      32.326 -14.661 -21.782  0.00  0.00    +0.094 C 
ATOM     12  C   UNL     1      33.916 -15.178 -20.074  0.00  0.00    +0.030 C 
ATOM     13  C   UNL     1      33.996 -14.479 -23.682  0.00  0.00    +0.244 C 
ATOM     14  C   UNL     1      32.434 -15.323 -20.417  0.00  0.00    +0.024 C 
BRANCH  10  16
ATOM     15  O   UNL     1      35.327 -17.576 -20.935  0.00  0.00    -0.286 OA
ATOM     16  C   UNL     1      34.878 -16.774 -21.746  0.00  0.00    +0.227 C 
ENDBRANCH  10  16
ENDBRANCH   3  13
BRANCH   7  17
ATOM     17  O   UNL     1      33.213 -11.661 -22.923  0.00  0.00    -0.430 OA
BRANCH  17  18
ATOM     18  C   UNL     1      31.894 -11.284 -22.511  0.00  0.00    +0.237 C 
BRANCH  18  19
ATOM     19  C   UNL     1      31.922  -9.871 -22.009  0.00  0.00    +0.021 C 
ATOM     20  C   UNL     1      31.592  -8.828 -22.868  0.00  0.00    -0.001 C 
ATOM     21  C   UNL     1      32.279  -9.616 -20.689  0.00  0.00    -0.001 C 
ATOM     22  C   UNL     1      31.619  -7.514 -22.400  0.00  0.00    -0.000 C 
ATOM     23  C   UNL     1      32.305  -8.301 -20.222  0.00  0.00    -0.000 C 
ATOM     24  C   UNL     1      31.975  -7.250 -21.079  0.00  0.00    -0.000 C 
ENDBRANCH  18  19
ENDBRANCH  17  18
ENDBRANCH   7  17
TORSDOF 5
ENDMDL
MODEL 7
REMARK VINA RESULT:      -7.9     10.695     14.184
REMARK  Name = 122623
REMARK  5 active torsions:
REMARK  status: ('A' for Active; 'I' for Inactive)
REMARK    1  A    between atoms: C_3  and  C_13
REMARK    2  A    between atoms: C_7  and  O_17
REMARK    3  A    between atoms: C_10  and  C_16
REMARK    4  A    between atoms: O_17  and  C_18
REMARK    5  A    between atoms: C_18  and  C_19
REMARK                            x       y       z     vdW  Elec       q    Type
REMARK                         _______ _______ _______ _____ _____    ______ ____
ROOT
ATOM      1  O   UNL     1      30.823 -11.554 -20.681  0.00  0.00    -0.226 OA
ATOM      2  N   UNL     1      32.484 -12.990 -21.412  0.00  0.00    -0.239 N 
ATOM      3  C   UNL     1      33.583 -13.261 -22.327  0.00  0.00    +0.155 C 
ATOM      4  C   UNL     1      34.459 -14.265 -21.587  0.00  0.00    +0.031 C 
ATOM      5  C   UNL     1      33.471 -15.008 -20.690  0.00  0.00    +0.024 C 
ATOM      6  C   UNL     1      32.475 -13.928 -20.295  0.00  0.00    +0.097 C 
ATOM      7  C   UNL     1      31.662 -11.878 -21.519  0.00  0.00    +0.406 C 
ENDROOT
BRANCH   3  13
ATOM      8  O   UNL     1      32.223 -14.816 -23.495  0.00  0.00    -0.273 OA
ATOM      9  N   UNL     1      33.361 -13.246 -24.758  0.00  0.00    -0.273 N 
ATOM     10  C   UNL     1      32.751 -13.588 -26.036  0.00  0.00    +0.140 C 
ATOM     11  C   UNL     1      34.260 -12.102 -24.892  0.00  0.00    +0.094 C 
ATOM     12  C   UNL     1      33.092 -12.418 -26.953  0.00  0.00    +0.030 C 
ATOM     13  C   UNL     1      32.986 -13.851 -23.569  0.00  0.00    +0.244 C 
ATOM     14  C   UNL     1      34.414 -11.900 -26.391  0.00  0.00    +0.024 C 
BRANCH  10  16
ATOM     15  O   UNL     1      32.764 -15.903 -26.684  0.00  0.00    -0.286 OA
ATOM     16  C   UNL     1      33.388 -14.863 -26.503  0.00  0.00    +0.227 C 
ENDBRANCH  10  16
ENDBRANCH   3  13
BRANCH   7  17
ATOM     17  O   UNL     1      31.893 -11.179 -22.673  0.00  0.00    -0.430 OA
BRANCH  17  18
ATOM     18  C   UNL     1      31.322  -9.867 -22.738  0.00  0.00    +0.237 C 
BRANCH  18  19
ATOM     19  C   UNL     1      32.361  -8.905 -23.232  0.00  0.00    +0.021 C 
ATOM     20  C   UNL     1      33.678  -9.328 -23.377  0.00  0.00    -0.001 C 
ATOM     21  C   UNL     1      31.999  -7.598 -23.541  0.00  0.00    -0.001 C 
ATOM     22  C   UNL     1      34.645  -8.433 -23.837  0.00  0.00    -0.000 C 
ATOM     23  C   UNL     1      32.966  -6.704 -24.001  0.00  0.00    -0.000 C 
ATOM     24  C   UNL     1      34.290  -7.121 -24.148  0.00  0.00    -0.000 C 
ENDBRANCH  18  19
ENDBRANCH  17  18
ENDBRANCH   7  17
TORSDOF 5
ENDMDL
MODEL 8
REMARK VINA RESULT:      -7.8      0.913      1.059
REMARK  Name = 122623
REMARK  5 active torsions:
REMARK  status: ('A' for Active; 'I' for Inactive)
REMARK    1  A    between atoms: C_3  and  C_13
REMARK    2  A    between atoms: C_7  and  O_17
REMARK    3  A    between atoms: C_10  and  C_16
REMARK    4  A    between atoms: O_17  and  C_18
REMARK    5  A    between atoms: C_18  and  C_19
REMARK                            x       y       z     vdW  Elec       q    Type
REMARK                         _______ _______ _______ _____ _____    ______ ____
ROOT
ATOM      1  O   UNL     1      32.003 -23.628 -16.545  0.00  0.00    -0.226 OA
ATOM      2  N   UNL     1      33.633 -23.790 -14.911  0.00  0.00    -0.239 N 
ATOM      3  C   UNL     1      34.972 -23.454 -14.448  0.00  0.00    +0.155 C 
ATOM      4  C   UNL     1      34.885 -23.543 -12.929  0.00  0.00    +0.031 C 
ATOM      5  C   UNL     1      33.792 -24.585 -12.694  0.00  0.00    +0.024 C 
ATOM      6  C   UNL     1      32.813 -24.327 -13.830  0.00  0.00    +0.097 C 
ATOM      7  C   UNL     1      33.167 -23.482 -16.180  0.00  0.00    +0.406 C 
ENDROOT
BRANCH   3  13
ATOM      8  O   UNL     1      35.579 -25.139 -16.005  0.00  0.00    -0.273 OA
ATOM      9  N   UNL     1      37.113 -24.622 -14.350  0.00  0.00    -0.273 N 
ATOM     10  C   UNL     1      38.194 -25.453 -14.861  0.00  0.00    +0.140 C 
ATOM     11  C   UNL     1      37.539 -23.863 -13.177  0.00  0.00    +0.094 C 
ATOM     12  C   UNL     1      39.435 -24.974 -14.117  0.00  0.00    +0.030 C 
ATOM     13  C   UNL     1      35.905 -24.480 -15.015  0.00  0.00    +0.244 C 
ATOM     14  C   UNL     1      38.880 -24.467 -12.788  0.00  0.00    +0.024 C 
BRANCH  10  16
ATOM     15  O   UNL     1      37.203 -27.608 -15.253  0.00  0.00    -0.286 OA
ATOM     16  C   UNL     1      37.857 -26.875 -14.520  0.00  0.00    +0.227 C 
ENDBRANCH  10  16
ENDBRANCH   3  13
BRANCH   7  17
ATOM     17  O   UNL     1      34.161 -22.993 -16.986  0.00  0.00    -0.430 OA
BRANCH  17  18
ATOM     18  C   UNL     1      34.011 -23.242 -18.388  0.00  0.00    +0.237 C 
BRANCH  18  19
ATOM     19  C   UNL     1      34.507 -22.050 -19.153  0.00  0.00    +0.021 C 
ATOM     20  C   UNL     1      35.870 -21.777 -19.193  0.00  0.00    -0.001 C 
ATOM     21  C   UNL     1      33.600 -21.229 -19.814  0.00  0.00    -0.001 C 
ATOM     22  C   UNL     1      36.331 -20.669 -19.904  0.00  0.00    -0.000 C 
ATOM     23  C   UNL     1      34.062 -20.121 -20.524  0.00  0.00    -0.000 C 
ATOM     24  C   UNL     1      35.428 -19.841 -20.569  0.00  0.00    -0.000 C 
ENDBRANCH  18  19
ENDBRANCH  17  18
ENDBRANCH   7  17
TORSDOF 5
ENDMDL
MODEL 9
REMARK VINA RESULT:      -7.8     14.209     17.848
REMARK  Name = 122623
REMARK  5 active torsions:
REMARK  status: ('A' for Active; 'I' for Inactive)
REMARK    1  A    between atoms: C_3  and  C_13
REMARK    2  A    between atoms: C_7  and  O_17
REMARK    3  A    between atoms: C_10  and  C_16
REMARK    4  A    between atoms: O_17  and  C_18
REMARK    5  A    between atoms: C_18  and  C_19
REMARK                            x       y       z     vdW  Elec       q    Type
REMARK                         _______ _______ _______ _____ _____    ______ ____
ROOT
ATOM      1  O   UNL     1      30.075  -5.162 -22.538  0.00  0.00    -0.226 OA
ATOM      2  N   UNL     1      31.799  -6.586 -21.945  0.00  0.00    -0.239 N 
ATOM      3  C   UNL     1      32.983  -7.339 -22.334  0.00  0.00    +0.155 C 
ATOM      4  C   UNL     1      33.781  -7.490 -21.043  0.00  0.00    +0.031 C 
ATOM      5  C   UNL     1      32.708  -7.474 -19.956  0.00  0.00    +0.024 C 
ATOM      6  C   UNL     1      31.679  -6.491 -20.495  0.00  0.00    +0.097 C 
ATOM      7  C   UNL     1      30.993  -5.916 -22.853  0.00  0.00    +0.406 C 
ENDROOT
BRANCH   3  13
ATOM      8  O   UNL     1      31.386  -9.078 -22.574  0.00  0.00    -0.273 OA
ATOM      9  N   UNL     1      33.421  -9.352 -23.644  0.00  0.00    -0.273 N 
ATOM     10  C   UNL     1      33.069 -10.569 -24.361  0.00  0.00    +0.140 C 
ATOM     11  C   UNL     1      34.762  -8.897 -24.003  0.00  0.00    +0.094 C 
ATOM     12  C   UNL     1      34.153 -10.721 -25.421  0.00  0.00    +0.030 C 
ATOM     13  C   UNL     1      32.512  -8.662 -22.856  0.00  0.00    +0.244 C 
ATOM     14  C   UNL     1      35.369 -10.051 -24.785  0.00  0.00    +0.024 C 
BRANCH  10  16
ATOM     15  O   UNL     1      33.512 -12.817 -23.632  0.00  0.00    -0.286 OA
ATOM     16  C   UNL     1      33.101 -11.693 -23.368  0.00  0.00    +0.227 C 
ENDBRANCH  10  16
ENDBRANCH   3  13
BRANCH   7  17
ATOM     17  O   UNL     1      31.338  -6.195 -24.148  0.00  0.00    -0.430 OA
BRANCH  17  18
ATOM     18  C   UNL     1      31.248  -5.103 -25.071  0.00  0.00    +0.237 C 
BRANCH  18  19
ATOM     19  C   UNL     1      32.543  -4.984 -25.818  0.00  0.00    +0.021 C 
ATOM     20  C   UNL     1      33.587  -5.856 -25.527  0.00  0.00    -0.001 C 
ATOM     21  C   UNL     1      32.689  -4.004 -26.794  0.00  0.00    -0.001 C 
ATOM     22  C   UNL     1      34.792  -5.745 -26.222  0.00  0.00    -0.000 C 
ATOM     23  C   UNL     1      33.894  -3.894 -27.488  0.00  0.00    -0.000 C 
ATOM     24  C   UNL     1      34.946  -4.765 -27.202  0.00  0.00    -0.000 C 
ENDBRANCH  18  19
ENDBRANCH  17  18
ENDBRANCH   7  17
TORSDOF 5
ENDMDL
