MODEL 1
REMARK VINA RESULT:      -8.4      0.000      0.000
REMARK  Name = 1522
REMARK  3 active torsions:
REMARK  status: ('A' for Active; 'I' for Inactive)
REMARK    1  A    between atoms: N_14  and  C_16
REMARK    2  A    between atoms: C_16  and  C_17
REMARK    3  A    between atoms: C_17  and  O_18
REMARK                            x       y       z     vdW  Elec       q    Type
REMARK                         _______ _______ _______ _____ _____    ______ ____
ROOT
ATOM      1  N   UNL     1      34.415 -16.800 -24.411  0.00  0.00    -0.223 N 
ATOM      2  N   UNL     1      34.703 -15.108 -22.963  0.00  0.00    -0.381 NA
ATOM      3  N   UNL     1      33.449 -15.559 -26.276  0.00  0.00    -0.226 NA
ATOM      4  N   UNL     1      33.242 -13.184 -25.761  0.00  0.00    -0.227 NA
ATOM      5  C   UNL     1      34.152 -14.637 -24.128  0.00  0.00    +0.196 C 
ATOM      6  C   UNL     1      33.965 -15.665 -25.039  0.00  0.00    +0.171 C 
ATOM      7  C   UNL     1      34.855 -16.404 -23.146  0.00  0.00    +0.192 C 
ATOM      8  C   UNL     1      33.770 -13.360 -24.526  0.00  0.00    +0.159 C 
ATOM      9  C   UNL     1      34.462 -18.116 -24.863  0.00  0.00    +0.073 C 
ATOM     10  C   UNL     1      35.375 -17.423 -22.295  0.00  0.00    +0.048 C 
ATOM     11  C   UNL     1      34.953 -19.069 -24.052  0.00  0.00    +0.017 C 
ATOM     12  C   UNL     1      35.422 -18.698 -22.728  0.00  0.00    +0.005 C 
ATOM     13  C   UNL     1      33.117 -14.279 -26.548  0.00  0.00    +0.253 C 
ATOM     14  N   UNL     1      33.927 -12.263 -23.663  0.00  0.00    -0.314 N 
ATOM     15  H   UNL     1      34.312 -12.419 -22.771  0.00  0.00    +0.148 HD
ENDROOT
BRANCH  14  16
ATOM     16  C   UNL     1      33.550 -10.927 -24.020  0.00  0.00    +0.120 C 
BRANCH  16  17
ATOM     17  C   UNL     1      34.780 -10.085 -24.320  0.00  0.00    +0.158 C 
BRANCH  17  18
ATOM     18  O   UNL     1      35.430 -10.616 -25.467  0.00  0.00    -0.380 OA
ATOM     19  H   UNL     1      35.706 -11.529 -25.288  0.00  0.00    +0.211 HD
ENDBRANCH  17  18
ENDBRANCH  16  17
ENDBRANCH  14  16
TORSDOF 3
ENDMDL
MODEL 2
REMARK VINA RESULT:      -8.4     12.490     14.627
REMARK  Name = 1522
REMARK  3 active torsions:
REMARK  status: ('A' for Active; 'I' for Inactive)
REMARK    1  A    between atoms: N_14  and  C_16
REMARK    2  A    between atoms: C_16  and  C_17
REMARK    3  A    between atoms: C_17  and  O_18
REMARK                            x       y       z     vdW  Elec       q    Type
REMARK                         _______ _______ _______ _____ _____    ______ ____
ROOT
ATOM      1  N   UNL     1      33.290 -23.687 -14.538  0.00  0.00    -0.223 N 
ATOM      2  N   UNL     1      34.934 -24.286 -15.945  0.00  0.00    -0.381 NA
ATOM      3  N   UNL     1      34.373 -24.226 -12.419  0.00  0.00    -0.226 NA
ATOM      4  N   UNL     1      36.617 -25.118 -12.761  0.00  0.00    -0.227 NA
ATOM      5  C   UNL     1      35.325 -24.506 -14.649  0.00  0.00    +0.196 C 
ATOM      6  C   UNL     1      34.326 -24.143 -13.760  0.00  0.00    +0.171 C 
ATOM      7  C   UNL     1      33.713 -23.795 -15.864  0.00  0.00    +0.192 C 
ATOM      8  C   UNL     1      36.503 -25.008 -14.107  0.00  0.00    +0.159 C 
ATOM      9  C   UNL     1      32.039 -23.198 -14.168  0.00  0.00    +0.073 C 
ATOM     10  C   UNL     1      32.795 -23.376 -16.871  0.00  0.00    +0.048 C 
ATOM     11  C   UNL     1      31.181 -22.807 -15.125  0.00  0.00    +0.017 C 
ATOM     12  C   UNL     1      31.584 -22.903 -16.519  0.00  0.00    +0.005 C 
ATOM     13  C   UNL     1      35.560 -24.725 -12.012  0.00  0.00    +0.253 C 
ATOM     14  N   UNL     1      37.566 -25.399 -14.938  0.00  0.00    -0.314 N 
ATOM     15  H   UNL     1      37.458 -25.309 -15.912  0.00  0.00    +0.148 HD
ENDROOT
BRANCH  14  16
ATOM     16  C   UNL     1      38.802 -25.923 -14.435  0.00  0.00    +0.120 C 
BRANCH  16  17
ATOM     17  C   UNL     1      39.985 -25.189 -15.046  0.00  0.00    +0.158 C 
BRANCH  17  18
ATOM     18  O   UNL     1      40.488 -25.957 -16.131  0.00  0.00    -0.380 OA
ATOM     19  H   UNL     1      40.665 -26.863 -15.832  0.00  0.00    +0.211 HD
ENDBRANCH  17  18
ENDBRANCH  16  17
ENDBRANCH  14  16
TORSDOF 3
ENDMDL
MODEL 3
REMARK VINA RESULT:      -7.8     10.434     13.232
REMARK  Name = 1522
REMARK  3 active torsions:
REMARK  status: ('A' for Active; 'I' for Inactive)
REMARK    1  A    between atoms: N_14  and  C_16
REMARK    2  A    between atoms: C_16  and  C_17
REMARK    3  A    between atoms: C_17  and  O_18
REMARK                            x       y       z     vdW  Elec       q    Type
REMARK                         _______ _______ _______ _____ _____    ______ ____
ROOT
ATOM      1  N   UNL     1      34.760 -22.607 -17.365  0.00  0.00    -0.223 N 
ATOM      2  N   UNL     1      36.784 -22.446 -16.404  0.00  0.00    -0.381 NA
ATOM      3  N   UNL     1      33.574 -23.779 -15.583  0.00  0.00    -0.226 NA
ATOM      4  N   UNL     1      35.030 -24.221 -13.677  0.00  0.00    -0.227 NA
ATOM      5  C   UNL     1      35.916 -23.092 -15.561  0.00  0.00    +0.196 C 
ATOM      6  C   UNL     1      34.658 -23.204 -16.132  0.00  0.00    +0.171 C 
ATOM      7  C   UNL     1      36.078 -22.162 -17.481  0.00  0.00    +0.192 C 
ATOM      8  C   UNL     1      36.083 -23.627 -14.287  0.00  0.00    +0.159 C 
ATOM      9  C   UNL     1      33.801 -22.436 -18.360  0.00  0.00    +0.073 C 
ATOM     10  C   UNL     1      36.432 -21.499 -18.694  0.00  0.00    +0.048 C 
ATOM     11  C   UNL     1      34.145 -21.812 -19.499  0.00  0.00    +0.017 C 
ATOM     12  C   UNL     1      35.508 -21.332 -19.659  0.00  0.00    +0.005 C 
ATOM     13  C   UNL     1      33.857 -24.259 -14.354  0.00  0.00    +0.253 C 
ATOM     14  N   UNL     1      37.326 -23.555 -13.637  0.00  0.00    -0.314 N 
ATOM     15  H   UNL     1      38.075 -23.118 -14.102  0.00  0.00    +0.148 HD
ENDROOT
BRANCH  14  16
ATOM     16  C   UNL     1      37.556 -24.088 -12.326  0.00  0.00    +0.120 C 
BRANCH  16  17
ATOM     17  C   UNL     1      37.929 -25.560 -12.403  0.00  0.00    +0.158 C 
BRANCH  17  18
ATOM     18  O   UNL     1      36.791 -26.339 -12.060  0.00  0.00    -0.380 OA
ATOM     19  H   UNL     1      36.777 -27.146 -12.600  0.00  0.00    +0.211 HD
ENDBRANCH  17  18
ENDBRANCH  16  17
ENDBRANCH  14  16
TORSDOF 3
ENDMDL
MODEL 4
REMARK VINA RESULT:      -7.6     11.047     12.998
REMARK  Name = 1522
REMARK  3 active torsions:
REMARK  status: ('A' for Active; 'I' for Inactive)
REMARK    1  A    between atoms: N_14  and  C_16
REMARK    2  A    between atoms: C_16  and  C_17
REMARK    3  A    between atoms: C_17  and  O_18
REMARK                            x       y       z     vdW  Elec       q    Type
REMARK                         _______ _______ _______ _____ _____    ______ ____
ROOT
ATOM      1  N   UNL     1      35.119 -23.775 -15.103  0.00  0.00    -0.223 N 
ATOM      2  N   UNL     1      33.074 -23.807 -14.175  0.00  0.00    -0.381 NA
ATOM      3  N   UNL     1      34.506 -23.131 -17.376  0.00  0.00    -0.226 NA
ATOM      4  N   UNL     1      32.097 -22.830 -17.604  0.00  0.00    -0.227 NA
ATOM      5  C   UNL     1      32.981 -23.459 -15.498  0.00  0.00    +0.196 C 
ATOM      6  C   UNL     1      34.232 -23.432 -16.094  0.00  0.00    +0.171 C 
ATOM      7  C   UNL     1      34.360 -23.994 -13.952  0.00  0.00    +0.192 C 
ATOM      8  C   UNL     1      31.890 -23.143 -16.302  0.00  0.00    +0.159 C 
ATOM      9  C   UNL     1      36.505 -23.904 -15.146  0.00  0.00    +0.073 C 
ATOM     10  C   UNL     1      35.069 -24.367 -12.772  0.00  0.00    +0.048 C 
ATOM     11  C   UNL     1      37.162 -24.258 -14.029  0.00  0.00    +0.017 C 
ATOM     12  C   UNL     1      36.409 -24.494 -12.808  0.00  0.00    +0.005 C 
ATOM     13  C   UNL     1      33.374 -22.843 -18.052  0.00  0.00    +0.253 C 
ATOM     14  N   UNL     1      30.587 -23.146 -15.776  0.00  0.00    -0.314 N 
ATOM     15  H   UNL     1      30.465 -23.376 -14.827  0.00  0.00    +0.148 HD
ENDROOT
BRANCH  14  16
ATOM     16  C   UNL     1      29.427 -22.829 -16.556  0.00  0.00    +0.120 C 
BRANCH  16  17
ATOM     17  C   UNL     1      28.454 -23.996 -16.569  0.00  0.00    +0.158 C 
BRANCH  17  18
ATOM     18  O   UNL     1      27.592 -23.861 -17.692  0.00  0.00    -0.380 OA
ATOM     19  H   UNL     1      27.946 -24.376 -18.434  0.00  0.00    +0.211 HD
ENDBRANCH  17  18
ENDBRANCH  16  17
ENDBRANCH  14  16
TORSDOF 3
ENDMDL
MODEL 5
REMARK VINA RESULT:      -7.6      9.889     12.153
REMARK  Name = 1522
REMARK  3 active torsions:
REMARK  status: ('A' for Active; 'I' for Inactive)
REMARK    1  A    between atoms: N_14  and  C_16
REMARK    2  A    between atoms: C_16  and  C_17
REMARK    3  A    between atoms: C_17  and  O_18
REMARK                            x       y       z     vdW  Elec       q    Type
REMARK                         _______ _______ _______ _____ _____    ______ ____
ROOT
ATOM      1  N   UNL     1      34.519 -22.709 -16.969  0.00  0.00    -0.223 N 
ATOM      2  N   UNL     1      32.600 -22.574 -18.128  0.00  0.00    -0.381 NA
ATOM      3  N   UNL     1      33.652 -23.635 -14.885  0.00  0.00    -0.226 NA
ATOM      4  N   UNL     1      31.240 -23.977 -14.990  0.00  0.00    -0.227 NA
ATOM      5  C   UNL     1      32.357 -23.085 -16.879  0.00  0.00    +0.196 C 
ATOM      6  C   UNL     1      33.528 -23.179 -16.143  0.00  0.00    +0.171 C 
ATOM      7  C   UNL     1      33.899 -22.353 -18.169  0.00  0.00    +0.192 C 
ATOM      8  C   UNL     1      31.184 -23.505 -16.259  0.00  0.00    +0.159 C 
ATOM      9  C   UNL     1      35.887 -22.578 -16.743  0.00  0.00    +0.073 C 
ATOM     10  C   UNL     1      34.737 -21.831 -19.198  0.00  0.00    +0.048 C 
ATOM     11  C   UNL     1      36.666 -22.083 -17.719  0.00  0.00    +0.017 C 
ATOM     12  C   UNL     1      36.060 -21.702 -18.984  0.00  0.00    +0.005 C 
ATOM     13  C   UNL     1      32.454 -24.011 -14.391  0.00  0.00    +0.253 C 
ATOM     14  N   UNL     1      29.954 -23.444 -16.935  0.00  0.00    -0.314 N 
ATOM     15  H   UNL     1      29.941 -23.098 -17.856  0.00  0.00    +0.148 HD
ENDROOT
BRANCH  14  16
ATOM     16  C   UNL     1      28.716 -23.863 -16.346  0.00  0.00    +0.120 C 
BRANCH  16  17
ATOM     17  C   UNL     1      27.918 -22.663 -15.863  0.00  0.00    +0.158 C 
BRANCH  17  18
ATOM     18  O   UNL     1      27.782 -21.742 -16.937  0.00  0.00    -0.380 OA
ATOM     19  H   UNL     1      28.052 -20.858 -16.641  0.00  0.00    +0.211 HD
ENDBRANCH  17  18
ENDBRANCH  16  17
ENDBRANCH  14  16
TORSDOF 3
ENDMDL
MODEL 6
REMARK VINA RESULT:      -7.6      3.893      6.501
REMARK  Name = 1522
REMARK  3 active torsions:
REMARK  status: ('A' for Active; 'I' for Inactive)
REMARK    1  A    between atoms: N_14  and  C_16
REMARK    2  A    between atoms: C_16  and  C_17
REMARK    3  A    between atoms: C_17  and  O_18
REMARK                            x       y       z     vdW  Elec       q    Type
REMARK                         _______ _______ _______ _____ _____    ______ ____
ROOT
ATOM      1  N   UNL     1      33.543 -15.180 -22.560  0.00  0.00    -0.223 N 
ATOM      2  N   UNL     1      34.284 -16.065 -20.634  0.00  0.00    -0.381 NA
ATOM      3  N   UNL     1      34.504 -16.788 -24.124  0.00  0.00    -0.226 NA
ATOM      4  N   UNL     1      35.759 -18.527 -22.963  0.00  0.00    -0.227 NA
ATOM      5  C   UNL     1      34.713 -16.825 -21.692  0.00  0.00    +0.196 C 
ATOM      6  C   UNL     1      34.268 -16.298 -22.894  0.00  0.00    +0.171 C 
ATOM      7  C   UNL     1      33.584 -15.084 -21.168  0.00  0.00    +0.192 C 
ATOM      8  C   UNL     1      35.484 -17.981 -21.754  0.00  0.00    +0.159 C 
ATOM      9  C   UNL     1      32.871 -14.271 -23.373  0.00  0.00    +0.073 C 
ATOM     10  C   UNL     1      32.892 -13.987 -20.575  0.00  0.00    +0.048 C 
ATOM     11  C   UNL     1      32.224 -13.240 -22.805  0.00  0.00    +0.017 C 
ATOM     12  C   UNL     1      32.241 -13.105 -21.358  0.00  0.00    +0.005 C 
ATOM     13  C   UNL     1      35.259 -17.905 -24.056  0.00  0.00    +0.253 C 
ATOM     14  N   UNL     1      35.975 -18.580 -20.581  0.00  0.00    -0.314 N 
ATOM     15  H   UNL     1      35.760 -18.163 -19.716  0.00  0.00    +0.148 HD
ENDROOT
BRANCH  14  16
ATOM     16  C   UNL     1      36.773 -19.770 -20.586  0.00  0.00    +0.120 C 
BRANCH  16  17
ATOM     17  C   UNL     1      36.074 -20.888 -19.829  0.00  0.00    +0.158 C 
BRANCH  17  18
ATOM     18  O   UNL     1      36.605 -20.951 -18.512  0.00  0.00    -0.380 OA
ATOM     19  H   UNL     1      35.934 -20.652 -17.879  0.00  0.00    +0.211 HD
ENDBRANCH  17  18
ENDBRANCH  16  17
ENDBRANCH  14  16
TORSDOF 3
ENDMDL
MODEL 7
REMARK VINA RESULT:      -7.6      1.676      2.581
REMARK  Name = 1522
REMARK  3 active torsions:
REMARK  status: ('A' for Active; 'I' for Inactive)
REMARK    1  A    between atoms: N_14  and  C_16
REMARK    2  A    between atoms: C_16  and  C_17
REMARK    3  A    between atoms: C_17  and  O_18
REMARK                            x       y       z     vdW  Elec       q    Type
REMARK                         _______ _______ _______ _____ _____    ______ ____
ROOT
ATOM      1  N   UNL     1      34.076 -16.560 -21.940  0.00  0.00    -0.223 N 
ATOM      2  N   UNL     1      35.002 -15.520 -23.702  0.00  0.00    -0.381 NA
ATOM      3  N   UNL     1      32.567 -14.794 -21.193  0.00  0.00    -0.226 NA
ATOM      4  N   UNL     1      32.733 -12.815 -22.608  0.00  0.00    -0.227 NA
ATOM      5  C   UNL     1      34.088 -14.694 -23.100  0.00  0.00    +0.196 C 
ATOM      6  C   UNL     1      33.501 -15.315 -22.008  0.00  0.00    +0.171 C 
ATOM      7  C   UNL     1      34.985 -16.635 -22.998  0.00  0.00    +0.192 C 
ATOM      8  C   UNL     1      33.673 -13.399 -23.390  0.00  0.00    +0.159 C 
ATOM      9  C   UNL     1      33.860 -17.600 -21.039  0.00  0.00    +0.073 C 
ATOM     10  C   UNL     1      35.715 -17.852 -23.137  0.00  0.00    +0.048 C 
ATOM     11  C   UNL     1      34.554 -18.741 -21.179  0.00  0.00    +0.017 C 
ATOM     12  C   UNL     1      35.509 -18.860 -22.268  0.00  0.00    +0.005 C 
ATOM     13  C   UNL     1      32.246 -13.539 -21.573  0.00  0.00    +0.253 C 
ATOM     14  N   UNL     1      34.217 -12.699 -24.481  0.00  0.00    -0.314 N 
ATOM     15  H   UNL     1      34.897 -13.146 -25.033  0.00  0.00    +0.148 HD
ENDROOT
BRANCH  14  16
ATOM     16  C   UNL     1      33.827 -11.364 -24.827  0.00  0.00    +0.120 C 
BRANCH  16  17
ATOM     17  C   UNL     1      35.040 -10.532 -25.207  0.00  0.00    +0.158 C 
BRANCH  17  18
ATOM     18  O   UNL     1      35.400  -9.715 -24.101  0.00  0.00    -0.380 OA
ATOM     19  H   UNL     1      34.602  -9.313 -23.723  0.00  0.00    +0.211 HD
ENDBRANCH  17  18
ENDBRANCH  16  17
ENDBRANCH  14  16
TORSDOF 3
ENDMDL
MODEL 8
REMARK VINA RESULT:      -7.6      7.955     10.823
REMARK  Name = 1522
REMARK  3 active torsions:
REMARK  status: ('A' for Active; 'I' for Inactive)
REMARK    1  A    between atoms: N_14  and  C_16
REMARK    2  A    between atoms: C_16  and  C_17
REMARK    3  A    between atoms: C_17  and  O_18
REMARK                            x       y       z     vdW  Elec       q    Type
REMARK                         _______ _______ _______ _____ _____    ______ ____
ROOT
ATOM      1  N   UNL     1      34.680 -20.848 -19.940  0.00  0.00    -0.223 N 
ATOM      2  N   UNL     1      36.487 -21.151 -18.643  0.00  0.00    -0.381 NA
ATOM      3  N   UNL     1      33.116 -22.319 -18.780  0.00  0.00    -0.226 NA
ATOM      4  N   UNL     1      34.156 -23.391 -16.852  0.00  0.00    -0.227 NA
ATOM      5  C   UNL     1      35.443 -21.904 -18.171  0.00  0.00    +0.196 C 
ATOM      6  C   UNL     1      34.313 -21.734 -18.956  0.00  0.00    +0.171 C 
ATOM      7  C   UNL     1      36.017 -20.524 -19.702  0.00  0.00    +0.192 C 
ATOM      8  C   UNL     1      35.336 -22.768 -17.086  0.00  0.00    +0.159 C 
ATOM      9  C   UNL     1      33.938 -20.326 -20.996  0.00  0.00    +0.073 C 
ATOM     10  C   UNL     1      36.629 -19.606 -20.606  0.00  0.00    +0.048 C 
ATOM     11  C   UNL     1      34.525 -19.463 -21.843  0.00  0.00    +0.017 C 
ATOM     12  C   UNL     1      35.916 -19.098 -21.630  0.00  0.00    +0.005 C 
ATOM     13  C   UNL     1      33.134 -23.131 -17.701  0.00  0.00    +0.253 C 
ATOM     14  N   UNL     1      36.434 -22.996 -16.239  0.00  0.00    -0.314 N 
ATOM     15  H   UNL     1      37.280 -22.531 -16.432  0.00  0.00    +0.148 HD
ENDROOT
BRANCH  14  16
ATOM     16  C   UNL     1      36.381 -23.875 -15.108  0.00  0.00    +0.120 C 
BRANCH  16  17
ATOM     17  C   UNL     1      37.665 -24.680 -14.994  0.00  0.00    +0.158 C 
BRANCH  17  18
ATOM     18  O   UNL     1      37.459 -25.957 -15.584  0.00  0.00    -0.380 OA
ATOM     19  H   UNL     1      36.514 -26.081 -15.764  0.00  0.00    +0.211 HD
ENDBRANCH  17  18
ENDBRANCH  16  17
ENDBRANCH  14  16
TORSDOF 3
ENDMDL
MODEL 9
REMARK VINA RESULT:      -7.6      3.369      6.099
REMARK  Name = 1522
REMARK  3 active torsions:
REMARK  status: ('A' for Active; 'I' for Inactive)
REMARK    1  A    between atoms: N_14  and  C_16
REMARK    2  A    between atoms: C_16  and  C_17
REMARK    3  A    between atoms: C_17  and  O_18
REMARK                            x       y       z     vdW  Elec       q    Type
REMARK                         _______ _______ _______ _____ _____    ______ ____
ROOT
ATOM      1  N   UNL     1      33.913 -15.491 -24.760  0.00  0.00    -0.223 N 
ATOM      2  N   UNL     1      34.681 -15.617 -22.654  0.00  0.00    -0.381 NA
ATOM      3  N   UNL     1      34.128 -17.837 -25.396  0.00  0.00    -0.226 NA
ATOM      4  N   UNL     1      35.026 -19.182 -23.571  0.00  0.00    -0.227 NA
ATOM      5  C   UNL     1      34.708 -16.859 -23.236  0.00  0.00    +0.196 C 
ATOM      6  C   UNL     1      34.237 -16.807 -24.539  0.00  0.00    +0.171 C 
ATOM      7  C   UNL     1      34.203 -14.807 -23.578  0.00  0.00    +0.192 C 
ATOM      8  C   UNL     1      35.111 -18.102 -22.758  0.00  0.00    +0.159 C 
ATOM      9  C   UNL     1      33.395 -14.874 -25.896  0.00  0.00    +0.073 C 
ATOM     10  C   UNL     1      33.945 -13.405 -23.562  0.00  0.00    +0.048 C 
ATOM     11  C   UNL     1      33.157 -13.552 -25.871  0.00  0.00    +0.017 C 
ATOM     12  C   UNL     1      33.444 -12.804 -24.658  0.00  0.00    +0.005 C 
ATOM     13  C   UNL     1      34.546 -18.984 -24.822  0.00  0.00    +0.253 C 
ATOM     14  N   UNL     1      35.600 -18.241 -21.448  0.00  0.00    -0.314 N 
ATOM     15  H   UNL     1      35.651 -17.441 -20.878  0.00  0.00    +0.148 HD
ENDROOT
BRANCH  14  16
ATOM     16  C   UNL     1      36.028 -19.496 -20.902  0.00  0.00    +0.120 C 
BRANCH  16  17
ATOM     17  C   UNL     1      34.841 -20.286 -20.376  0.00  0.00    +0.158 C 
BRANCH  17  18
ATOM     18  O   UNL     1      35.321 -21.351 -19.567  0.00  0.00    -0.380 OA
ATOM     19  H   UNL     1      35.342 -21.068 -18.639  0.00  0.00    +0.211 HD
ENDBRANCH  17  18
ENDBRANCH  16  17
ENDBRANCH  14  16
TORSDOF 3
ENDMDL
