MODEL 1
REMARK VINA RESULT:      -9.8      0.000      0.000
REMARK  Name = 4300
REMARK  4 active torsions:
REMARK  status: ('A' for Active; 'I' for Inactive)
REMARK    1  A    between atoms: N_2  and  C_16
REMARK    2  A    between atoms: C_3  and  C_6
REMARK    3  A    between atoms: C_9  and  O_13
REMARK    4  A    between atoms: C_19  and  C_24
REMARK                            x       y       z     vdW  Elec       q    Type
REMARK                         _______ _______ _______ _____ _____    ______ ____
ROOT
ATOM      1  O   UNL     1      34.916 -16.221 -20.596  0.00  0.00    -0.270 OA
ATOM      2  N   UNL     1      33.478 -17.718 -21.673  0.00  0.00    -0.280 N 
ATOM      3  C   UNL     1      34.065 -16.459 -21.448  0.00  0.00    +0.252 C 
ATOM      4  H   UNL     1      32.809 -17.756 -22.393  0.00  0.00    +0.155 HD
ENDROOT
BRANCH   3   6
ATOM      5  I   UNL     1      31.726 -11.477 -22.067  0.00  0.00    -0.039 I 
ATOM      6  C   UNL     1      33.617 -15.393 -22.360  0.00  0.00    +0.087 C 
ATOM      7  C   UNL     1      33.380 -14.579 -24.608  0.00  0.00    -0.021 C 
ATOM      8  C   UNL     1      33.796 -15.574 -23.724  0.00  0.00    +0.003 C 
ATOM      9  C   UNL     1      33.032 -14.239 -21.861  0.00  0.00    +0.143 C 
ATOM     10  C   UNL     1      32.789 -13.414 -24.118  0.00  0.00    +0.005 C 
ATOM     11  C   UNL     1      32.615 -13.243 -22.745  0.00  0.00    +0.064 C 
ATOM     12  C   UNL     1      33.567 -14.760 -26.076  0.00  0.00    +0.031 C 
BRANCH   9  13
ATOM     13  O   UNL     1      32.870 -14.093 -20.513  0.00  0.00    -0.505 OA
ATOM     14  H   UNL     1      32.182 -14.551 -20.072  0.00  0.00    +0.292 HD
ENDBRANCH   9  13
ENDBRANCH   3   6
BRANCH   2  16
ATOM     15 CL   UNL     1      36.904 -21.167 -20.125  0.00  0.00    -0.082 Cl
ATOM     16  C   UNL     1      33.724 -18.916 -21.004  0.00  0.00    +0.051 C 
ATOM     17  C   UNL     1      35.029 -19.402 -20.900  0.00  0.00    +0.026 C 
ATOM     18  C   UNL     1      32.668 -19.632 -20.441  0.00  0.00    +0.015 C 
ATOM     19  C   UNL     1      34.219 -21.316 -19.670  0.00  0.00    +0.041 C 
ATOM     20  C   UNL     1      35.276 -20.601 -20.233  0.00  0.00    +0.062 C 
ATOM     21  C   UNL     1      32.915 -20.832 -19.774  0.00  0.00    +0.005 C 
BRANCH  19  24
ATOM     22  N   UNL     1      34.982 -22.599 -17.684  0.00  0.00    -0.343 N 
ATOM     23  N   UNL     1      34.094 -23.712 -19.538  0.00  0.00    -0.285 NA
ATOM     24  C   UNL     1      34.429 -22.573 -18.962  0.00  0.00    +0.118 C 
ATOM     25  H   UNL     1      35.115 -23.458 -17.223  0.00  0.00    +0.144 HD
ATOM     26  H   UNL     1      35.239 -21.757 -17.243  0.00  0.00    +0.144 HD
ATOM     27  H   UNL     1      34.233 -24.563 -19.063  0.00  0.00    +0.188 HD
ENDBRANCH  19  24
ENDBRANCH   2  16
TORSDOF 4
ENDMDL
MODEL 2
REMARK VINA RESULT:      -9.7      1.455      2.179
REMARK  Name = 4300
REMARK  4 active torsions:
REMARK  status: ('A' for Active; 'I' for Inactive)
REMARK    1  A    between atoms: N_2  and  C_16
REMARK    2  A    between atoms: C_3  and  C_6
REMARK    3  A    between atoms: C_9  and  O_13
REMARK    4  A    between atoms: C_19  and  C_24
REMARK                            x       y       z     vdW  Elec       q    Type
REMARK                         _______ _______ _______ _____ _____    ______ ____
ROOT
ATOM      1  O   UNL     1      34.935 -16.195 -20.529  0.00  0.00    -0.270 OA
ATOM      2  N   UNL     1      33.361 -17.625 -21.501  0.00  0.00    -0.280 N 
ATOM      3  C   UNL     1      33.998 -16.387 -21.297  0.00  0.00    +0.252 C 
ATOM      4  H   UNL     1      32.622 -17.625 -22.150  0.00  0.00    +0.155 HD
ENDROOT
BRANCH   3   6
ATOM      5  I   UNL     1      33.212 -14.271 -26.355  0.00  0.00    -0.039 I 
ATOM      6  C   UNL     1      33.486 -15.281 -22.124  0.00  0.00    +0.087 C 
ATOM      7  C   UNL     1      32.412 -13.136 -22.247  0.00  0.00    -0.021 C 
ATOM      8  C   UNL     1      32.903 -14.196 -21.486  0.00  0.00    +0.003 C 
ATOM      9  C   UNL     1      33.587 -15.330 -23.507  0.00  0.00    +0.143 C 
ATOM     10  C   UNL     1      32.509 -13.173 -23.638  0.00  0.00    +0.005 C 
ATOM     11  C   UNL     1      33.096 -14.269 -24.268  0.00  0.00    +0.064 C 
ATOM     12  C   UNL     1      31.782 -11.963 -21.573  0.00  0.00    +0.031 C 
BRANCH   9  13
ATOM     13  O   UNL     1      34.167 -16.413 -24.103  0.00  0.00    -0.505 OA
ATOM     14  H   UNL     1      34.133 -17.251 -23.686  0.00  0.00    +0.292 HD
ENDBRANCH   9  13
ENDBRANCH   3   6
BRANCH   2  16
ATOM     15 CL   UNL     1      36.886 -21.075 -20.195  0.00  0.00    -0.082 Cl
ATOM     16  C   UNL     1      33.644 -18.850 -20.899  0.00  0.00    +0.051 C 
ATOM     17  C   UNL     1      34.960 -19.312 -20.844  0.00  0.00    +0.026 C 
ATOM     18  C   UNL     1      32.615 -19.616 -20.354  0.00  0.00    +0.015 C 
ATOM     19  C   UNL     1      34.214 -21.303 -19.698  0.00  0.00    +0.041 C 
ATOM     20  C   UNL     1      35.245 -20.538 -20.244  0.00  0.00    +0.062 C 
ATOM     21  C   UNL     1      32.898 -20.842 -19.754  0.00  0.00    +0.005 C 
BRANCH  19  24
ATOM     22  N   UNL     1      34.994 -22.668 -17.775  0.00  0.00    -0.343 N 
ATOM     23  N   UNL     1      34.184 -23.706 -19.706  0.00  0.00    -0.285 NA
ATOM     24  C   UNL     1      34.462 -22.590 -19.060  0.00  0.00    +0.118 C 
ATOM     25  H   UNL     1      35.155 -23.546 -17.362  0.00  0.00    +0.144 HD
ATOM     26  H   UNL     1      35.210 -21.844 -17.281  0.00  0.00    +0.144 HD
ATOM     27  H   UNL     1      34.350 -24.577 -19.279  0.00  0.00    +0.188 HD
ENDBRANCH  19  24
ENDBRANCH   2  16
TORSDOF 4
ENDMDL
MODEL 3
REMARK VINA RESULT:      -9.7      3.003      4.273
REMARK  Name = 4300
REMARK  4 active torsions:
REMARK  status: ('A' for Active; 'I' for Inactive)
REMARK    1  A    between atoms: N_2  and  C_16
REMARK    2  A    between atoms: C_3  and  C_6
REMARK    3  A    between atoms: C_9  and  O_13
REMARK    4  A    between atoms: C_19  and  C_24
REMARK                            x       y       z     vdW  Elec       q    Type
REMARK                         _______ _______ _______ _____ _____    ______ ____
ROOT
ATOM      1  O   UNL     1      32.140 -13.511 -23.070  0.00  0.00    -0.270 OA
ATOM      2  N   UNL     1      34.447 -13.882 -22.978  0.00  0.00    -0.280 N 
ATOM      3  C   UNL     1      33.292 -13.120 -23.233  0.00  0.00    +0.252 C 
ATOM      4  H   UNL     1      35.305 -13.434 -23.156  0.00  0.00    +0.155 HD
ENDROOT
BRANCH   3   6
ATOM      5  I   UNL     1      32.121  -7.726 -22.781  0.00  0.00    -0.039 I 
ATOM      6  C   UNL     1      33.545 -11.743 -23.691  0.00  0.00    +0.087 C 
ATOM      7  C   UNL     1      34.738 -10.250 -25.146  0.00  0.00    -0.021 C 
ATOM      8  C   UNL     1      34.482 -11.544 -24.694  0.00  0.00    +0.003 C 
ATOM      9  C   UNL     1      32.859 -10.677 -23.129  0.00  0.00    +0.143 C 
ATOM     10  C   UNL     1      34.054  -9.169 -24.588  0.00  0.00    +0.005 C 
ATOM     11  C   UNL     1      33.114  -9.382 -23.580  0.00  0.00    +0.064 C 
ATOM     12  C   UNL     1      35.745 -10.021 -26.223  0.00  0.00    +0.031 C 
BRANCH   9  13
ATOM     13  O   UNL     1      31.942 -10.909 -22.144  0.00  0.00    -0.505 OA
ATOM     14  H   UNL     1      31.788 -11.783 -21.844  0.00  0.00    +0.292 HD
ENDBRANCH   9  13
ENDBRANCH   3   6
BRANCH   2  16
ATOM     15 CL   UNL     1      34.920 -18.843 -24.075  0.00  0.00    -0.082 Cl
ATOM     16  C   UNL     1      34.530 -15.191 -22.505  0.00  0.00    +0.051 C 
ATOM     17  C   UNL     1      34.668 -16.250 -23.404  0.00  0.00    +0.026 C 
ATOM     18  C   UNL     1      34.474 -15.444 -21.135  0.00  0.00    +0.015 C 
ATOM     19  C   UNL     1      34.694 -17.811 -21.561  0.00  0.00    +0.041 C 
ATOM     20  C   UNL     1      34.750 -17.560 -22.931  0.00  0.00    +0.062 C 
ATOM     21  C   UNL     1      34.555 -16.753 -20.662  0.00  0.00    +0.005 C 
BRANCH  19  24
ATOM     22  N   UNL     1      33.665 -20.001 -21.000  0.00  0.00    -0.343 N 
ATOM     23  N   UNL     1      35.921 -19.605 -20.536  0.00  0.00    -0.285 NA
ATOM     24  C   UNL     1      34.776 -19.163 -21.020  0.00  0.00    +0.118 C 
ATOM     25  H   UNL     1      33.741 -20.910 -20.631  0.00  0.00    +0.144 HD
ATOM     26  H   UNL     1      32.803 -19.684 -21.355  0.00  0.00    +0.144 HD
ATOM     27  H   UNL     1      35.981 -20.517 -20.170  0.00  0.00    +0.188 HD
ENDBRANCH  19  24
ENDBRANCH   2  16
TORSDOF 4
ENDMDL
MODEL 4
REMARK VINA RESULT:      -9.6      5.362      9.522
REMARK  Name = 4300
REMARK  4 active torsions:
REMARK  status: ('A' for Active; 'I' for Inactive)
REMARK    1  A    between atoms: N_2  and  C_16
REMARK    2  A    between atoms: C_3  and  C_6
REMARK    3  A    between atoms: C_9  and  O_13
REMARK    4  A    between atoms: C_19  and  C_24
REMARK                            x       y       z     vdW  Elec       q    Type
REMARK                         _______ _______ _______ _____ _____    ______ ____
ROOT
ATOM      1  O   UNL     1      37.169 -20.984 -17.048  0.00  0.00    -0.270 OA
ATOM      2  N   UNL     1      35.418 -22.001 -18.216  0.00  0.00    -0.280 N 
ATOM      3  C   UNL     1      36.332 -21.875 -17.154  0.00  0.00    +0.252 C 
ATOM      4  H   UNL     1      34.805 -22.769 -18.165  0.00  0.00    +0.155 HD
ENDROOT
BRANCH   3   6
ATOM      5  I   UNL     1      38.827 -25.497 -13.788  0.00  0.00    -0.039 I 
ATOM      6  C   UNL     1      36.204 -22.895 -16.099  0.00  0.00    +0.087 C 
ATOM      7  C   UNL     1      34.788 -24.161 -14.628  0.00  0.00    -0.021 C 
ATOM      8  C   UNL     1      34.935 -23.198 -15.626  0.00  0.00    +0.003 C 
ATOM      9  C   UNL     1      37.328 -23.532 -15.595  0.00  0.00    +0.143 C 
ATOM     10  C   UNL     1      35.911 -24.809 -14.113  0.00  0.00    +0.005 C 
ATOM     11  C   UNL     1      37.181 -24.495 -14.597  0.00  0.00    +0.064 C 
ATOM     12  C   UNL     1      33.430 -24.495 -14.110  0.00  0.00    +0.031 C 
BRANCH   9  13
ATOM     13  O   UNL     1      38.562 -23.210 -16.084  0.00  0.00    -0.505 OA
ATOM     14  H   UNL     1      39.280 -23.800 -15.967  0.00  0.00    +0.292 HD
ENDBRANCH   9  13
ENDBRANCH   3   6
BRANCH   2  16
ATOM     15 CL   UNL     1      37.646 -18.974 -21.665  0.00  0.00    -0.082 Cl
ATOM     16  C   UNL     1      35.270 -21.176 -19.330  0.00  0.00    +0.051 C 
ATOM     17  C   UNL     1      36.387 -20.553 -19.889  0.00  0.00    +0.026 C 
ATOM     18  C   UNL     1      34.008 -20.972 -19.885  0.00  0.00    +0.015 C 
ATOM     19  C   UNL     1      34.976 -19.523 -21.557  0.00  0.00    +0.041 C 
ATOM     20  C   UNL     1      36.240 -19.726 -21.002  0.00  0.00    +0.062 C 
ATOM     21  C   UNL     1      33.860 -20.145 -20.998  0.00  0.00    +0.005 C 
BRANCH  19  24
ATOM     22  N   UNL     1      34.608 -17.292 -22.587  0.00  0.00    -0.343 N 
ATOM     23  N   UNL     1      34.741 -19.202 -23.927  0.00  0.00    -0.285 NA
ATOM     24  C   UNL     1      34.774 -18.668 -22.722  0.00  0.00    +0.118 C 
ATOM     25  H   UNL     1      34.473 -16.733 -23.385  0.00  0.00    +0.144 HD
ATOM     26  H   UNL     1      34.627 -16.880 -21.693  0.00  0.00    +0.144 HD
ATOM     27  H   UNL     1      34.605 -18.629 -24.716  0.00  0.00    +0.188 HD
ENDBRANCH  19  24
ENDBRANCH   2  16
TORSDOF 4
ENDMDL
MODEL 5
REMARK VINA RESULT:      -9.4      5.132      8.807
REMARK  Name = 4300
REMARK  4 active torsions:
REMARK  status: ('A' for Active; 'I' for Inactive)
REMARK    1  A    between atoms: N_2  and  C_16
REMARK    2  A    between atoms: C_3  and  C_6
REMARK    3  A    between atoms: C_9  and  O_13
REMARK    4  A    between atoms: C_19  and  C_24
REMARK                            x       y       z     vdW  Elec       q    Type
REMARK                         _______ _______ _______ _____ _____    ______ ____
ROOT
ATOM      1  O   UNL     1      34.133 -23.449 -19.445  0.00  0.00    -0.270 OA
ATOM      2  N   UNL     1      33.647 -21.242 -18.844  0.00  0.00    -0.280 N 
ATOM      3  C   UNL     1      33.725 -22.630 -18.627  0.00  0.00    +0.252 C 
ATOM      4  H   UNL     1      33.299 -20.709 -18.094  0.00  0.00    +0.155 HD
ENDROOT
BRANCH   3   6
ATOM      5  I   UNL     1      35.205 -24.252 -13.542  0.00  0.00    -0.039 I 
ATOM      6  C   UNL     1      33.309 -23.073 -17.285  0.00  0.00    +0.087 C 
ATOM      7  C   UNL     1      31.533 -23.603 -15.756  0.00  0.00    -0.021 C 
ATOM      8  C   UNL     1      31.951 -23.184 -17.019  0.00  0.00    +0.003 C 
ATOM      9  C   UNL     1      34.256 -23.369 -16.316  0.00  0.00    +0.143 C 
ATOM     10  C   UNL     1      32.476 -23.904 -14.773  0.00  0.00    +0.005 C 
ATOM     11  C   UNL     1      33.837 -23.788 -15.053  0.00  0.00    +0.064 C 
ATOM     12  C   UNL     1      30.077 -23.725 -15.457  0.00  0.00    +0.031 C 
BRANCH   9  13
ATOM     13  O   UNL     1      35.584 -23.250 -16.612  0.00  0.00    -0.505 OA
ATOM     14  H   UNL     1      36.227 -23.588 -16.021  0.00  0.00    +0.292 HD
ENDBRANCH   9  13
ENDBRANCH   3   6
BRANCH   2  16
ATOM     15 CL   UNL     1      37.361 -19.106 -21.615  0.00  0.00    -0.082 Cl
ATOM     16  C   UNL     1      34.002 -20.527 -19.987  0.00  0.00    +0.051 C 
ATOM     17  C   UNL     1      35.340 -20.203 -20.220  0.00  0.00    +0.026 C 
ATOM     18  C   UNL     1      33.022 -20.134 -20.898  0.00  0.00    +0.015 C 
ATOM     19  C   UNL     1      34.715 -19.094 -22.272  0.00  0.00    +0.041 C 
ATOM     20  C   UNL     1      35.696 -19.487 -21.363  0.00  0.00    +0.062 C 
ATOM     21  C   UNL     1      33.377 -19.417 -22.040  0.00  0.00    +0.005 C 
BRANCH  19  24
ATOM     22  N   UNL     1      35.607 -17.076 -23.413  0.00  0.00    -0.343 N 
ATOM     23  N   UNL     1      34.788 -18.871 -24.664  0.00  0.00    -0.285 NA
ATOM     24  C   UNL     1      35.039 -18.345 -23.481  0.00  0.00    +0.118 C 
ATOM     25  H   UNL     1      35.819 -16.586 -24.240  0.00  0.00    +0.144 HD
ATOM     26  H   UNL     1      35.797 -16.669 -22.537  0.00  0.00    +0.144 HD
ATOM     27  H   UNL     1      35.005 -18.369 -25.483  0.00  0.00    +0.188 HD
ENDBRANCH  19  24
ENDBRANCH   2  16
TORSDOF 4
ENDMDL
MODEL 6
REMARK VINA RESULT:      -9.2      9.626     11.716
REMARK  Name = 4300
REMARK  4 active torsions:
REMARK  status: ('A' for Active; 'I' for Inactive)
REMARK    1  A    between atoms: N_2  and  C_16
REMARK    2  A    between atoms: C_3  and  C_6
REMARK    3  A    between atoms: C_9  and  O_13
REMARK    4  A    between atoms: C_19  and  C_24
REMARK                            x       y       z     vdW  Elec       q    Type
REMARK                         _______ _______ _______ _____ _____    ______ ____
ROOT
ATOM      1  O   UNL     1      34.761 -24.278 -16.134  0.00  0.00    -0.270 OA
ATOM      2  N   UNL     1      33.407 -24.055 -14.241  0.00  0.00    -0.280 N 
ATOM      3  C   UNL     1      34.630 -24.223 -14.915  0.00  0.00    +0.252 C 
ATOM      4  H   UNL     1      33.458 -24.028 -13.259  0.00  0.00    +0.155 HD
ENDROOT
BRANCH   3   6
ATOM      5  I   UNL     1      39.937 -25.685 -14.300  0.00  0.00    -0.039 I 
ATOM      6  C   UNL     1      35.815 -24.292 -14.043  0.00  0.00    +0.087 C 
ATOM      7  C   UNL     1      36.817 -23.859 -11.903  0.00  0.00    -0.021 C 
ATOM      8  C   UNL     1      35.710 -23.804 -12.748  0.00  0.00    +0.003 C 
ATOM      9  C   UNL     1      37.004 -24.831 -14.511  0.00  0.00    +0.143 C 
ATOM     10  C   UNL     1      38.019 -24.401 -12.362  0.00  0.00    +0.005 C 
ATOM     11  C   UNL     1      38.112 -24.887 -13.665  0.00  0.00    +0.064 C 
ATOM     12  C   UNL     1      36.718 -23.338 -10.509  0.00  0.00    +0.031 C 
BRANCH   9  13
ATOM     13  O   UNL     1      37.073 -25.303 -15.791  0.00  0.00    -0.505 OA
ATOM     14  H   UNL     1      36.348 -25.185 -16.373  0.00  0.00    +0.292 HD
ENDBRANCH   9  13
ENDBRANCH   3   6
BRANCH   2  16
ATOM     15 CL   UNL     1      28.589 -25.725 -14.413  0.00  0.00    -0.082 Cl
ATOM     16  C   UNL     1      32.131 -23.920 -14.789  0.00  0.00    +0.051 C 
ATOM     17  C   UNL     1      31.106 -24.778 -14.388  0.00  0.00    +0.026 C 
ATOM     18  C   UNL     1      31.880 -22.931 -15.740  0.00  0.00    +0.015 C 
ATOM     19  C   UNL     1      29.580 -23.655 -15.886  0.00  0.00    +0.041 C 
ATOM     20  C   UNL     1      29.831 -24.645 -14.936  0.00  0.00    +0.062 C 
ATOM     21  C   UNL     1      30.605 -22.798 -16.289  0.00  0.00    +0.005 C 
BRANCH  19  24
ATOM     22  N   UNL     1      27.400 -22.476 -16.051  0.00  0.00    -0.343 N 
ATOM     23  N   UNL     1      27.874 -24.280 -17.459  0.00  0.00    -0.285 NA
ATOM     24  C   UNL     1      28.263 -23.478 -16.487  0.00  0.00    +0.118 C 
ATOM     25  H   UNL     1      26.516 -22.372 -16.469  0.00  0.00    +0.144 HD
ATOM     26  H   UNL     1      27.676 -21.871 -15.324  0.00  0.00    +0.144 HD
ATOM     27  H   UNL     1      26.986 -24.163 -17.867  0.00  0.00    +0.188 HD
ENDBRANCH  19  24
ENDBRANCH   2  16
TORSDOF 4
ENDMDL
MODEL 7
REMARK VINA RESULT:      -9.2      4.958      8.472
REMARK  Name = 4300
REMARK  4 active torsions:
REMARK  status: ('A' for Active; 'I' for Inactive)
REMARK    1  A    between atoms: N_2  and  C_16
REMARK    2  A    between atoms: C_3  and  C_6
REMARK    3  A    between atoms: C_9  and  O_13
REMARK    4  A    between atoms: C_19  and  C_24
REMARK                            x       y       z     vdW  Elec       q    Type
REMARK                         _______ _______ _______ _____ _____    ______ ____
ROOT
ATOM      1  O   UNL     1      35.225 -14.691 -21.346  0.00  0.00    -0.270 OA
ATOM      2  N   UNL     1      33.541 -14.566 -22.963  0.00  0.00    -0.280 N 
ATOM      3  C   UNL     1      34.537 -15.219 -22.214  0.00  0.00    +0.252 C 
ATOM      4  H   UNL     1      33.070 -15.119 -23.626  0.00  0.00    +0.155 HD
ENDROOT
BRANCH   3   6
ATOM      5  I   UNL     1      35.898 -20.270 -20.395  0.00  0.00    -0.039 I 
ATOM      6  C   UNL     1      34.695 -16.653 -22.508  0.00  0.00    +0.087 C 
ATOM      7  C   UNL     1      34.552 -18.451 -24.095  0.00  0.00    -0.021 C 
ATOM      8  C   UNL     1      34.409 -17.098 -23.791  0.00  0.00    +0.003 C 
ATOM      9  C   UNL     1      35.120 -17.532 -21.523  0.00  0.00    +0.143 C 
ATOM     10  C   UNL     1      34.979 -19.345 -23.112  0.00  0.00    +0.005 C 
ATOM     11  C   UNL     1      35.263 -18.886 -21.827  0.00  0.00    +0.064 C 
ATOM     12  C   UNL     1      34.247 -18.943 -25.470  0.00  0.00    +0.031 C 
BRANCH   9  13
ATOM     13  O   UNL     1      35.394 -17.060 -20.271  0.00  0.00    -0.505 OA
ATOM     14  H   UNL     1      35.345 -17.635 -19.533  0.00  0.00    +0.292 HD
ENDBRANCH   9  13
ENDBRANCH   3   6
BRANCH   2  16
ATOM     15 CL   UNL     1      30.587 -11.082 -20.689  0.00  0.00    -0.082 Cl
ATOM     16  C   UNL     1      33.137 -13.233 -22.884  0.00  0.00    +0.051 C 
ATOM     17  C   UNL     1      32.179 -12.849 -21.945  0.00  0.00    +0.026 C 
ATOM     18  C   UNL     1      33.688 -12.284 -23.745  0.00  0.00    +0.015 C 
ATOM     19  C   UNL     1      32.325 -10.569 -22.727  0.00  0.00    +0.041 C 
ATOM     20  C   UNL     1      31.774 -11.517 -21.866  0.00  0.00    +0.062 C 
ATOM     21  C   UNL     1      33.282 -10.952 -23.667  0.00  0.00    +0.005 C 
BRANCH  19  24
ATOM     22  N   UNL     1      32.552  -8.271 -21.812  0.00  0.00    -0.343 N 
ATOM     23  N   UNL     1      30.974  -8.728 -23.474  0.00  0.00    -0.285 NA
ATOM     24  C   UNL     1      31.933  -9.165 -22.682  0.00  0.00    +0.118 C 
ATOM     25  H   UNL     1      32.273  -7.327 -21.797  0.00  0.00    +0.144 HD
ATOM     26  H   UNL     1      33.268  -8.583 -21.213  0.00  0.00    +0.144 HD
ATOM     27  H   UNL     1      30.706  -7.780 -23.447  0.00  0.00    +0.188 HD
ENDBRANCH  19  24
ENDBRANCH   2  16
TORSDOF 4
ENDMDL
MODEL 8
REMARK VINA RESULT:      -9.1      2.954      4.095
REMARK  Name = 4300
REMARK  4 active torsions:
REMARK  status: ('A' for Active; 'I' for Inactive)
REMARK    1  A    between atoms: N_2  and  C_16
REMARK    2  A    between atoms: C_3  and  C_6
REMARK    3  A    between atoms: C_9  and  O_13
REMARK    4  A    between atoms: C_19  and  C_24
REMARK                            x       y       z     vdW  Elec       q    Type
REMARK                         _______ _______ _______ _____ _____    ______ ____
ROOT
ATOM      1  O   UNL     1      36.805 -19.558 -20.053  0.00  0.00    -0.270 OA
ATOM      2  N   UNL     1      34.766 -20.702 -20.064  0.00  0.00    -0.280 N 
ATOM      3  C   UNL     1      35.711 -19.787 -20.561  0.00  0.00    +0.252 C 
ATOM      4  H   UNL     1      33.932 -20.780 -20.580  0.00  0.00    +0.155 HD
ENDROOT
BRANCH   3   6
ATOM      5  I   UNL     1      34.288 -15.081 -23.112  0.00  0.00    -0.039 I 
ATOM      6  C   UNL     1      35.324 -19.109 -21.810  0.00  0.00    +0.087 C 
ATOM      7  C   UNL     1      34.861 -19.250 -24.164  0.00  0.00    -0.021 C 
ATOM      8  C   UNL     1      35.227 -19.868 -22.969  0.00  0.00    +0.003 C 
ATOM      9  C   UNL     1      35.063 -17.747 -21.822  0.00  0.00    +0.143 C 
ATOM     10  C   UNL     1      34.595 -17.880 -24.188  0.00  0.00    +0.005 C 
ATOM     11  C   UNL     1      34.696 -17.129 -23.017  0.00  0.00    +0.064 C 
ATOM     12  C   UNL     1      34.755 -20.053 -25.416  0.00  0.00    +0.031 C 
BRANCH   9  13
ATOM     13  O   UNL     1      35.166 -17.031 -20.664  0.00  0.00    -0.505 OA
ATOM     14  H   UNL     1      35.240 -17.476 -19.843  0.00  0.00    +0.292 HD
ENDBRANCH   9  13
ENDBRANCH   3   6
BRANCH   2  16
ATOM     15 CL   UNL     1      37.653 -22.429 -16.228  0.00  0.00    -0.082 Cl
ATOM     16  C   UNL     1      34.862 -21.514 -18.935  0.00  0.00    +0.051 C 
ATOM     17  C   UNL     1      36.058 -21.572 -18.218  0.00  0.00    +0.026 C 
ATOM     18  C   UNL     1      33.765 -22.268 -18.521  0.00  0.00    +0.015 C 
ATOM     19  C   UNL     1      35.057 -23.138 -16.675  0.00  0.00    +0.041 C 
ATOM     20  C   UNL     1      36.156 -22.384 -17.088  0.00  0.00    +0.062 C 
ATOM     21  C   UNL     1      33.862 -23.081 -17.392  0.00  0.00    +0.005 C 
BRANCH  19  24
ATOM     22  N   UNL     1      34.600 -23.584 -14.275  0.00  0.00    -0.343 N 
ATOM     23  N   UNL     1      35.656 -25.199 -15.593  0.00  0.00    -0.285 NA
ATOM     24  C   UNL     1      35.111 -24.001 -15.500  0.00  0.00    +0.118 C 
ATOM     25  H   UNL     1      34.646 -24.180 -13.494  0.00  0.00    +0.144 HD
ATOM     26  H   UNL     1      34.193 -22.691 -14.190  0.00  0.00    +0.144 HD
ATOM     27  H   UNL     1      35.694 -25.784 -14.802  0.00  0.00    +0.188 HD
ENDBRANCH  19  24
ENDBRANCH   2  16
TORSDOF 4
ENDMDL
MODEL 9
REMARK VINA RESULT:      -9.0      4.897      8.780
REMARK  Name = 4300
REMARK  4 active torsions:
REMARK  status: ('A' for Active; 'I' for Inactive)
REMARK    1  A    between atoms: N_2  and  C_16
REMARK    2  A    between atoms: C_3  and  C_6
REMARK    3  A    between atoms: C_9  and  O_13
REMARK    4  A    between atoms: C_19  and  C_24
REMARK                            x       y       z     vdW  Elec       q    Type
REMARK                         _______ _______ _______ _____ _____    ______ ____
ROOT
ATOM      1  O   UNL     1      34.156 -23.533 -19.528  0.00  0.00    -0.270 OA
ATOM      2  N   UNL     1      33.956 -21.328 -18.776  0.00  0.00    -0.280 N 
ATOM      3  C   UNL     1      33.930 -22.727 -18.630  0.00  0.00    +0.252 C 
ATOM      4  H   UNL     1      33.754 -20.808 -17.965  0.00  0.00    +0.155 HD
ENDROOT
BRANCH   3   6
ATOM      5  I   UNL     1      30.193 -23.569 -14.630  0.00  0.00    -0.039 I 
ATOM      6  C   UNL     1      33.644 -23.204 -17.266  0.00  0.00    +0.087 C 
ATOM      7  C   UNL     1      34.450 -24.159 -15.214  0.00  0.00    -0.021 C 
ATOM      8  C   UNL     1      34.695 -23.702 -16.508  0.00  0.00    +0.003 C 
ATOM      9  C   UNL     1      32.354 -23.154 -16.758  0.00  0.00    +0.143 C 
ATOM     10  C   UNL     1      33.156 -24.114 -14.692  0.00  0.00    +0.005 C 
ATOM     11  C   UNL     1      32.109 -23.612 -15.463  0.00  0.00    +0.064 C 
ATOM     12  C   UNL     1      35.570 -24.697 -14.389  0.00  0.00    +0.031 C 
BRANCH   9  13
ATOM     13  O   UNL     1      31.344 -22.658 -17.531  0.00  0.00    -0.505 OA
ATOM     14  H   UNL     1      30.652 -22.164 -17.137  0.00  0.00    +0.292 HD
ENDBRANCH   9  13
ENDBRANCH   3   6
BRANCH   2  16
ATOM     15 CL   UNL     1      37.461 -19.032 -21.687  0.00  0.00    -0.082 Cl
ATOM     16  C   UNL     1      34.232 -20.585 -19.923  0.00  0.00    +0.051 C 
ATOM     17  C   UNL     1      35.546 -20.214 -20.215  0.00  0.00    +0.026 C 
ATOM     18  C   UNL     1      33.197 -20.211 -20.780  0.00  0.00    +0.015 C 
ATOM     19  C   UNL     1      34.786 -19.097 -22.217  0.00  0.00    +0.041 C 
ATOM     20  C   UNL     1      35.823 -19.471 -21.361  0.00  0.00    +0.062 C 
ATOM     21  C   UNL     1      33.473 -19.467 -21.926  0.00  0.00    +0.005 C 
BRANCH  19  24
ATOM     22  N   UNL     1      35.509 -17.016 -23.365  0.00  0.00    -0.343 N 
ATOM     23  N   UNL     1      34.783 -18.856 -24.608  0.00  0.00    -0.285 NA
ATOM     24  C   UNL     1      35.027 -18.321 -23.428  0.00  0.00    +0.118 C 
ATOM     25  H   UNL     1      35.665 -16.508 -24.193  0.00  0.00    +0.144 HD
ATOM     26  H   UNL     1      35.693 -16.601 -22.490  0.00  0.00    +0.144 HD
ATOM     27  H   UNL     1      34.945 -18.336 -25.428  0.00  0.00    +0.188 HD
ENDBRANCH  19  24
ENDBRANCH   2  16
TORSDOF 4
ENDMDL
