MODEL 1
REMARK VINA RESULT:      -9.8      0.000      0.000
REMARK  Name = 4316
REMARK  7 active torsions:
REMARK  status: ('A' for Active; 'I' for Inactive)
REMARK    1  A    between atoms: S_1  and  C_5
REMARK    2  A    between atoms: S_1  and  N_15
REMARK    3  A    between atoms: C_6  and  S_9
REMARK    4  A    between atoms: S_9  and  N_12
REMARK    5  A    between atoms: N_15  and  C_17
REMARK    6  A    between atoms: C_17  and  C_18
REMARK    7  A    between atoms: C_23  and  O_24
REMARK                            x       y       z     vdW  Elec       q    Type
REMARK                         _______ _______ _______ _____ _____    ______ ____
ROOT
ATOM      1  S   UNL     1      35.909 -24.283 -11.458  0.00  0.00    +0.066 S 
ATOM      2  O   UNL     1      35.222 -25.271 -10.647  0.00  0.00    -0.152 OA
ATOM      3  O   UNL     1      36.761 -23.290 -10.832  0.00  0.00    -0.152 OA
ENDROOT
BRANCH   1   5
ATOM      4  S   UNL     1      38.530 -24.629 -12.703  0.00  0.00    -0.047 S 
ATOM      5  C   UNL     1      36.902 -25.143 -12.640  0.00  0.00    +0.153 C 
ATOM      6  C   UNL     1      38.888 -25.765 -13.934  0.00  0.00    +0.152 C 
ATOM      7  C   UNL     1      36.632 -26.151 -13.530  0.00  0.00    +0.029 C 
ATOM      8  C   UNL     1      37.786 -26.514 -14.282  0.00  0.00    +0.028 C 
BRANCH   6   9
ATOM      9  S   UNL     1      40.555 -25.744 -14.493  0.00  0.00    +0.063 S 
ATOM     10  O   UNL     1      41.110 -24.436 -14.195  0.00  0.00    -0.153 OA
ATOM     11  O   UNL     1      41.209 -26.946 -14.004  0.00  0.00    -0.153 OA
BRANCH   9  12
ATOM     12  N   UNL     1      40.321 -25.883 -16.177  0.00  0.00    -0.203 NA
ATOM     13  H   UNL     1      39.631 -26.610 -16.366  0.00  0.00    +0.144 HD
ATOM     14  H   UNL     1      41.204 -26.130 -16.624  0.00  0.00    +0.144 HD
ENDBRANCH   9  12
ENDBRANCH   6   9
ENDBRANCH   1   5
BRANCH   1  15
ATOM     15  N   UNL     1      34.773 -23.500 -12.465  0.00  0.00    -0.174 NA
ATOM     16  H   UNL     1      35.304 -23.053 -13.212  0.00  0.00    +0.149 HD
BRANCH  15  17
ATOM     17  C   UNL     1      33.704 -24.265 -13.109  0.00  0.00    +0.118 C 
BRANCH  17  18
ATOM     18  C   UNL     1      33.464 -23.832 -14.516  0.00  0.00    -0.005 C 
ATOM     19  C   UNL     1      32.158 -23.687 -14.987  0.00  0.00    +0.000 C 
ATOM     20  C   UNL     1      34.543 -23.572 -15.359  0.00  0.00    +0.000 C 
ATOM     21  C   UNL     1      31.934 -23.283 -16.303  0.00  0.00    +0.037 C 
ATOM     22  C   UNL     1      34.318 -23.166 -16.675  0.00  0.00    +0.037 C 
ATOM     23  C   UNL     1      33.012 -23.023 -17.147  0.00  0.00    +0.139 C 
BRANCH  23  24
ATOM     24  O   UNL     1      32.793 -22.626 -18.430  0.00  0.00    -0.471 OA
ATOM     25  C   UNL     1      33.941 -22.380 -19.240  0.00  0.00    +0.252 C 
ENDBRANCH  23  24
ENDBRANCH  17  18
ENDBRANCH  15  17
ENDBRANCH   1  15
TORSDOF 7
ENDMDL
MODEL 2
REMARK VINA RESULT:      -9.7      1.712      2.393
REMARK  Name = 4316
REMARK  7 active torsions:
REMARK  status: ('A' for Active; 'I' for Inactive)
REMARK    1  A    between atoms: S_1  and  C_5
REMARK    2  A    between atoms: S_1  and  N_15
REMARK    3  A    between atoms: C_6  and  S_9
REMARK    4  A    between atoms: S_9  and  N_12
REMARK    5  A    between atoms: N_15  and  C_17
REMARK    6  A    between atoms: C_17  and  C_18
REMARK    7  A    between atoms: C_23  and  O_24
REMARK                            x       y       z     vdW  Elec       q    Type
REMARK                         _______ _______ _______ _____ _____    ______ ____
ROOT
ATOM      1  S   UNL     1      35.553 -24.517 -11.873  0.00  0.00    +0.066 S 
ATOM      2  O   UNL     1      35.483 -25.329 -10.672  0.00  0.00    -0.152 OA
ATOM      3  O   UNL     1      35.941 -23.122 -11.788  0.00  0.00    -0.152 OA
ENDROOT
BRANCH   1   5
ATOM      4  S   UNL     1      38.297 -24.773 -12.846  0.00  0.00    -0.047 S 
ATOM      5  C   UNL     1      36.678 -25.297 -12.992  0.00  0.00    +0.153 C 
ATOM      6  C   UNL     1      38.798 -25.827 -14.099  0.00  0.00    +0.152 C 
ATOM      7  C   UNL     1      36.516 -26.247 -13.966  0.00  0.00    +0.029 C 
ATOM      8  C   UNL     1      37.748 -26.556 -14.611  0.00  0.00    +0.028 C 
BRANCH   6   9
ATOM      9  S   UNL     1      40.515 -25.764 -14.472  0.00  0.00    +0.063 S 
ATOM     10  O   UNL     1      40.986 -24.421 -14.184  0.00  0.00    -0.153 OA
ATOM     11  O   UNL     1      41.153 -26.912 -13.854  0.00  0.00    -0.153 OA
BRANCH   9  12
ATOM     12  N   UNL     1      40.476 -25.992 -16.163  0.00  0.00    -0.203 NA
ATOM     13  H   UNL     1      39.771 -26.692 -16.395  0.00  0.00    +0.144 HD
ATOM     14  H   UNL     1      41.390 -26.310 -16.485  0.00  0.00    +0.144 HD
ENDBRANCH   9  12
ENDBRANCH   6   9
ENDBRANCH   1   5
BRANCH   1  15
ATOM     15  N   UNL     1      34.077 -24.644 -12.721  0.00  0.00    -0.174 NA
ATOM     16  H   UNL     1      33.341 -24.371 -12.070  0.00  0.00    +0.149 HD
BRANCH  15  17
ATOM     17  C   UNL     1      33.860 -23.875 -13.948  0.00  0.00    +0.118 C 
BRANCH  17  18
ATOM     18  C   UNL     1      32.484 -24.054 -14.494  0.00  0.00    -0.005 C 
ATOM     19  C   UNL     1      32.035 -23.238 -15.534  0.00  0.00    +0.000 C 
ATOM     20  C   UNL     1      31.646 -25.035 -13.966  0.00  0.00    +0.000 C 
ATOM     21  C   UNL     1      30.747 -23.405 -16.044  0.00  0.00    +0.037 C 
ATOM     22  C   UNL     1      30.358 -25.202 -14.477  0.00  0.00    +0.037 C 
ATOM     23  C   UNL     1      29.909 -24.385 -15.516  0.00  0.00    +0.139 C 
BRANCH  23  24
ATOM     24  O   UNL     1      28.654 -24.548 -16.015  0.00  0.00    -0.471 OA
ATOM     25  C   UNL     1      28.201 -23.584 -16.964  0.00  0.00    +0.252 C 
ENDBRANCH  23  24
ENDBRANCH  17  18
ENDBRANCH  15  17
ENDBRANCH   1  15
TORSDOF 7
ENDMDL
MODEL 3
REMARK VINA RESULT:      -9.1      7.870     10.858
REMARK  Name = 4316
REMARK  7 active torsions:
REMARK  status: ('A' for Active; 'I' for Inactive)
REMARK    1  A    between atoms: S_1  and  C_5
REMARK    2  A    between atoms: S_1  and  N_15
REMARK    3  A    between atoms: C_6  and  S_9
REMARK    4  A    between atoms: S_9  and  N_12
REMARK    5  A    between atoms: N_15  and  C_17
REMARK    6  A    between atoms: C_17  and  C_18
REMARK    7  A    between atoms: C_23  and  O_24
REMARK                            x       y       z     vdW  Elec       q    Type
REMARK                         _______ _______ _______ _____ _____    ______ ____
ROOT
ATOM      1  S   UNL     1      35.657 -18.554 -22.013  0.00  0.00    +0.066 S 
ATOM      2  O   UNL     1      36.992 -18.703 -21.464  0.00  0.00    -0.152 OA
ATOM      3  O   UNL     1      35.407 -18.849 -23.412  0.00  0.00    -0.152 OA
ENDROOT
BRANCH   1   5
ATOM      4  S   UNL     1      35.323 -20.881 -20.278  0.00  0.00    -0.047 S 
ATOM      5  C   UNL     1      34.564 -19.572 -21.069  0.00  0.00    +0.153 C 
ATOM      6  C   UNL     1      33.833 -21.402 -19.613  0.00  0.00    +0.152 C 
ATOM      7  C   UNL     1      33.213 -19.528 -20.838  0.00  0.00    +0.029 C 
ATOM      8  C   UNL     1      32.787 -20.591 -19.992  0.00  0.00    +0.028 C 
BRANCH   6   9
ATOM      9  S   UNL     1      33.939 -22.838 -18.604  0.00  0.00    +0.063 S 
ATOM     10  O   UNL     1      33.950 -23.999 -19.478  0.00  0.00    -0.153 OA
ATOM     11  O   UNL     1      35.008 -22.635 -17.642  0.00  0.00    -0.153 OA
BRANCH   9  12
ATOM     12  N   UNL     1      32.439 -22.763 -17.794  0.00  0.00    -0.203 NA
ATOM     13  H   UNL     1      32.434 -23.433 -17.025  0.00  0.00    +0.144 HD
ATOM     14  H   UNL     1      31.688 -22.988 -18.446  0.00  0.00    +0.144 HD
ENDBRANCH   9  12
ENDBRANCH   6   9
ENDBRANCH   1   5
BRANCH   1  15
ATOM     15  N   UNL     1      35.074 -16.991 -21.651  0.00  0.00    -0.174 NA
ATOM     16  H   UNL     1      35.685 -16.611 -20.928  0.00  0.00    +0.149 HD
BRANCH  15  17
ATOM     17  C   UNL     1      34.982 -15.974 -22.701  0.00  0.00    +0.118 C 
BRANCH  17  18
ATOM     18  C   UNL     1      33.992 -14.907 -22.372  0.00  0.00    -0.005 C 
ATOM     19  C   UNL     1      33.530 -14.054 -23.374  0.00  0.00    +0.000 C 
ATOM     20  C   UNL     1      33.531 -14.763 -21.064  0.00  0.00    +0.000 C 
ATOM     21  C   UNL     1      32.605 -13.056 -23.067  0.00  0.00    +0.037 C 
ATOM     22  C   UNL     1      32.605 -13.765 -20.758  0.00  0.00    +0.037 C 
ATOM     23  C   UNL     1      32.143 -12.911 -21.760  0.00  0.00    +0.139 C 
BRANCH  23  24
ATOM     24  O   UNL     1      31.239 -11.939 -21.461  0.00  0.00    -0.471 OA
ATOM     25  C   UNL     1      31.311 -11.363 -20.157  0.00  0.00    +0.252 C 
ENDBRANCH  23  24
ENDBRANCH  17  18
ENDBRANCH  15  17
ENDBRANCH   1  15
TORSDOF 7
ENDMDL
MODEL 4
REMARK VINA RESULT:      -9.0      3.752      6.431
REMARK  Name = 4316
REMARK  7 active torsions:
REMARK  status: ('A' for Active; 'I' for Inactive)
REMARK    1  A    between atoms: S_1  and  C_5
REMARK    2  A    between atoms: S_1  and  N_15
REMARK    3  A    between atoms: C_6  and  S_9
REMARK    4  A    between atoms: S_9  and  N_12
REMARK    5  A    between atoms: N_15  and  C_17
REMARK    6  A    between atoms: C_17  and  C_18
REMARK    7  A    between atoms: C_23  and  O_24
REMARK                            x       y       z     vdW  Elec       q    Type
REMARK                         _______ _______ _______ _____ _____    ______ ____
ROOT
ATOM      1  S   UNL     1      33.489 -23.020 -18.043  0.00  0.00    +0.066 S 
ATOM      2  O   UNL     1      33.702 -24.261 -18.766  0.00  0.00    -0.152 OA
ATOM      3  O   UNL     1      32.321 -22.206 -18.320  0.00  0.00    -0.152 OA
ENDROOT
BRANCH   1   5
ATOM      4  S   UNL     1      34.999 -23.657 -15.623  0.00  0.00    -0.047 S 
ATOM      5  C   UNL     1      33.460 -23.394 -16.316  0.00  0.00    +0.153 C 
ATOM      6  C   UNL     1      34.307 -23.942 -14.083  0.00  0.00    +0.152 C 
ATOM      7  C   UNL     1      32.443 -23.520 -15.405  0.00  0.00    +0.029 C 
ATOM      8  C   UNL     1      32.934 -23.838 -14.107  0.00  0.00    +0.028 C 
BRANCH   6   9
ATOM      9  S   UNL     1      35.465 -24.304 -12.811  0.00  0.00    +0.063 S 
ATOM     10  O   UNL     1      36.375 -23.177 -12.699  0.00  0.00    -0.153 OA
ATOM     11  O   UNL     1      34.727 -24.767 -11.649  0.00  0.00    -0.153 OA
BRANCH   9  12
ATOM     12  N   UNL     1      36.292 -25.624 -13.507  0.00  0.00    -0.203 NA
ATOM     13  H   UNL     1      36.615 -25.368 -14.441  0.00  0.00    +0.144 HD
ATOM     14  H   UNL     1      35.662 -26.424 -13.573  0.00  0.00    +0.144 HD
ENDBRANCH   9  12
ENDBRANCH   6   9
ENDBRANCH   1   5
BRANCH   1  15
ATOM     15  N   UNL     1      34.893 -22.055 -18.165  0.00  0.00    -0.174 NA
ATOM     16  H   UNL     1      35.543 -22.394 -17.455  0.00  0.00    +0.149 HD
BRANCH  15  17
ATOM     17  C   UNL     1      35.639 -21.990 -19.422  0.00  0.00    +0.118 C 
BRANCH  17  18
ATOM     18  C   UNL     1      35.432 -20.698 -20.139  0.00  0.00    -0.005 C 
ATOM     19  C   UNL     1      34.139 -20.265 -20.433  0.00  0.00    +0.000 C 
ATOM     20  C   UNL     1      36.530 -19.926 -20.515  0.00  0.00    +0.000 C 
ATOM     21  C   UNL     1      33.945 -19.057 -21.105  0.00  0.00    +0.037 C 
ATOM     22  C   UNL     1      36.336 -18.717 -21.186  0.00  0.00    +0.037 C 
ATOM     23  C   UNL     1      35.042 -18.284 -21.481  0.00  0.00    +0.139 C 
BRANCH  23  24
ATOM     24  O   UNL     1      34.852 -17.106 -22.134  0.00  0.00    -0.471 OA
ATOM     25  C   UNL     1      34.552 -15.961 -21.336  0.00  0.00    +0.252 C 
ENDBRANCH  23  24
ENDBRANCH  17  18
ENDBRANCH  15  17
ENDBRANCH   1  15
TORSDOF 7
ENDMDL
MODEL 5
REMARK VINA RESULT:      -8.9      4.492      7.659
REMARK  Name = 4316
REMARK  7 active torsions:
REMARK  status: ('A' for Active; 'I' for Inactive)
REMARK    1  A    between atoms: S_1  and  C_5
REMARK    2  A    between atoms: S_1  and  N_15
REMARK    3  A    between atoms: C_6  and  S_9
REMARK    4  A    between atoms: S_9  and  N_12
REMARK    5  A    between atoms: N_15  and  C_17
REMARK    6  A    between atoms: C_17  and  C_18
REMARK    7  A    between atoms: C_23  and  O_24
REMARK                            x       y       z     vdW  Elec       q    Type
REMARK                         _______ _______ _______ _____ _____    ______ ____
ROOT
ATOM      1  S   UNL     1      34.678 -23.421 -15.822  0.00  0.00    +0.066 S 
ATOM      2  O   UNL     1      35.462 -22.437 -15.099  0.00  0.00    -0.152 OA
ATOM      3  O   UNL     1      35.071 -24.818 -15.810  0.00  0.00    -0.152 OA
ENDROOT
BRANCH   1   5
ATOM      4  S   UNL     1      31.844 -23.028 -16.415  0.00  0.00    -0.047 S 
ATOM      5  C   UNL     1      33.019 -23.347 -15.217  0.00  0.00    +0.153 C 
ATOM      6  C   UNL     1      30.583 -23.087 -15.257  0.00  0.00    +0.152 C 
ATOM      7  C   UNL     1      32.473 -23.495 -13.968  0.00  0.00    +0.029 C 
ATOM      8  C   UNL     1      31.057 -23.343 -13.990  0.00  0.00    +0.028 C 
BRANCH   6   9
ATOM      9  S   UNL     1      28.973 -22.811 -15.907  0.00  0.00    +0.063 S 
ATOM     10  O   UNL     1      28.330 -21.795 -15.093  0.00  0.00    -0.153 OA
ATOM     11  O   UNL     1      29.092 -22.632 -17.344  0.00  0.00    -0.153 OA
BRANCH   9  12
ATOM     12  N   UNL     1      28.246 -24.323 -15.594  0.00  0.00    -0.203 NA
ATOM     13  H   UNL     1      28.787 -24.819 -14.886  0.00  0.00    +0.144 HD
ATOM     14  H   UNL     1      28.222 -24.874 -16.451  0.00  0.00    +0.144 HD
ENDBRANCH   9  12
ENDBRANCH   6   9
ENDBRANCH   1   5
BRANCH   1  15
ATOM     15  N   UNL     1      34.481 -22.902 -17.437  0.00  0.00    -0.174 NA
ATOM     16  H   UNL     1      33.746 -22.195 -17.429  0.00  0.00    +0.149 HD
BRANCH  15  17
ATOM     17  C   UNL     1      35.610 -22.327 -18.172  0.00  0.00    +0.118 C 
BRANCH  17  18
ATOM     18  C   UNL     1      35.168 -21.407 -19.260  0.00  0.00    -0.005 C 
ATOM     19  C   UNL     1      36.115 -20.696 -19.998  0.00  0.00    +0.000 C 
ATOM     20  C   UNL     1      33.810 -21.259 -19.540  0.00  0.00    +0.000 C 
ATOM     21  C   UNL     1      35.702 -19.835 -21.015  0.00  0.00    +0.037 C 
ATOM     22  C   UNL     1      33.397 -20.399 -20.558  0.00  0.00    +0.037 C 
ATOM     23  C   UNL     1      34.345 -19.687 -21.295  0.00  0.00    +0.139 C 
BRANCH  23  24
ATOM     24  O   UNL     1      33.943 -18.849 -22.289  0.00  0.00    -0.471 OA
ATOM     25  C   UNL     1      34.778 -18.760 -23.443  0.00  0.00    +0.252 C 
ENDBRANCH  23  24
ENDBRANCH  17  18
ENDBRANCH  15  17
ENDBRANCH   1  15
TORSDOF 7
ENDMDL
MODEL 6
REMARK VINA RESULT:      -8.9      7.852     10.596
REMARK  Name = 4316
REMARK  7 active torsions:
REMARK  status: ('A' for Active; 'I' for Inactive)
REMARK    1  A    between atoms: S_1  and  C_5
REMARK    2  A    between atoms: S_1  and  N_15
REMARK    3  A    between atoms: C_6  and  S_9
REMARK    4  A    between atoms: S_9  and  N_12
REMARK    5  A    between atoms: N_15  and  C_17
REMARK    6  A    between atoms: C_17  and  C_18
REMARK    7  A    between atoms: C_23  and  O_24
REMARK                            x       y       z     vdW  Elec       q    Type
REMARK                         _______ _______ _______ _____ _____    ______ ____
ROOT
ATOM      1  S   UNL     1      35.231 -18.728 -22.110  0.00  0.00    +0.066 S 
ATOM      2  O   UNL     1      36.532 -18.138 -22.365  0.00  0.00    -0.152 OA
ATOM      3  O   UNL     1      34.486 -19.346 -23.190  0.00  0.00    -0.152 OA
ENDROOT
BRANCH   1   5
ATOM      4  S   UNL     1      33.977 -20.729 -20.389  0.00  0.00    -0.047 S 
ATOM      5  C   UNL     1      35.427 -19.954 -20.852  0.00  0.00    +0.153 C 
ATOM      6  C   UNL     1      34.807 -21.701 -19.249  0.00  0.00    +0.152 C 
ATOM      7  C   UNL     1      36.516 -20.417 -20.160  0.00  0.00    +0.029 C 
ATOM      8  C   UNL     1      36.158 -21.432 -19.228  0.00  0.00    +0.028 C 
BRANCH   6   9
ATOM      9  S   UNL     1      33.788 -22.819 -18.353  0.00  0.00    +0.063 S 
ATOM     10  O   UNL     1      34.471 -23.153 -17.116  0.00  0.00    -0.153 OA
ATOM     11  O   UNL     1      32.442 -22.275 -18.323  0.00  0.00    -0.153 OA
BRANCH   9  12
ATOM     12  N   UNL     1      33.819 -24.172 -19.392  0.00  0.00    -0.203 NA
ATOM     13  H   UNL     1      34.771 -24.321 -19.727  0.00  0.00    +0.144 HD
ATOM     14  H   UNL     1      33.202 -24.005 -20.187  0.00  0.00    +0.144 HD
ENDBRANCH   9  12
ENDBRANCH   6   9
ENDBRANCH   1   5
BRANCH   1  15
ATOM     15  N   UNL     1      34.241 -17.580 -21.324  0.00  0.00    -0.174 NA
ATOM     16  H   UNL     1      33.867 -18.037 -20.492  0.00  0.00    +0.149 HD
BRANCH  15  17
ATOM     17  C   UNL     1      34.798 -16.299 -20.885  0.00  0.00    +0.118 C 
BRANCH  17  18
ATOM     18  C   UNL     1      33.986 -15.138 -21.351  0.00  0.00    -0.005 C 
ATOM     19  C   UNL     1      34.263 -14.544 -22.583  0.00  0.00    +0.000 C 
ATOM     20  C   UNL     1      32.952 -14.646 -20.556  0.00  0.00    +0.000 C 
ATOM     21  C   UNL     1      33.504 -13.457 -23.019  0.00  0.00    +0.037 C 
ATOM     22  C   UNL     1      32.193 -13.560 -20.993  0.00  0.00    +0.037 C 
ATOM     23  C   UNL     1      32.470 -12.965 -22.224  0.00  0.00    +0.139 C 
BRANCH  23  24
ATOM     24  O   UNL     1      31.729 -11.907 -22.651  0.00  0.00    -0.471 OA
ATOM     25  C   UNL     1      31.573 -10.815 -21.745  0.00  0.00    +0.252 C 
ENDBRANCH  23  24
ENDBRANCH  17  18
ENDBRANCH  15  17
ENDBRANCH   1  15
TORSDOF 7
ENDMDL
MODEL 7
REMARK VINA RESULT:      -8.9      4.893      8.189
REMARK  Name = 4316
REMARK  7 active torsions:
REMARK  status: ('A' for Active; 'I' for Inactive)
REMARK    1  A    between atoms: S_1  and  C_5
REMARK    2  A    between atoms: S_1  and  N_15
REMARK    3  A    between atoms: C_6  and  S_9
REMARK    4  A    between atoms: S_9  and  N_12
REMARK    5  A    between atoms: N_15  and  C_17
REMARK    6  A    between atoms: C_17  and  C_18
REMARK    7  A    between atoms: C_23  and  O_24
REMARK                            x       y       z     vdW  Elec       q    Type
REMARK                         _______ _______ _______ _____ _____    ______ ____
ROOT
ATOM      1  S   UNL     1      33.608 -22.950 -18.434  0.00  0.00    +0.066 S 
ATOM      2  O   UNL     1      32.376 -22.899 -17.671  0.00  0.00    -0.152 OA
ATOM      3  O   UNL     1      33.886 -24.085 -19.295  0.00  0.00    -0.152 OA
ENDROOT
BRANCH   1   5
ATOM      4  S   UNL     1      35.264 -20.986 -19.827  0.00  0.00    -0.047 S 
ATOM      5  C   UNL     1      33.681 -21.505 -19.449  0.00  0.00    +0.153 C 
ATOM      6  C   UNL     1      34.662 -19.671 -20.745  0.00  0.00    +0.152 C 
ATOM      7  C   UNL     1      32.717 -20.703 -20.002  0.00  0.00    +0.029 C 
ATOM      8  C   UNL     1      33.286 -19.637 -20.755  0.00  0.00    +0.028 C 
BRANCH   6   9
ATOM      9  S   UNL     1      35.898 -18.652 -21.469  0.00  0.00    +0.063 S 
ATOM     10  O   UNL     1      37.189 -19.085 -20.963  0.00  0.00    -0.153 OA
ATOM     11  O   UNL     1      35.653 -18.595 -22.899  0.00  0.00    -0.153 OA
BRANCH   9  12
ATOM     12  N   UNL     1      35.504 -17.143 -20.776  0.00  0.00    -0.203 NA
ATOM     13  H   UNL     1      34.490 -17.036 -20.750  0.00  0.00    +0.144 HD
ATOM     14  H   UNL     1      35.910 -16.394 -21.338  0.00  0.00    +0.144 HD
ENDBRANCH   9  12
ENDBRANCH   6   9
ENDBRANCH   1   5
BRANCH   1  15
ATOM     15  N   UNL     1      34.929 -22.701 -17.382  0.00  0.00    -0.174 NA
ATOM     16  H   UNL     1      35.130 -21.702 -17.395  0.00  0.00    +0.149 HD
BRANCH  15  17
ATOM     17  C   UNL     1      34.837 -23.093 -15.974  0.00  0.00    +0.118 C 
BRANCH  17  18
ATOM     18  C   UNL     1      35.956 -23.988 -15.560  0.00  0.00    -0.005 C 
ATOM     19  C   UNL     1      37.260 -23.495 -15.505  0.00  0.00    +0.000 C 
ATOM     20  C   UNL     1      35.699 -25.318 -15.228  0.00  0.00    +0.000 C 
ATOM     21  C   UNL     1      38.307 -24.333 -15.119  0.00  0.00    +0.037 C 
ATOM     22  C   UNL     1      36.746 -26.155 -14.840  0.00  0.00    +0.037 C 
ATOM     23  C   UNL     1      38.050 -25.662 -14.787  0.00  0.00    +0.139 C 
BRANCH  23  24
ATOM     24  O   UNL     1      39.071 -26.478 -14.408  0.00  0.00    -0.471 OA
ATOM     25  C   UNL     1      40.319 -25.858 -14.100  0.00  0.00    +0.252 C 
ENDBRANCH  23  24
ENDBRANCH  17  18
ENDBRANCH  15  17
ENDBRANCH   1  15
TORSDOF 7
ENDMDL
MODEL 8
REMARK VINA RESULT:      -8.7      8.562     11.873
REMARK  Name = 4316
REMARK  7 active torsions:
REMARK  status: ('A' for Active; 'I' for Inactive)
REMARK    1  A    between atoms: S_1  and  C_5
REMARK    2  A    between atoms: S_1  and  N_15
REMARK    3  A    between atoms: C_6  and  S_9
REMARK    4  A    between atoms: S_9  and  N_12
REMARK    5  A    between atoms: N_15  and  C_17
REMARK    6  A    between atoms: C_17  and  C_18
REMARK    7  A    between atoms: C_23  and  O_24
REMARK                            x       y       z     vdW  Elec       q    Type
REMARK                         _______ _______ _______ _____ _____    ______ ____
ROOT
ATOM      1  S   UNL     1      35.689 -18.199 -21.880  0.00  0.00    +0.066 S 
ATOM      2  O   UNL     1      37.088 -18.453 -22.166  0.00  0.00    -0.152 OA
ATOM      3  O   UNL     1      35.306 -17.510 -20.661  0.00  0.00    -0.152 OA
ENDROOT
BRANCH   1   5
ATOM      4  S   UNL     1      34.341 -15.769 -22.785  0.00  0.00    -0.047 S 
ATOM      5  C   UNL     1      35.016 -17.275 -23.227  0.00  0.00    +0.153 C 
ATOM      6  C   UNL     1      33.915 -15.432 -24.409  0.00  0.00    +0.152 C 
ATOM      7  C   UNL     1      34.921 -17.520 -24.573  0.00  0.00    +0.029 C 
ATOM      8  C   UNL     1      34.281 -16.450 -25.261  0.00  0.00    +0.028 C 
BRANCH   6   9
ATOM      9  S   UNL     1      33.110 -13.888 -24.654  0.00  0.00    +0.063 S 
ATOM     10  O   UNL     1      32.112 -13.733 -23.610  0.00  0.00    -0.153 OA
ATOM     11  O   UNL     1      34.132 -12.874 -24.847  0.00  0.00    -0.153 OA
BRANCH   9  12
ATOM     12  N   UNL     1      32.324 -14.177 -26.140  0.00  0.00    -0.203 NA
ATOM     13  H   UNL     1      31.995 -15.142 -26.168  0.00  0.00    +0.144 HD
ATOM     14  H   UNL     1      32.977 -14.019 -26.907  0.00  0.00    +0.144 HD
ENDBRANCH   9  12
ENDBRANCH   6   9
ENDBRANCH   1   5
BRANCH   1  15
ATOM     15  N   UNL     1      34.820 -19.664 -21.997  0.00  0.00    -0.174 NA
ATOM     16  H   UNL     1      35.494 -20.416 -21.853  0.00  0.00    +0.149 HD
BRANCH  15  17
ATOM     17  C   UNL     1      33.695 -19.931 -21.098  0.00  0.00    +0.118 C 
BRANCH  17  18
ATOM     18  C   UNL     1      34.063 -20.856 -19.987  0.00  0.00    -0.005 C 
ATOM     19  C   UNL     1      35.401 -21.013 -19.625  0.00  0.00    +0.000 C 
ATOM     20  C   UNL     1      33.069 -21.565 -19.312  0.00  0.00    +0.000 C 
ATOM     21  C   UNL     1      35.745 -21.879 -18.587  0.00  0.00    +0.037 C 
ATOM     22  C   UNL     1      33.414 -22.431 -18.273  0.00  0.00    +0.037 C 
ATOM     23  C   UNL     1      34.753 -22.588 -17.912  0.00  0.00    +0.139 C 
BRANCH  23  24
ATOM     24  O   UNL     1      35.089 -23.431 -16.898  0.00  0.00    -0.471 OA
ATOM     25  C   UNL     1      36.121 -23.002 -16.011  0.00  0.00    +0.252 C 
ENDBRANCH  23  24
ENDBRANCH  17  18
ENDBRANCH  15  17
ENDBRANCH   1  15
TORSDOF 7
ENDMDL
MODEL 9
REMARK VINA RESULT:      -8.6     12.477     15.268
REMARK  Name = 4316
REMARK  7 active torsions:
REMARK  status: ('A' for Active; 'I' for Inactive)
REMARK    1  A    between atoms: S_1  and  C_5
REMARK    2  A    between atoms: S_1  and  N_15
REMARK    3  A    between atoms: C_6  and  S_9
REMARK    4  A    between atoms: S_9  and  N_12
REMARK    5  A    between atoms: N_15  and  C_17
REMARK    6  A    between atoms: C_17  and  C_18
REMARK    7  A    between atoms: C_23  and  O_24
REMARK                            x       y       z     vdW  Elec       q    Type
REMARK                         _______ _______ _______ _____ _____    ______ ____
ROOT
ATOM      1  S   UNL     1      33.031 -13.469 -23.513  0.00  0.00    +0.066 S 
ATOM      2  O   UNL     1      32.862 -14.113 -24.802  0.00  0.00    -0.152 OA
ATOM      3  O   UNL     1      31.888 -12.894 -22.829  0.00  0.00    -0.152 OA
ENDROOT
BRANCH   1   5
ATOM      4  S   UNL     1      34.182 -16.128 -23.135  0.00  0.00    -0.047 S 
ATOM      5  C   UNL     1      33.755 -14.643 -22.408  0.00  0.00    +0.153 C 
ATOM      6  C   UNL     1      34.769 -16.740 -21.647  0.00  0.00    +0.152 C 
ATOM      7  C   UNL     1      34.047 -14.608 -21.069  0.00  0.00    +0.029 C 
ATOM      8  C   UNL     1      34.636 -15.826 -20.625  0.00  0.00    +0.028 C 
BRANCH   6   9
ATOM      9  S   UNL     1      35.405 -18.377 -21.723  0.00  0.00    +0.063 S 
ATOM     10  O   UNL     1      36.144 -18.627 -20.498  0.00  0.00    -0.153 OA
ATOM     11  O   UNL     1      34.324 -19.262 -22.120  0.00  0.00    -0.153 OA
BRANCH   9  12
ATOM     12  N   UNL     1      36.505 -18.225 -23.019  0.00  0.00    -0.203 NA
ATOM     13  H   UNL     1      36.272 -18.904 -23.743  0.00  0.00    +0.144 HD
ATOM     14  H   UNL     1      37.452 -18.398 -22.683  0.00  0.00    +0.144 HD
ENDBRANCH   9  12
ENDBRANCH   6   9
ENDBRANCH   1   5
BRANCH   1  15
ATOM     15  N   UNL     1      34.267 -12.297 -23.632  0.00  0.00    -0.174 NA
ATOM     16  H   UNL     1      35.134 -12.804 -23.813  0.00  0.00    +0.149 HD
BRANCH  15  17
ATOM     17  C   UNL     1      34.185 -11.234 -24.635  0.00  0.00    +0.118 C 
BRANCH  17  18
ATOM     18  C   UNL     1      33.812  -9.918 -24.037  0.00  0.00    -0.005 C 
ATOM     19  C   UNL     1      34.754  -8.892 -23.970  0.00  0.00    +0.000 C 
ATOM     20  C   UNL     1      32.523  -9.716 -23.546  0.00  0.00    +0.000 C 
ATOM     21  C   UNL     1      34.406  -7.662 -23.410  0.00  0.00    +0.037 C 
ATOM     22  C   UNL     1      32.174  -8.486 -22.987  0.00  0.00    +0.037 C 
ATOM     23  C   UNL     1      33.117  -7.459 -22.919  0.00  0.00    +0.139 C 
BRANCH  23  24
ATOM     24  O   UNL     1      32.778  -6.259 -22.375  0.00  0.00    -0.471 OA
ATOM     25  C   UNL     1      31.946  -6.282 -21.216  0.00  0.00    +0.252 C 
ENDBRANCH  23  24
ENDBRANCH  17  18
ENDBRANCH  15  17
ENDBRANCH   1  15
TORSDOF 7
ENDMDL
