MODEL 1
REMARK VINA RESULT:      -8.9      0.000      0.000
REMARK  Name = 6802
REMARK  5 active torsions:
REMARK  status: ('A' for Active; 'I' for Inactive)
REMARK    1  A    between atoms: N9_2  and  C1*_16
REMARK    2  A    between atoms: C2*_17  and  O2*_20
REMARK    3  A    between atoms: C3*_18  and  O3*_22
REMARK    4  A    between atoms: C4*_19  and  C5*_24
REMARK    5  A    between atoms: C5*_24  and  O5*_25
REMARK                            x       y       z     vdW  Elec       q    Type
REMARK                         _______ _______ _______ _____ _____    ______ ____
ROOT
ATOM      1  O6  G   A   1      32.698 -22.922 -18.185  0.00  0.00    -0.208 OA
ATOM      2  N9  G   A   1      35.493 -23.287 -14.650  0.00  0.00    -0.207 NA
ATOM      3  N3  G   A   1      33.109 -23.371 -14.172  0.00  0.00    -0.279 N 
ATOM      4  N7  G   A   1      35.337 -23.037 -16.876  0.00  0.00    -0.241 NA
ATOM      5  N1  G   A   1      31.703 -23.170 -16.108  0.00  0.00    -0.301 NA
ATOM      6  N2  G   A   1      30.810 -23.427 -13.941  0.00  0.00    -0.320 N 
ATOM      7  C4  G   A   1      34.177 -23.268 -14.967  0.00  0.00    +0.191 C 
ATOM      8  C8  G   A   1      36.160 -23.141 -15.846  0.00  0.00    +0.205 C 
ATOM      9  C5  G   A   1      34.092 -23.116 -16.321  0.00  0.00    +0.183 C 
ATOM     10  C6  G   A   1      32.798 -23.059 -16.973  0.00  0.00    +0.224 C 
ATOM     11  C2  G   A   1      31.870 -23.315 -14.805  0.00  0.00    +0.245 C 
ATOM     12  H3  G   A   1      33.193 -23.480 -13.198  0.00  0.00    +0.152 HD
ATOM     13  H21 G   A   1      30.972 -23.535 -12.976  0.00  0.00    +0.146 HD
ATOM     14  H22 G   A   1      29.889 -23.402 -14.286  0.00  0.00    +0.146 HD
ENDROOT
BRANCH   2  16
ATOM     15  O4* G   A   1      37.525 -23.237 -13.427  0.00  0.00    -0.336 OA
ATOM     16  C1* G   A   1      36.101 -23.428 -13.330  0.00  0.00    +0.209 C 
ATOM     17  C2* G   A   1      35.900 -24.799 -12.699  0.00  0.00    +0.183 C 
ATOM     18  C3* G   A   1      37.082 -24.872 -11.753  0.00  0.00    +0.171 C 
ATOM     19  C4* G   A   1      38.183 -24.187 -12.556  0.00  0.00    +0.175 C 
BRANCH  17  20
ATOM     20  O2* G   A   1      34.654 -24.896 -12.037  0.00  0.00    -0.378 OA
ATOM     21  H2* G   A   1      34.370 -24.013 -11.754  0.00  0.00    +0.211 HD
ENDBRANCH  17  20
BRANCH  18  22
ATOM     22  O3* G   A   1      36.809 -24.092 -10.589  0.00  0.00    -0.379 OA
ATOM     23  H3* G   A   1      35.862 -24.139 -10.383  0.00  0.00    +0.211 HD
ENDBRANCH  18  22
BRANCH  19  24
ATOM     24  C5* G   A   1      38.980 -25.156 -13.418  0.00  0.00    +0.169 C 
BRANCH  24  25
ATOM     25  O5* G   A   1      39.213 -24.556 -14.680  0.00  0.00    -0.379 OA
ATOM     26  H5* G   A   1      40.105 -24.178 -14.699  0.00  0.00    +0.211 HD
ENDBRANCH  24  25
ENDBRANCH  19  24
ENDBRANCH   2  16
TORSDOF 5
ENDMDL
MODEL 2
REMARK VINA RESULT:      -8.8      2.037      3.389
REMARK  Name = 6802
REMARK  5 active torsions:
REMARK  status: ('A' for Active; 'I' for Inactive)
REMARK    1  A    between atoms: N9_2  and  C1*_16
REMARK    2  A    between atoms: C2*_17  and  O2*_20
REMARK    3  A    between atoms: C3*_18  and  O3*_22
REMARK    4  A    between atoms: C4*_19  and  C5*_24
REMARK    5  A    between atoms: C5*_24  and  O5*_25
REMARK                            x       y       z     vdW  Elec       q    Type
REMARK                         _______ _______ _______ _____ _____    ______ ____
ROOT
ATOM      1  O6  G   A   1      29.245 -22.442 -17.062  0.00  0.00    -0.208 OA
ATOM      2  N9  G   A   1      33.625 -23.432 -16.536  0.00  0.00    -0.207 NA
ATOM      3  N3  G   A   1      32.132 -24.089 -14.731  0.00  0.00    -0.279 N 
ATOM      4  N7  G   A   1      32.077 -22.506 -17.874  0.00  0.00    -0.241 NA
ATOM      5  N1  G   A   1      29.827 -23.523 -15.097  0.00  0.00    -0.301 NA
ATOM      6  N2  G   A   1      30.544 -24.624 -13.139  0.00  0.00    -0.320 N 
ATOM      7  C4  G   A   1      32.427 -23.545 -15.915  0.00  0.00    +0.191 C 
ATOM      8  C8  G   A   1      33.360 -22.790 -17.726  0.00  0.00    +0.205 C 
ATOM      9  C5  G   A   1      31.494 -22.980 -16.734  0.00  0.00    +0.183 C 
ATOM     10  C6  G   A   1      30.098 -22.945 -16.343  0.00  0.00    +0.224 C 
ATOM     11  C2  G   A   1      30.789 -24.051 -14.362  0.00  0.00    +0.245 C 
ATOM     12  H3  G   A   1      32.821 -24.491 -14.155  0.00  0.00    +0.152 HD
ATOM     13  H21 G   A   1      31.286 -25.008 -12.618  0.00  0.00    +0.146 HD
ATOM     14  H22 G   A   1      29.626 -24.652 -12.784  0.00  0.00    +0.146 HD
ENDROOT
BRANCH   2  16
ATOM     15  O4* G   A   1      34.761 -24.829 -14.992  0.00  0.00    -0.336 OA
ATOM     16  C1* G   A   1      34.931 -23.884 -16.066  0.00  0.00    +0.209 C 
ATOM     17  C2* G   A   1      35.811 -22.771 -15.515  0.00  0.00    +0.183 C 
ATOM     18  C3* G   A   1      36.721 -23.541 -14.579  0.00  0.00    +0.171 C 
ATOM     19  C4* G   A   1      35.774 -24.582 -13.989  0.00  0.00    +0.175 C 
BRANCH  17  20
ATOM     20  O2* G   A   1      36.513 -22.099 -16.542  0.00  0.00    -0.378 OA
ATOM     21  H2* G   A   1      35.995 -22.130 -17.361  0.00  0.00    +0.211 HD
ENDBRANCH  17  20
BRANCH  18  22
ATOM     22  O3* G   A   1      37.727 -24.212 -15.338  0.00  0.00    -0.379 OA
ATOM     23  H3* G   A   1      38.060 -23.617 -16.028  0.00  0.00    +0.211 HD
ENDBRANCH  18  22
BRANCH  19  24
ATOM     24  C5* G   A   1      35.086 -24.106 -12.718  0.00  0.00    +0.169 C 
BRANCH  24  25
ATOM     25  O5* G   A   1      33.833 -24.759 -12.608  0.00  0.00    -0.379 OA
ATOM     26  H5* G   A   1      33.300 -24.322 -11.927  0.00  0.00    +0.211 HD
ENDBRANCH  24  25
ENDBRANCH  19  24
ENDBRANCH   2  16
TORSDOF 5
ENDMDL
MODEL 3
REMARK VINA RESULT:      -8.7      1.600      2.237
REMARK  Name = 6802
REMARK  5 active torsions:
REMARK  status: ('A' for Active; 'I' for Inactive)
REMARK    1  A    between atoms: N9_2  and  C1*_16
REMARK    2  A    between atoms: C2*_17  and  O2*_20
REMARK    3  A    between atoms: C3*_18  and  O3*_22
REMARK    4  A    between atoms: C4*_19  and  C5*_24
REMARK    5  A    between atoms: C5*_24  and  O5*_25
REMARK                            x       y       z     vdW  Elec       q    Type
REMARK                         _______ _______ _______ _____ _____    ______ ____
ROOT
ATOM      1  O6  G   A   1      31.185 -22.569 -17.028  0.00  0.00    -0.208 OA
ATOM      2  N9  G   A   1      34.845 -24.281 -15.000  0.00  0.00    -0.207 NA
ATOM      3  N3  G   A   1      32.692 -24.809 -13.998  0.00  0.00    -0.279 N 
ATOM      4  N7  G   A   1      34.077 -23.031 -16.701  0.00  0.00    -0.241 NA
ATOM      5  N1  G   A   1      30.806 -23.858 -15.141  0.00  0.00    -0.301 NA
ATOM      6  N2  G   A   1      30.552 -25.188 -13.211  0.00  0.00    -0.320 N 
ATOM      7  C4  G   A   1      33.495 -24.242 -14.902  0.00  0.00    +0.191 C 
ATOM      8  C8  G   A   1      35.152 -23.527 -16.111  0.00  0.00    +0.205 C 
ATOM      9  C5  G   A   1      33.038 -23.481 -15.938  0.00  0.00    +0.183 C 
ATOM     10  C6  G   A   1      31.616 -23.249 -16.107  0.00  0.00    +0.224 C 
ATOM     11  C2  G   A   1      31.328 -24.581 -14.166  0.00  0.00    +0.245 C 
ATOM     12  H3  G   A   1      33.043 -25.354 -13.257  0.00  0.00    +0.152 HD
ATOM     13  H21 G   A   1      30.975 -25.720 -12.498  0.00  0.00    +0.146 HD
ATOM     14  H22 G   A   1      29.573 -25.092 -13.239  0.00  0.00    +0.146 HD
ENDROOT
BRANCH   2  16
ATOM     15  O4* G   A   1      35.607 -24.530 -12.768  0.00  0.00    -0.336 OA
ATOM     16  C1* G   A   1      35.793 -24.967 -14.128  0.00  0.00    +0.209 C 
ATOM     17  C2* G   A   1      37.252 -24.696 -14.464  0.00  0.00    +0.183 C 
ATOM     18  C3* G   A   1      37.923 -24.954 -13.128  0.00  0.00    +0.171 C 
ATOM     19  C4* G   A   1      36.904 -24.393 -12.140  0.00  0.00    +0.175 C 
BRANCH  17  20
ATOM     20  O2* G   A   1      37.722 -25.545 -15.492  0.00  0.00    -0.378 OA
ATOM     21  H2* G   A   1      37.491 -26.463 -15.283  0.00  0.00    +0.211 HD
ENDBRANCH  17  20
BRANCH  18  22
ATOM     22  O3* G   A   1      38.041 -26.360 -12.919  0.00  0.00    -0.379 OA
ATOM     23  H3* G   A   1      38.979 -26.609 -12.919  0.00  0.00    +0.211 HD
ENDBRANCH  18  22
BRANCH  19  24
ATOM     24  C5* G   A   1      37.131 -22.922 -11.823  0.00  0.00    +0.169 C 
BRANCH  24  25
ATOM     25  O5* G   A   1      38.514 -22.714 -11.599  0.00  0.00    -0.379 OA
ATOM     26  H5* G   A   1      38.987 -22.750 -12.444  0.00  0.00    +0.211 HD
ENDBRANCH  24  25
ENDBRANCH  19  24
ENDBRANCH   2  16
TORSDOF 5
ENDMDL
MODEL 4
REMARK VINA RESULT:      -8.6      2.112      2.997
REMARK  Name = 6802
REMARK  5 active torsions:
REMARK  status: ('A' for Active; 'I' for Inactive)
REMARK    1  A    between atoms: N9_2  and  C1*_16
REMARK    2  A    between atoms: C2*_17  and  O2*_20
REMARK    3  A    between atoms: C3*_18  and  O3*_22
REMARK    4  A    between atoms: C4*_19  and  C5*_24
REMARK    5  A    between atoms: C5*_24  and  O5*_25
REMARK                            x       y       z     vdW  Elec       q    Type
REMARK                         _______ _______ _______ _____ _____    ______ ____
ROOT
ATOM      1  O6  G   A   1      29.870 -23.265 -15.600  0.00  0.00    -0.208 OA
ATOM      2  N9  G   A   1      34.222 -23.789 -14.493  0.00  0.00    -0.207 NA
ATOM      3  N3  G   A   1      33.753 -23.051 -16.763  0.00  0.00    -0.279 N 
ATOM      4  N7  G   A   1      32.095 -23.928 -13.784  0.00  0.00    -0.241 NA
ATOM      5  N1  G   A   1      31.417 -22.801 -17.261  0.00  0.00    -0.301 NA
ATOM      6  N2  G   A   1      33.087 -22.358 -18.865  0.00  0.00    -0.320 N 
ATOM      7  C4  G   A   1      33.423 -23.430 -15.525  0.00  0.00    +0.191 C 
ATOM      8  C8  G   A   1      33.367 -24.085 -13.455  0.00  0.00    +0.205 C 
ATOM      9  C5  G   A   1      32.134 -23.517 -15.086  0.00  0.00    +0.183 C 
ATOM     10  C6  G   A   1      31.033 -23.192 -15.972  0.00  0.00    +0.224 C 
ATOM     11  C2  G   A   1      32.690 -22.741 -17.609  0.00  0.00    +0.245 C 
ATOM     12  H3  G   A   1      34.689 -22.995 -17.060  0.00  0.00    +0.152 HD
ATOM     13  H21 G   A   1      34.045 -22.325 -19.090  0.00  0.00    +0.146 HD
ATOM     14  H22 G   A   1      32.413 -22.116 -19.541  0.00  0.00    +0.146 HD
ENDROOT
BRANCH   2  16
ATOM     15  O4* G   A   1      36.152 -24.679 -15.547  0.00  0.00    -0.336 OA
ATOM     16  C1* G   A   1      35.680 -23.857 -14.462  0.00  0.00    +0.209 C 
ATOM     17  C2* G   A   1      36.245 -24.470 -13.189  0.00  0.00    +0.183 C 
ATOM     18  C3* G   A   1      37.588 -24.983 -13.671  0.00  0.00    +0.171 C 
ATOM     19  C4* G   A   1      37.259 -25.483 -15.075  0.00  0.00    +0.175 C 
BRANCH  17  20
ATOM     20  O2* G   A   1      36.357 -23.517 -12.151  0.00  0.00    -0.378 OA
ATOM     21  H2* G   A   1      37.137 -22.962 -12.305  0.00  0.00    +0.211 HD
ENDBRANCH  17  20
BRANCH  18  22
ATOM     22  O3* G   A   1      38.505 -23.895 -13.773  0.00  0.00    -0.379 OA
ATOM     23  H3* G   A   1      39.406 -24.240 -13.875  0.00  0.00    +0.211 HD
ENDBRANCH  18  22
BRANCH  19  24
ATOM     24  C5* G   A   1      36.837 -26.944 -15.102  0.00  0.00    +0.169 C 
BRANCH  24  25
ATOM     25  O5* G   A   1      36.783 -27.377 -16.450  0.00  0.00    -0.379 OA
ATOM     26  H5* G   A   1      36.063 -28.018 -16.555  0.00  0.00    +0.211 HD
ENDBRANCH  24  25
ENDBRANCH  19  24
ENDBRANCH   2  16
TORSDOF 5
ENDMDL
MODEL 5
REMARK VINA RESULT:      -8.5      2.765      4.695
REMARK  Name = 6802
REMARK  5 active torsions:
REMARK  status: ('A' for Active; 'I' for Inactive)
REMARK    1  A    between atoms: N9_2  and  C1*_16
REMARK    2  A    between atoms: C2*_17  and  O2*_20
REMARK    3  A    between atoms: C3*_18  and  O3*_22
REMARK    4  A    between atoms: C4*_19  and  C5*_24
REMARK    5  A    between atoms: C5*_24  and  O5*_25
REMARK                            x       y       z     vdW  Elec       q    Type
REMARK                         _______ _______ _______ _____ _____    ______ ____
ROOT
ATOM      1  O6  G   A   1      32.414 -20.752 -20.628  0.00  0.00    -0.208 OA
ATOM      2  N9  G   A   1      34.754 -22.870 -17.391  0.00  0.00    -0.207 NA
ATOM      3  N3  G   A   1      36.002 -21.355 -18.828  0.00  0.00    -0.279 N 
ATOM      4  N7  G   A   1      32.739 -22.582 -18.340  0.00  0.00    -0.241 NA
ATOM      5  N1  G   A   1      34.679 -20.275 -20.516  0.00  0.00    -0.301 NA
ATOM      6  N2  G   A   1      36.992 -19.874 -20.300  0.00  0.00    -0.320 N 
ATOM      7  C4  G   A   1      34.903 -21.985 -18.404  0.00  0.00    +0.191 C 
ATOM      8  C8  G   A   1      33.418 -23.207 -17.393  0.00  0.00    +0.205 C 
ATOM      9  C5  G   A   1      33.675 -21.816 -18.975  0.00  0.00    +0.183 C 
ATOM     10  C6  G   A   1      33.506 -20.917 -20.100  0.00  0.00    +0.224 C 
ATOM     11  C2  G   A   1      35.831 -20.493 -19.909  0.00  0.00    +0.245 C 
ATOM     12  H3  G   A   1      36.878 -21.491 -18.402  0.00  0.00    +0.152 HD
ATOM     13  H21 G   A   1      37.833 -20.060 -19.824  0.00  0.00    +0.146 HD
ATOM     14  H22 G   A   1      36.982 -19.242 -21.055  0.00  0.00    +0.146 HD
ENDROOT
BRANCH   2  16
ATOM     15  O4* G   A   1      35.251 -24.494 -15.734  0.00  0.00    -0.336 OA
ATOM     16  C1* G   A   1      35.775 -23.377 -16.478  0.00  0.00    +0.209 C 
ATOM     17  C2* G   A   1      36.242 -22.362 -15.446  0.00  0.00    +0.183 C 
ATOM     18  C3* G   A   1      36.737 -23.267 -14.335  0.00  0.00    +0.171 C 
ATOM     19  C4* G   A   1      35.723 -24.407 -14.369  0.00  0.00    +0.175 C 
BRANCH  17  20
ATOM     20  O2* G   A   1      37.250 -21.515 -15.960  0.00  0.00    -0.378 OA
ATOM     21  H2* G   A   1      36.856 -20.888 -16.586  0.00  0.00    +0.211 HD
ENDBRANCH  17  20
BRANCH  18  22
ATOM     22  O3* G   A   1      38.022 -23.784 -14.679  0.00  0.00    -0.379 OA
ATOM     23  H3* G   A   1      38.701 -23.119 -14.480  0.00  0.00    +0.211 HD
ENDBRANCH  18  22
BRANCH  19  24
ATOM     24  C5* G   A   1      34.526 -24.164 -13.461  0.00  0.00    +0.169 C 
BRANCH  24  25
ATOM     25  O5* G   A   1      34.700 -24.912 -12.270  0.00  0.00    -0.379 OA
ATOM     26  H5* G   A   1      34.052 -25.633 -12.244  0.00  0.00    +0.211 HD
ENDBRANCH  24  25
ENDBRANCH  19  24
ENDBRANCH   2  16
TORSDOF 5
ENDMDL
MODEL 6
REMARK VINA RESULT:      -8.4      1.870      3.234
REMARK  Name = 6802
REMARK  5 active torsions:
REMARK  status: ('A' for Active; 'I' for Inactive)
REMARK    1  A    between atoms: N9_2  and  C1*_16
REMARK    2  A    between atoms: C2*_17  and  O2*_20
REMARK    3  A    between atoms: C3*_18  and  O3*_22
REMARK    4  A    between atoms: C4*_19  and  C5*_24
REMARK    5  A    between atoms: C5*_24  and  O5*_25
REMARK                            x       y       z     vdW  Elec       q    Type
REMARK                         _______ _______ _______ _____ _____    ______ ____
ROOT
ATOM      1  O6  G   A   1      29.996 -22.783 -15.394  0.00  0.00    -0.208 OA
ATOM      2  N9  G   A   1      34.232 -24.158 -14.618  0.00  0.00    -0.207 NA
ATOM      3  N3  G   A   1      33.739 -23.349 -16.858  0.00  0.00    -0.279 N 
ATOM      4  N7  G   A   1      32.183 -23.869 -13.744  0.00  0.00    -0.241 NA
ATOM      5  N1  G   A   1      31.467 -22.640 -17.178  0.00  0.00    -0.301 NA
ATOM      6  N2  G   A   1      33.059 -22.544 -18.915  0.00  0.00    -0.320 N 
ATOM      7  C4  G   A   1      33.441 -23.651 -15.592  0.00  0.00    +0.191 C 
ATOM      8  C8  G   A   1      33.420 -24.275 -13.511  0.00  0.00    +0.205 C 
ATOM      9  C5  G   A   1      32.199 -23.478 -15.053  0.00  0.00    +0.183 C 
ATOM     10  C6  G   A   1      31.118 -22.944 -15.857  0.00  0.00    +0.224 C 
ATOM     11  C2  G   A   1      32.695 -22.836 -17.625  0.00  0.00    +0.245 C 
ATOM     12  H3  G   A   1      34.642 -23.482 -17.227  0.00  0.00    +0.152 HD
ATOM     13  H21 G   A   1      33.983 -22.703 -19.214  0.00  0.00    +0.146 HD
ATOM     14  H22 G   A   1      32.396 -22.174 -19.542  0.00  0.00    +0.146 HD
ENDROOT
BRANCH   2  16
ATOM     15  O4* G   A   1      36.106 -24.972 -13.412  0.00  0.00    -0.336 OA
ATOM     16  C1* G   A   1      35.646 -24.515 -14.698  0.00  0.00    +0.209 C 
ATOM     17  C2* G   A   1      36.555 -23.359 -15.087  0.00  0.00    +0.183 C 
ATOM     18  C3* G   A   1      37.877 -23.801 -14.490  0.00  0.00    +0.171 C 
ATOM     19  C4* G   A   1      37.440 -24.458 -13.185  0.00  0.00    +0.175 C 
BRANCH  17  20
ATOM     20  O2* G   A   1      36.613 -23.183 -16.489  0.00  0.00    -0.378 OA
ATOM     21  H2* G   A   1      35.880 -22.615 -16.773  0.00  0.00    +0.211 HD
ENDBRANCH  17  20
BRANCH  18  22
ATOM     22  O3* G   A   1      38.471 -24.791 -15.328  0.00  0.00    -0.379 OA
ATOM     23  H3* G   A   1      39.055 -24.361 -15.973  0.00  0.00    +0.211 HD
ENDBRANCH  18  22
BRANCH  19  24
ATOM     24  C5* G   A   1      37.386 -23.484 -12.017  0.00  0.00    +0.169 C 
BRANCH  24  25
ATOM     25  O5* G   A   1      38.710 -23.210 -11.592  0.00  0.00    -0.379 OA
ATOM     26  H5* G   A   1      39.077 -23.993 -11.153  0.00  0.00    +0.211 HD
ENDBRANCH  24  25
ENDBRANCH  19  24
ENDBRANCH   2  16
TORSDOF 5
ENDMDL
MODEL 7
REMARK VINA RESULT:      -8.3      1.977      3.176
REMARK  Name = 6802
REMARK  5 active torsions:
REMARK  status: ('A' for Active; 'I' for Inactive)
REMARK    1  A    between atoms: N9_2  and  C1*_16
REMARK    2  A    between atoms: C2*_17  and  O2*_20
REMARK    3  A    between atoms: C3*_18  and  O3*_22
REMARK    4  A    between atoms: C4*_19  and  C5*_24
REMARK    5  A    between atoms: C5*_24  and  O5*_25
REMARK                            x       y       z     vdW  Elec       q    Type
REMARK                         _______ _______ _______ _____ _____    ______ ____
ROOT
ATOM      1  O6  G   A   1      30.320 -22.718 -16.859  0.00  0.00    -0.208 OA
ATOM      2  N9  G   A   1      34.048 -24.046 -14.674  0.00  0.00    -0.207 NA
ATOM      3  N3  G   A   1      34.352 -23.182 -16.927  0.00  0.00    -0.279 N 
ATOM      4  N7  G   A   1      31.817 -23.816 -14.570  0.00  0.00    -0.241 NA
ATOM      5  N1  G   A   1      32.319 -22.501 -18.010  0.00  0.00    -0.301 NA
ATOM      6  N2  G   A   1      34.416 -22.329 -19.075  0.00  0.00    -0.320 N 
ATOM      7  C4  G   A   1      33.636 -23.524 -15.853  0.00  0.00    +0.191 C 
ATOM      8  C8  G   A   1      32.903 -24.208 -13.925  0.00  0.00    +0.205 C 
ATOM      9  C5  G   A   1      32.280 -23.387 -15.781  0.00  0.00    +0.183 C 
ATOM     10  C6  G   A   1      31.536 -22.848 -16.902  0.00  0.00    +0.224 C 
ATOM     11  C2  G   A   1      33.630 -22.664 -18.001  0.00  0.00    +0.245 C 
ATOM     12  H3  G   A   1      35.329 -23.289 -16.959  0.00  0.00    +0.152 HD
ATOM     13  H21 G   A   1      35.390 -22.464 -19.033  0.00  0.00    +0.146 HD
ATOM     14  H22 G   A   1      34.005 -21.953 -19.886  0.00  0.00    +0.146 HD
ENDROOT
BRANCH   2  16
ATOM     15  O4* G   A   1      36.217 -23.185 -14.247  0.00  0.00    -0.336 OA
ATOM     16  C1* G   A   1      35.409 -24.378 -14.260  0.00  0.00    +0.209 C 
ATOM     17  C2* G   A   1      36.116 -25.358 -15.185  0.00  0.00    +0.183 C 
ATOM     18  C3* G   A   1      37.571 -25.023 -14.923  0.00  0.00    +0.171 C 
ATOM     19  C4* G   A   1      37.531 -23.507 -14.759  0.00  0.00    +0.175 C 
BRANCH  17  20
ATOM     20  O2* G   A   1      35.792 -26.699 -14.876  0.00  0.00    -0.378 OA
ATOM     21  H2* G   A   1      36.178 -27.286 -15.545  0.00  0.00    +0.211 HD
ENDBRANCH  17  20
BRANCH  18  22
ATOM     22  O3* G   A   1      37.980 -25.609 -13.687  0.00  0.00    -0.379 OA
ATOM     23  H3* G   A   1      38.036 -24.920 -13.006  0.00  0.00    +0.211 HD
ENDBRANCH  18  22
BRANCH  19  24
ATOM     24  C5* G   A   1      37.732 -22.762 -16.071  0.00  0.00    +0.169 C 
BRANCH  24  25
ATOM     25  O5* G   A   1      36.799 -21.698 -16.136  0.00  0.00    -0.379 OA
ATOM     26  H5* G   A   1      36.950 -21.089 -15.397  0.00  0.00    +0.211 HD
ENDBRANCH  24  25
ENDBRANCH  19  24
ENDBRANCH   2  16
TORSDOF 5
ENDMDL
MODEL 8
REMARK VINA RESULT:      -8.3      2.614      5.597
REMARK  Name = 6802
REMARK  5 active torsions:
REMARK  status: ('A' for Active; 'I' for Inactive)
REMARK    1  A    between atoms: N9_2  and  C1*_16
REMARK    2  A    between atoms: C2*_17  and  O2*_20
REMARK    3  A    between atoms: C3*_18  and  O3*_22
REMARK    4  A    between atoms: C4*_19  and  C5*_24
REMARK    5  A    between atoms: C5*_24  and  O5*_25
REMARK                            x       y       z     vdW  Elec       q    Type
REMARK                         _______ _______ _______ _____ _____    ______ ____
ROOT
ATOM      1  O6  G   A   1      37.164 -21.984 -17.626  0.00  0.00    -0.208 OA
ATOM      2  N9  G   A   1      33.293 -23.524 -15.870  0.00  0.00    -0.207 NA
ATOM      3  N3  G   A   1      35.197 -23.382 -14.363  0.00  0.00    -0.279 N 
ATOM      4  N7  G   A   1      34.321 -22.757 -17.714  0.00  0.00    -0.241 NA
ATOM      5  N1  G   A   1      37.208 -22.554 -15.381  0.00  0.00    -0.301 NA
ATOM      6  N2  G   A   1      37.125 -23.167 -13.106  0.00  0.00    -0.320 N 
ATOM      7  C4  G   A   1      34.577 -23.250 -15.538  0.00  0.00    +0.191 C 
ATOM      8  C8  G   A   1      33.186 -23.208 -17.207  0.00  0.00    +0.205 C 
ATOM      9  C5  G   A   1      35.193 -22.785 -16.663  0.00  0.00    +0.183 C 
ATOM     10  C6  G   A   1      36.591 -22.403 -16.629  0.00  0.00    +0.224 C 
ATOM     11  C2  G   A   1      36.540 -23.012 -14.338  0.00  0.00    +0.245 C 
ATOM     12  H3  G   A   1      34.734 -23.719 -13.563  0.00  0.00    +0.152 HD
ATOM     13  H21 G   A   1      36.597 -23.511 -12.350  0.00  0.00    +0.146 HD
ATOM     14  H22 G   A   1      38.073 -22.933 -12.978  0.00  0.00    +0.146 HD
ENDROOT
BRANCH   2  16
ATOM     15  O4* G   A   1      31.039 -24.260 -15.794  0.00  0.00    -0.336 OA
ATOM     16  C1* G   A   1      32.231 -24.043 -15.013  0.00  0.00    +0.209 C 
ATOM     17  C2* G   A   1      31.832 -23.106 -13.883  0.00  0.00    +0.183 C 
ATOM     18  C3* G   A   1      30.409 -23.552 -13.609  0.00  0.00    +0.171 C 
ATOM     19  C4* G   A   1      29.890 -23.860 -15.010  0.00  0.00    +0.175 C 
BRANCH  17  20
ATOM     20  O2* G   A   1      32.681 -23.244 -12.761  0.00  0.00    -0.378 OA
ATOM     21  H2* G   A   1      33.606 -23.217 -13.051  0.00  0.00    +0.211 HD
ENDBRANCH  17  20
BRANCH  18  22
ATOM     22  O3* G   A   1      30.427 -24.759 -12.849  0.00  0.00    -0.379 OA
ATOM     23  H3* G   A   1      31.302 -25.172 -12.919  0.00  0.00    +0.211 HD
ENDBRANCH  18  22
BRANCH  19  24
ATOM     24  C5* G   A   1      29.246 -22.657 -15.683  0.00  0.00    +0.169 C 
BRANCH  24  25
ATOM     25  O5* G   A   1      29.726 -22.568 -17.013  0.00  0.00    -0.379 OA
ATOM     26  H5* G   A   1      29.033 -22.855 -17.627  0.00  0.00    +0.211 HD
ENDBRANCH  24  25
ENDBRANCH  19  24
ENDBRANCH   2  16
TORSDOF 5
ENDMDL
MODEL 9
REMARK VINA RESULT:      -8.3      1.409      2.857
REMARK  Name = 6802
REMARK  5 active torsions:
REMARK  status: ('A' for Active; 'I' for Inactive)
REMARK    1  A    between atoms: N9_2  and  C1*_16
REMARK    2  A    between atoms: C2*_17  and  O2*_20
REMARK    3  A    between atoms: C3*_18  and  O3*_22
REMARK    4  A    between atoms: C4*_19  and  C5*_24
REMARK    5  A    between atoms: C5*_24  and  O5*_25
REMARK                            x       y       z     vdW  Elec       q    Type
REMARK                         _______ _______ _______ _____ _____    ______ ____
ROOT
ATOM      1  O6  G   A   1      32.507 -23.102 -18.011  0.00  0.00    -0.208 OA
ATOM      2  N9  G   A   1      35.550 -23.384 -14.680  0.00  0.00    -0.207 NA
ATOM      3  N3  G   A   1      36.309 -22.405 -16.774  0.00  0.00    -0.279 N 
ATOM      4  N7  G   A   1      33.432 -23.797 -15.300  0.00  0.00    -0.241 NA
ATOM      5  N1  G   A   1      34.627 -22.296 -18.484  0.00  0.00    -0.301 NA
ATOM      6  N2  G   A   1      36.820 -21.508 -18.842  0.00  0.00    -0.320 N 
ATOM      7  C4  G   A   1      35.411 -22.966 -15.960  0.00  0.00    +0.191 C 
ATOM      8  C8  G   A   1      34.318 -23.884 -14.322  0.00  0.00    +0.205 C 
ATOM      9  C5  G   A   1      34.122 -23.220 -16.328  0.00  0.00    +0.183 C 
ATOM     10  C6  G   A   1      33.658 -22.882 -17.660  0.00  0.00    +0.224 C 
ATOM     11  C2  G   A   1      35.856 -22.082 -18.051  0.00  0.00    +0.245 C 
ATOM     12  H3  G   A   1      37.234 -22.230 -16.488  0.00  0.00    +0.152 HD
ATOM     13  H21 G   A   1      37.726 -21.363 -18.487  0.00  0.00    +0.146 HD
ATOM     14  H22 G   A   1      36.604 -21.240 -19.764  0.00  0.00    +0.146 HD
ENDROOT
BRANCH   2  16
ATOM     15  O4* G   A   1      37.878 -23.829 -14.569  0.00  0.00    -0.336 OA
ATOM     16  C1* G   A   1      36.742 -23.328 -13.838  0.00  0.00    +0.209 C 
ATOM     17  C2* G   A   1      36.647 -24.170 -12.574  0.00  0.00    +0.183 C 
ATOM     18  C3* G   A   1      38.110 -24.436 -12.278  0.00  0.00    +0.171 C 
ATOM     19  C4* G   A   1      38.696 -24.620 -13.675  0.00  0.00    +0.175 C 
BRANCH  17  20
ATOM     20  O2* G   A   1      35.988 -23.481 -11.531  0.00  0.00    -0.378 OA
ATOM     21  H2* G   A   1      36.624 -22.916 -11.065  0.00  0.00    +0.211 HD
ENDBRANCH  17  20
BRANCH  18  22
ATOM     22  O3* G   A   1      38.694 -23.277 -11.683  0.00  0.00    -0.379 OA
ATOM     23  H3* G   A   1      39.654 -23.399 -11.614  0.00  0.00    +0.211 HD
ENDBRANCH  18  22
BRANCH  19  24
ATOM     24  C5* G   A   1      38.663 -26.066 -14.147  0.00  0.00    +0.169 C 
BRANCH  24  25
ATOM     25  O5* G   A   1      38.181 -26.099 -15.479  0.00  0.00    -0.379 OA
ATOM     26  H5* G   A   1      37.599 -26.866 -15.593  0.00  0.00    +0.211 HD
ENDBRANCH  24  25
ENDBRANCH  19  24
ENDBRANCH   2  16
TORSDOF 5
ENDMDL
