MODEL 1
REMARK VINA RESULT:      -6.7      0.000      0.000
REMARK  Name = 447989
REMARK  5 active torsions:
REMARK  status: ('A' for Active; 'I' for Inactive)
REMARK    1  A    between atoms: C_2  and  C_12
REMARK    2  A    between atoms: CA_5  and  C_9
REMARK    3  A    between atoms: C_9  and  O_10
REMARK    4  A    between atoms: C_12  and  C_14
REMARK    5  A    between atoms: C_14  and  O_15
REMARK                            x       y       z     vdW  Elec       q    Type
REMARK                         _______ _______ _______ _____ _____    ______ ____
ROOT
ATOM      1  N   UNL     1      38.507 -24.859 -13.159  0.00  0.00    +0.394 N 
ATOM      2  C   UNL     1      37.418 -24.203 -13.901  0.00  0.00    -0.050 C 
ATOM      3  C   UNL     1      36.721 -25.363 -14.590  0.00  0.00    -0.022 C 
ATOM      4  C   UNL     1      37.862 -26.288 -14.983  0.00  0.00    -0.013 C 
ATOM      5  CA  UNL     1      39.001 -25.928 -14.035  0.00  0.00    +0.040 C 
ATOM      6  H1  UNL     1      38.157 -25.249 -12.284  0.00  0.00    -0.084 HD
ATOM      7  H2  UNL     1      39.247 -24.199 -12.917  0.00  0.00    -0.084 HD
ENDROOT
BRANCH   5   9
ATOM      8  OXT UNL     1      40.954 -24.536 -14.321  0.00  0.00    -0.253 OA
ATOM      9  C   UNL     1      40.189 -25.381 -14.762  0.00  0.00    +0.293 C 
BRANCH   9  10
ATOM     10  O   UNL     1      40.304 -25.949 -15.987  0.00  0.00    -0.482 OA
ATOM     11  H   UNL     1      40.700 -26.793 -16.077  0.00  0.00    +0.295 HD
ENDBRANCH   9  10
ENDBRANCH   5   9
BRANCH   2  12
ATOM     12  C   UNL     1      36.496 -23.417 -12.983  0.00  0.00    +0.088 C 
BRANCH  12  14
ATOM     13  O   UNL     1      36.922 -23.767 -10.609  0.00  0.00    -0.250 OA
ATOM     14  C   UNL     1      37.129 -23.149 -11.642  0.00  0.00    +0.312 C 
BRANCH  14  15
ATOM     15  O   UNL     1      37.985 -22.099 -11.734  0.00  0.00    -0.480 OA
ATOM     16  H   UNL     1      37.829 -21.324 -11.232  0.00  0.00    +0.295 HD
ENDBRANCH  14  15
ENDBRANCH  12  14
ENDBRANCH   2  12
TORSDOF 5
ENDMDL
MODEL 2
REMARK VINA RESULT:      -6.5      2.373      2.731
REMARK  Name = 447989
REMARK  5 active torsions:
REMARK  status: ('A' for Active; 'I' for Inactive)
REMARK    1  A    between atoms: C_2  and  C_12
REMARK    2  A    between atoms: CA_5  and  C_9
REMARK    3  A    between atoms: C_9  and  O_10
REMARK    4  A    between atoms: C_12  and  C_14
REMARK    5  A    between atoms: C_14  and  O_15
REMARK                            x       y       z     vdW  Elec       q    Type
REMARK                         _______ _______ _______ _____ _____    ______ ____
ROOT
ATOM      1  N   UNL     1      36.204 -25.485 -13.452  0.00  0.00    +0.394 N 
ATOM      2  C   UNL     1      37.234 -24.532 -13.007  0.00  0.00    -0.050 C 
ATOM      3  C   UNL     1      37.199 -23.457 -14.080  0.00  0.00    -0.022 C 
ATOM      4  C   UNL     1      36.961 -24.237 -15.364  0.00  0.00    -0.013 C 
ATOM      5  CA  UNL     1      36.318 -25.544 -14.914  0.00  0.00    +0.040 C 
ATOM      6  H1  UNL     1      35.277 -25.157 -13.180  0.00  0.00    -0.084 HD
ATOM      7  H2  UNL     1      36.333 -26.403 -13.026  0.00  0.00    -0.084 HD
ENDROOT
BRANCH   5   9
ATOM      8  OXT UNL     1      38.123 -27.112 -14.570  0.00  0.00    -0.253 OA
ATOM      9  C   UNL     1      37.170 -26.731 -15.236  0.00  0.00    +0.293 C 
BRANCH   9  10
ATOM     10  O   UNL     1      36.745 -27.333 -16.373  0.00  0.00    -0.482 OA
ATOM     11  H   UNL     1      37.361 -27.558 -17.042  0.00  0.00    +0.295 HD
ENDBRANCH   9  10
ENDBRANCH   5   9
BRANCH   2  12
ATOM     12  C   UNL     1      36.949 -23.991 -11.616  0.00  0.00    +0.088 C 
BRANCH  12  14
ATOM     13  O   UNL     1      35.274 -25.179 -10.303  0.00  0.00    -0.250 OA
ATOM     14  C   UNL     1      35.560 -24.344 -11.148  0.00  0.00    +0.312 C 
BRANCH  14  15
ATOM     15  O   UNL     1      34.642 -23.594 -11.808  0.00  0.00    -0.480 OA
ATOM     16  H   UNL     1      33.746 -23.602 -11.533  0.00  0.00    +0.295 HD
ENDBRANCH  14  15
ENDBRANCH  12  14
ENDBRANCH   2  12
TORSDOF 5
ENDMDL
MODEL 3
REMARK VINA RESULT:      -6.2      2.206      2.787
REMARK  Name = 447989
REMARK  5 active torsions:
REMARK  status: ('A' for Active; 'I' for Inactive)
REMARK    1  A    between atoms: C_2  and  C_12
REMARK    2  A    between atoms: CA_5  and  C_9
REMARK    3  A    between atoms: C_9  and  O_10
REMARK    4  A    between atoms: C_12  and  C_14
REMARK    5  A    between atoms: C_14  and  O_15
REMARK                            x       y       z     vdW  Elec       q    Type
REMARK                         _______ _______ _______ _____ _____    ______ ____
ROOT
ATOM      1  N   UNL     1      38.250 -24.752 -14.973  0.00  0.00    +0.394 N 
ATOM      2  C   UNL     1      37.193 -25.699 -14.582  0.00  0.00    -0.050 C 
ATOM      3  C   UNL     1      37.302 -25.736 -13.068  0.00  0.00    -0.022 C 
ATOM      4  C   UNL     1      38.800 -25.657 -12.813  0.00  0.00    -0.013 C 
ATOM      5  CA  UNL     1      39.378 -25.017 -14.071  0.00  0.00    +0.040 C 
ATOM      6  H1  UNL     1      37.925 -23.792 -14.864  0.00  0.00    -0.084 HD
ATOM      7  H2  UNL     1      38.516 -24.869 -15.952  0.00  0.00    -0.084 HD
ENDROOT
BRANCH   5   9
ATOM      8  OXT UNL     1      41.071 -26.729 -14.259  0.00  0.00    -0.253 OA
ATOM      9  C   UNL     1      40.308 -25.939 -14.795  0.00  0.00    +0.293 C 
BRANCH   9  10
ATOM     10  O   UNL     1      40.193 -25.778 -16.135  0.00  0.00    -0.482 OA
ATOM     11  H   UNL     1      39.417 -26.061 -16.577  0.00  0.00    +0.295 HD
ENDBRANCH   9  10
ENDBRANCH   5   9
BRANCH   2  12
ATOM     12  C   UNL     1      35.822 -25.254 -15.067  0.00  0.00    +0.088 C 
BRANCH  12  14
ATOM     13  O   UNL     1      35.956 -23.225 -16.410  0.00  0.00    -0.250 OA
ATOM     14  C   UNL     1      35.773 -23.771 -15.333  0.00  0.00    +0.312 C 
BRANCH  14  15
ATOM     15  O   UNL     1      35.491 -23.102 -14.186  0.00  0.00    -0.480 OA
ATOM     16  H   UNL     1      34.684 -22.634 -14.104  0.00  0.00    +0.295 HD
ENDBRANCH  14  15
ENDBRANCH  12  14
ENDBRANCH   2  12
TORSDOF 5
ENDMDL
MODEL 4
REMARK VINA RESULT:      -6.1      1.030      4.395
REMARK  Name = 447989
REMARK  5 active torsions:
REMARK  status: ('A' for Active; 'I' for Inactive)
REMARK    1  A    between atoms: C_2  and  C_12
REMARK    2  A    between atoms: CA_5  and  C_9
REMARK    3  A    between atoms: C_9  and  O_10
REMARK    4  A    between atoms: C_12  and  C_14
REMARK    5  A    between atoms: C_14  and  O_15
REMARK                            x       y       z     vdW  Elec       q    Type
REMARK                         _______ _______ _______ _____ _____    ______ ____
ROOT
ATOM      1  N   UNL     1      37.980 -24.022 -13.736  0.00  0.00    +0.394 N 
ATOM      2  C   UNL     1      38.192 -25.465 -13.537  0.00  0.00    -0.050 C 
ATOM      3  C   UNL     1      36.781 -26.027 -13.545  0.00  0.00    -0.022 C 
ATOM      4  C   UNL     1      35.967 -24.967 -12.821  0.00  0.00    -0.013 C 
ATOM      5  CA  UNL     1      36.778 -23.684 -12.964  0.00  0.00    +0.040 C 
ATOM      6  H1  UNL     1      37.838 -23.817 -14.725  0.00  0.00    -0.084 HD
ATOM      7  H2  UNL     1      38.789 -23.478 -13.431  0.00  0.00    -0.084 HD
ENDROOT
BRANCH   5   9
ATOM      8  OXT UNL     1      36.973 -23.655 -10.557  0.00  0.00    -0.253 OA
ATOM      9  C   UNL     1      37.243 -23.160 -11.642  0.00  0.00    +0.293 C 
BRANCH   9  10
ATOM     10  O   UNL     1      38.006 -22.052 -11.807  0.00  0.00    -0.482 OA
ATOM     11  H   UNL     1      38.032 -21.398 -11.138  0.00  0.00    +0.295 HD
ENDBRANCH   9  10
ENDBRANCH   5   9
BRANCH   2  12
ATOM     12  C   UNL     1      39.076 -26.065 -14.618  0.00  0.00    +0.088 C 
BRANCH  12  14
ATOM     13  O   UNL     1      41.011 -24.586 -14.530  0.00  0.00    -0.250 OA
ATOM     14  C   UNL     1      40.526 -25.702 -14.426  0.00  0.00    +0.312 C 
BRANCH  14  15
ATOM     15  O   UNL     1      41.245 -26.811 -14.115  0.00  0.00    -0.480 OA
ATOM     16  H   UNL     1      40.830 -27.651 -14.108  0.00  0.00    +0.295 HD
ENDBRANCH  14  15
ENDBRANCH  12  14
ENDBRANCH   2  12
TORSDOF 5
ENDMDL
MODEL 5
REMARK VINA RESULT:      -6.0     10.261     11.002
REMARK  Name = 447989
REMARK  5 active torsions:
REMARK  status: ('A' for Active; 'I' for Inactive)
REMARK    1  A    between atoms: C_2  and  C_12
REMARK    2  A    between atoms: CA_5  and  C_9
REMARK    3  A    between atoms: C_9  and  O_10
REMARK    4  A    between atoms: C_12  and  C_14
REMARK    5  A    between atoms: C_14  and  O_15
REMARK                            x       y       z     vdW  Elec       q    Type
REMARK                         _______ _______ _______ _____ _____    ______ ____
ROOT
ATOM      1  N   UNL     1      35.474 -18.196 -20.749  0.00  0.00    +0.394 N 
ATOM      2  C   UNL     1      34.488 -19.226 -21.117  0.00  0.00    -0.050 C 
ATOM      3  C   UNL     1      34.702 -19.394 -22.611  0.00  0.00    -0.022 C 
ATOM      4  C   UNL     1      34.988 -17.981 -23.095  0.00  0.00    -0.013 C 
ATOM      5  CA  UNL     1      35.482 -17.236 -21.860  0.00  0.00    +0.040 C 
ATOM      6  H1  UNL     1      36.397 -18.614 -20.632  0.00  0.00    -0.084 HD
ATOM      7  H2  UNL     1      35.235 -17.747 -19.865  0.00  0.00    -0.084 HD
ENDROOT
BRANCH   5   9
ATOM      8  OXT UNL     1      33.638 -15.704 -22.151  0.00  0.00    -0.253 OA
ATOM      9  C   UNL     1      34.568 -16.116 -21.474  0.00  0.00    +0.293 C 
BRANCH   9  10
ATOM     10  O   UNL     1      34.913 -15.613 -20.264  0.00  0.00    -0.482 OA
ATOM     11  H   UNL     1      35.766 -15.251 -20.133  0.00  0.00    +0.295 HD
ENDBRANCH   9  10
ENDBRANCH   5   9
BRANCH   2  12
ATOM     12  C   UNL     1      34.695 -20.516 -20.340  0.00  0.00    +0.088 C 
BRANCH  12  14
ATOM     13  O   UNL     1      33.211 -22.279 -19.545  0.00  0.00    -0.250 OA
ATOM     14  C   UNL     1      33.388 -21.122 -19.896  0.00  0.00    +0.312 C 
BRANCH  14  15
ATOM     15  O   UNL     1      32.404 -20.189 -19.940  0.00  0.00    -0.480 OA
ATOM     16  H   UNL     1      31.830 -20.149 -20.680  0.00  0.00    +0.295 HD
ENDBRANCH  14  15
ENDBRANCH  12  14
ENDBRANCH   2  12
TORSDOF 5
ENDMDL
MODEL 6
REMARK VINA RESULT:      -5.8      8.554      9.947
REMARK  Name = 447989
REMARK  5 active torsions:
REMARK  status: ('A' for Active; 'I' for Inactive)
REMARK    1  A    between atoms: C_2  and  C_12
REMARK    2  A    between atoms: CA_5  and  C_9
REMARK    3  A    between atoms: C_9  and  O_10
REMARK    4  A    between atoms: C_12  and  C_14
REMARK    5  A    between atoms: C_14  and  O_15
REMARK                            x       y       z     vdW  Elec       q    Type
REMARK                         _______ _______ _______ _____ _____    ______ ____
ROOT
ATOM      1  N   UNL     1      29.531 -22.412 -16.580  0.00  0.00    +0.394 N 
ATOM      2  C   UNL     1      29.841 -23.214 -15.385  0.00  0.00    -0.050 C 
ATOM      3  C   UNL     1      29.492 -24.628 -15.816  0.00  0.00    -0.022 C 
ATOM      4  C   UNL     1      28.252 -24.446 -16.678  0.00  0.00    -0.013 C 
ATOM      5  CA  UNL     1      28.312 -22.998 -17.151  0.00  0.00    +0.040 C 
ATOM      6  H1  UNL     1      30.298 -22.462 -17.250  0.00  0.00    -0.084 HD
ATOM      7  H2  UNL     1      29.402 -21.426 -16.348  0.00  0.00    -0.084 HD
ENDROOT
BRANCH   5   9
ATOM      8  OXT UNL     1      26.540 -22.424 -15.614  0.00  0.00    -0.253 OA
ATOM      9  C   UNL     1      27.161 -22.190 -16.641  0.00  0.00    +0.293 C 
BRANCH   9  10
ATOM     10  O   UNL     1      26.893 -21.158 -17.476  0.00  0.00    -0.482 OA
ATOM     11  H   UNL     1      26.394 -20.426 -17.171  0.00  0.00    +0.295 HD
ENDBRANCH   9  10
ENDBRANCH   5   9
BRANCH   2  12
ATOM     12  C   UNL     1      31.292 -23.064 -14.959  0.00  0.00    +0.088 C 
BRANCH  12  14
ATOM     13  O   UNL     1      30.663 -23.937 -12.772  0.00  0.00    -0.250 OA
ATOM     14  C   UNL     1      31.496 -23.437 -13.513  0.00  0.00    +0.312 C 
BRANCH  14  15
ATOM     15  O   UNL     1      32.762 -23.133 -13.128  0.00  0.00    -0.480 OA
ATOM     16  H   UNL     1      32.914 -22.412 -12.549  0.00  0.00    +0.295 HD
ENDBRANCH  14  15
ENDBRANCH  12  14
ENDBRANCH   2  12
TORSDOF 5
ENDMDL
MODEL 7
REMARK VINA RESULT:      -5.7      2.365      4.219
REMARK  Name = 447989
REMARK  5 active torsions:
REMARK  status: ('A' for Active; 'I' for Inactive)
REMARK    1  A    between atoms: C_2  and  C_12
REMARK    2  A    between atoms: CA_5  and  C_9
REMARK    3  A    between atoms: C_9  and  O_10
REMARK    4  A    between atoms: C_12  and  C_14
REMARK    5  A    between atoms: C_14  and  O_15
REMARK                            x       y       z     vdW  Elec       q    Type
REMARK                         _______ _______ _______ _____ _____    ______ ____
ROOT
ATOM      1  N   UNL     1      37.587 -24.717 -15.097  0.00  0.00    +0.394 N 
ATOM      2  C   UNL     1      37.821 -24.484 -13.662  0.00  0.00    -0.050 C 
ATOM      3  C   UNL     1      36.608 -25.119 -13.005  0.00  0.00    -0.022 C 
ATOM      4  C   UNL     1      35.470 -24.794 -13.958  0.00  0.00    -0.013 C 
ATOM      5  CA  UNL     1      36.144 -24.537 -15.301  0.00  0.00    +0.040 C 
ATOM      6  H1  UNL     1      37.868 -25.664 -15.353  0.00  0.00    -0.084 HD
ATOM      7  H2  UNL     1      38.132 -24.077 -15.675  0.00  0.00    -0.084 HD
ENDROOT
BRANCH   5   9
ATOM      8  OXT UNL     1      36.425 -22.658 -16.792  0.00  0.00    -0.253 OA
ATOM      9  C   UNL     1      35.944 -23.132 -15.773  0.00  0.00    +0.293 C 
BRANCH   9  10
ATOM     10  O   UNL     1      35.154 -22.445 -14.912  0.00  0.00    -0.482 OA
ATOM     11  H   UNL     1      35.141 -22.675 -14.004  0.00  0.00    +0.295 HD
ENDBRANCH   9  10
ENDBRANCH   5   9
BRANCH   2  12
ATOM     12  C   UNL     1      39.135 -25.088 -13.193  0.00  0.00    +0.088 C 
BRANCH  12  14
ATOM     13  O   UNL     1      39.694 -26.801 -14.834  0.00  0.00    -0.250 OA
ATOM     14  C   UNL     1      39.907 -25.709 -14.329  0.00  0.00    +0.312 C 
BRANCH  14  15
ATOM     15  O   UNL     1      40.899 -24.873 -14.728  0.00  0.00    -0.480 OA
ATOM     16  H   UNL     1      41.244 -24.939 -15.597  0.00  0.00    +0.295 HD
ENDBRANCH  14  15
ENDBRANCH  12  14
ENDBRANCH   2  12
TORSDOF 5
ENDMDL
MODEL 8
REMARK VINA RESULT:      -5.7      8.141      9.333
REMARK  Name = 447989
REMARK  5 active torsions:
REMARK  status: ('A' for Active; 'I' for Inactive)
REMARK    1  A    between atoms: C_2  and  C_12
REMARK    2  A    between atoms: CA_5  and  C_9
REMARK    3  A    between atoms: C_9  and  O_10
REMARK    4  A    between atoms: C_12  and  C_14
REMARK    5  A    between atoms: C_14  and  O_15
REMARK                            x       y       z     vdW  Elec       q    Type
REMARK                         _______ _______ _______ _____ _____    ______ ____
ROOT
ATOM      1  N   UNL     1      29.669 -24.264 -15.003  0.00  0.00    +0.394 N 
ATOM      2  C   UNL     1      29.389 -22.870 -15.384  0.00  0.00    -0.050 C 
ATOM      3  C   UNL     1      30.382 -22.610 -16.504  0.00  0.00    -0.022 C 
ATOM      4  C   UNL     1      31.631 -23.356 -16.058  0.00  0.00    -0.013 C 
ATOM      5  CA  UNL     1      31.128 -24.416 -15.085  0.00  0.00    +0.040 C 
ATOM      6  H1  UNL     1      29.207 -24.907 -15.645  0.00  0.00    -0.084 HD
ATOM      7  H2  UNL     1      29.321 -24.474 -14.066  0.00  0.00    -0.084 HD
ENDROOT
BRANCH   5   9
ATOM      8  OXT UNL     1      31.766 -23.132 -13.141  0.00  0.00    -0.253 OA
ATOM      9  C   UNL     1      31.665 -24.213 -13.704  0.00  0.00    +0.293 C 
BRANCH   9  10
ATOM     10  O   UNL     1      32.031 -25.396 -13.154  0.00  0.00    -0.482 OA
ATOM     11  H   UNL     1      32.661 -25.416 -12.461  0.00  0.00    +0.295 HD
ENDBRANCH   9  10
ENDBRANCH   5   9
BRANCH   2  12
ATOM     12  C   UNL     1      27.945 -22.676 -15.816  0.00  0.00    +0.088 C 
BRANCH  12  14
ATOM     13  O   UNL     1      27.370 -22.520 -18.179  0.00  0.00    -0.250 OA
ATOM     14  C   UNL     1      27.700 -23.189 -17.211  0.00  0.00    +0.312 C 
BRANCH  14  15
ATOM     15  O   UNL     1      27.900 -24.531 -17.256  0.00  0.00    -0.480 OA
ATOM     16  H   UNL     1      27.344 -25.103 -16.764  0.00  0.00    +0.295 HD
ENDBRANCH  14  15
ENDBRANCH  12  14
ENDBRANCH   2  12
TORSDOF 5
ENDMDL
MODEL 9
REMARK VINA RESULT:      -5.7     13.058     13.711
REMARK  Name = 447989
REMARK  5 active torsions:
REMARK  status: ('A' for Active; 'I' for Inactive)
REMARK    1  A    between atoms: C_2  and  C_12
REMARK    2  A    between atoms: CA_5  and  C_9
REMARK    3  A    between atoms: C_9  and  O_10
REMARK    4  A    between atoms: C_12  and  C_14
REMARK    5  A    between atoms: C_14  and  O_15
REMARK                            x       y       z     vdW  Elec       q    Type
REMARK                         _______ _______ _______ _____ _____    ______ ____
ROOT
ATOM      1  N   UNL     1      35.279 -16.738 -23.620  0.00  0.00    +0.394 N 
ATOM      2  C   UNL     1      34.048 -16.025 -23.242  0.00  0.00    -0.050 C 
ATOM      3  C   UNL     1      34.274 -15.695 -21.777  0.00  0.00    -0.022 C 
ATOM      4  C   UNL     1      34.995 -16.921 -21.239  0.00  0.00    -0.013 C 
ATOM      5  CA  UNL     1      35.630 -17.571 -22.463  0.00  0.00    +0.040 C 
ATOM      6  H1  UNL     1      36.026 -16.074 -23.821  0.00  0.00    -0.084 HD
ATOM      7  H2  UNL     1      35.144 -17.301 -24.461  0.00  0.00    -0.084 HD
ENDROOT
BRANCH   5   9
ATOM      8  OXT UNL     1      34.928 -19.432 -23.834  0.00  0.00    -0.253 OA
ATOM      9  C   UNL     1      35.078 -18.936 -22.726  0.00  0.00    +0.293 C 
BRANCH   9  10
ATOM     10  O   UNL     1      34.760 -19.557 -21.564  0.00  0.00    -0.482 OA
ATOM     11  H   UNL     1      35.419 -19.698 -20.913  0.00  0.00    +0.295 HD
ENDBRANCH   9  10
ENDBRANCH   5   9
BRANCH   2  12
ATOM     12  C   UNL     1      33.818 -14.791 -24.099  0.00  0.00    +0.088 C 
BRANCH  12  14
ATOM     13  O   UNL     1      33.910 -16.019 -26.202  0.00  0.00    -0.250 OA
ATOM     14  C   UNL     1      33.410 -15.149 -25.505  0.00  0.00    +0.312 C 
BRANCH  14  15
ATOM     15  O   UNL     1      32.386 -14.355 -25.909  0.00  0.00    -0.480 OA
ATOM     16  H   UNL     1      32.452 -13.881 -26.715  0.00  0.00    +0.295 HD
ENDBRANCH  14  15
ENDBRANCH  12  14
ENDBRANCH   2  12
TORSDOF 5
ENDMDL
