MODEL 1
REMARK VINA RESULT:     -10.4      0.000      0.000
REMARK  Name = 5287989
REMARK  3 active torsions:
REMARK  status: ('A' for Active; 'I' for Inactive)
REMARK    1  A    between atoms: N_1  and  C_7
REMARK    2  A    between atoms: N_1  and  C_14
REMARK    3  A    between atoms: C_13  and  S_19
REMARK                            x       y       z     vdW  Elec       q    Type
REMARK                         _______ _______ _______ _____ _____    ______ ____
ROOT
ATOM      1  N   UNL     1      33.493 -23.213 -18.426  0.00  0.00    -0.300 N 
ATOM      2  H   UNL     1      33.476 -24.072 -18.908  0.00  0.00    +0.153 HD
ENDROOT
BRANCH   1   7
ATOM      3 CL   UNL     1      29.739 -22.678 -14.921  0.00  0.00    -0.048 Cl
ATOM      4  N   UNL     1      33.884 -23.567 -16.116  0.00  0.00    -0.152 N 
ATOM      5  N   UNL     1      35.206 -23.882 -16.218  0.00  0.00    -0.173 NA
ATOM      6  N   UNL     1      32.178 -23.333 -14.430  0.00  0.00    -0.378 NA
ATOM      7  C   UNL     1      32.997 -23.233 -17.154  0.00  0.00    +0.130 C 
ATOM      8  C   UNL     1      33.462 -23.610 -14.784  0.00  0.00    +0.191 C 
ATOM      9  C   UNL     1      31.722 -22.954 -16.841  0.00  0.00    +0.076 C 
ATOM     10  C   UNL     1      34.562 -23.961 -14.036  0.00  0.00    +0.125 C 
ATOM     11  C   UNL     1      31.366 -23.027 -15.396  0.00  0.00    +0.193 C 
ATOM     12  C   UNL     1      35.597 -24.115 -14.966  0.00  0.00    +0.101 C 
ENDBRANCH   1   7
BRANCH   1  14
ATOM     13  C   UNL     1      35.080 -19.957 -20.552  0.00  0.00    +0.106 C 
ATOM     14  C   UNL     1      34.022 -22.129 -19.135  0.00  0.00    +0.049 C 
ATOM     15  C   UNL     1      35.935 -20.871 -19.937  0.00  0.00    +0.020 C 
ATOM     16  C   UNL     1      33.699 -20.124 -20.462  0.00  0.00    +0.020 C 
ATOM     17  C   UNL     1      35.408 -21.953 -19.230  0.00  0.00    +0.016 C 
ATOM     18  C   UNL     1      33.171 -21.205 -19.756  0.00  0.00    +0.016 C 
BRANCH  13  19
ATOM     19  S   UNL     1      35.740 -18.603 -21.435  0.00  0.00    +0.010 S 
ATOM     20  O   UNL     1      35.264 -17.381 -20.803  0.00  0.00    -0.169 OA
ATOM     21  O   UNL     1      37.169 -18.811 -21.620  0.00  0.00    -0.169 OA
ATOM     22  C   UNL     1      34.988 -18.715 -23.043  0.00  0.00    +0.182 C 
ENDBRANCH  13  19
ENDBRANCH   1  14
TORSDOF 3
ENDMDL
MODEL 2
REMARK VINA RESULT:     -10.4      5.264      8.411
REMARK  Name = 5287989
REMARK  3 active torsions:
REMARK  status: ('A' for Active; 'I' for Inactive)
REMARK    1  A    between atoms: N_1  and  C_7
REMARK    2  A    between atoms: N_1  and  C_14
REMARK    3  A    between atoms: C_13  and  S_19
REMARK                            x       y       z     vdW  Elec       q    Type
REMARK                         _______ _______ _______ _____ _____    ______ ____
ROOT
ATOM      1  N   UNL     1      35.451 -18.186 -21.734  0.00  0.00    -0.300 N 
ATOM      2  H   UNL     1      36.377 -18.227 -22.065  0.00  0.00    +0.153 HD
ENDROOT
BRANCH   1   7
ATOM      3 CL   UNL     1      32.816 -13.883 -20.637  0.00  0.00    -0.048 Cl
ATOM      4  N   UNL     1      34.545 -16.810 -23.437  0.00  0.00    -0.152 N 
ATOM      5  N   UNL     1      34.974 -17.553 -24.496  0.00  0.00    -0.173 NA
ATOM      6  N   UNL     1      33.306 -14.791 -22.993  0.00  0.00    -0.378 NA
ATOM      7  C   UNL     1      34.746 -17.065 -22.070  0.00  0.00    +0.130 C 
ATOM      8  C   UNL     1      33.834 -15.687 -23.870  0.00  0.00    +0.191 C 
ATOM      9  C   UNL     1      34.239 -16.202 -21.176  0.00  0.00    +0.076 C 
ATOM     10  C   UNL     1      33.820 -15.739 -25.245  0.00  0.00    +0.125 C 
ATOM     11  C   UNL     1      33.498 -15.036 -21.733  0.00  0.00    +0.193 C 
ATOM     12  C   UNL     1      34.532 -16.899 -25.569  0.00  0.00    +0.101 C 
ENDBRANCH   1   7
BRANCH   1  14
ATOM     13  C   UNL     1      34.174 -21.483 -19.467  0.00  0.00    +0.106 C 
ATOM     14  C   UNL     1      35.026 -19.285 -20.979  0.00  0.00    +0.049 C 
ATOM     15  C   UNL     1      33.237 -20.673 -20.107  0.00  0.00    +0.020 C 
ATOM     16  C   UNL     1      35.535 -21.200 -19.580  0.00  0.00    +0.020 C 
ATOM     17  C   UNL     1      33.661 -19.576 -20.859  0.00  0.00    +0.016 C 
ATOM     18  C   UNL     1      35.959 -20.105 -20.333  0.00  0.00    +0.016 C 
BRANCH  13  19
ATOM     19  S   UNL     1      33.643 -22.854 -18.524  0.00  0.00    +0.010 S 
ATOM     20  O   UNL     1      32.303 -22.567 -18.033  0.00  0.00    -0.169 OA
ATOM     21  O   UNL     1      33.890 -24.072 -19.281  0.00  0.00    -0.169 OA
ATOM     22  C   UNL     1      34.743 -22.880 -17.126  0.00  0.00    +0.182 C 
ENDBRANCH  13  19
ENDBRANCH   1  14
TORSDOF 3
ENDMDL
MODEL 3
REMARK VINA RESULT:     -10.2      5.441      8.245
REMARK  Name = 5287989
REMARK  3 active torsions:
REMARK  status: ('A' for Active; 'I' for Inactive)
REMARK    1  A    between atoms: N_1  and  C_7
REMARK    2  A    between atoms: N_1  and  C_14
REMARK    3  A    between atoms: C_13  and  S_19
REMARK                            x       y       z     vdW  Elec       q    Type
REMARK                         _______ _______ _______ _____ _____    ______ ____
ROOT
ATOM      1  N   UNL     1      35.866 -18.460 -21.834  0.00  0.00    -0.300 N 
ATOM      2  H   UNL     1      36.846 -18.457 -21.934  0.00  0.00    +0.153 HD
ENDROOT
BRANCH   1   7
ATOM      3 CL   UNL     1      33.763 -16.264 -26.008  0.00  0.00    -0.048 Cl
ATOM      4  N   UNL     1      34.796 -16.349 -21.728  0.00  0.00    -0.152 N 
ATOM      5  N   UNL     1      34.990 -16.132 -20.396  0.00  0.00    -0.173 NA
ATOM      6  N   UNL     1      33.796 -15.269 -23.636  0.00  0.00    -0.378 NA
ATOM      7  C   UNL     1      35.198 -17.462 -22.485  0.00  0.00    +0.130 C 
ATOM      8  C   UNL     1      34.109 -15.281 -22.312  0.00  0.00    +0.191 C 
ATOM      9  C   UNL     1      34.907 -17.484 -23.795  0.00  0.00    +0.076 C 
ATOM     10  C   UNL     1      33.872 -14.371 -21.308  0.00  0.00    +0.125 C 
ATOM     11  C   UNL     1      34.171 -16.303 -24.327  0.00  0.00    +0.193 C 
ATOM     12  C   UNL     1      34.432 -14.945 -20.161  0.00  0.00    +0.101 C 
ENDBRANCH   1   7
BRANCH   1  14
ATOM     13  C   UNL     1      34.279 -21.540 -19.462  0.00  0.00    +0.106 C 
ATOM     14  C   UNL     1      35.338 -19.486 -21.044  0.00  0.00    +0.049 C 
ATOM     15  C   UNL     1      33.426 -20.713 -20.191  0.00  0.00    +0.020 C 
ATOM     16  C   UNL     1      35.659 -21.346 -19.521  0.00  0.00    +0.020 C 
ATOM     17  C   UNL     1      33.954 -19.688 -20.979  0.00  0.00    +0.016 C 
ATOM     18  C   UNL     1      36.186 -20.323 -20.308  0.00  0.00    +0.016 C 
BRANCH  13  19
ATOM     19  S   UNL     1      33.619 -22.821 -18.475  0.00  0.00    +0.010 S 
ATOM     20  O   UNL     1      32.271 -22.434 -18.081  0.00  0.00    -0.169 OA
ATOM     21  O   UNL     1      33.839 -24.095 -19.145  0.00  0.00    -0.169 OA
ATOM     22  C   UNL     1      34.635 -22.822 -17.015  0.00  0.00    +0.182 C 
ENDBRANCH  13  19
ENDBRANCH   1  14
TORSDOF 3
ENDMDL
MODEL 4
REMARK VINA RESULT:     -10.2      1.620      2.521
REMARK  Name = 5287989
REMARK  3 active torsions:
REMARK  status: ('A' for Active; 'I' for Inactive)
REMARK    1  A    between atoms: N_1  and  C_7
REMARK    2  A    between atoms: N_1  and  C_14
REMARK    3  A    between atoms: C_13  and  S_19
REMARK                            x       y       z     vdW  Elec       q    Type
REMARK                         _______ _______ _______ _____ _____    ______ ____
ROOT
ATOM      1  N   UNL     1      33.305 -23.030 -18.512  0.00  0.00    -0.300 N 
ATOM      2  H   UNL     1      32.925 -23.764 -19.046  0.00  0.00    +0.153 HD
ENDROOT
BRANCH   1   7
ATOM      3 CL   UNL     1      35.256 -23.897 -13.810  0.00  0.00    -0.048 Cl
ATOM      4  N   UNL     1      31.941 -23.021 -16.574  0.00  0.00    -0.152 N 
ATOM      5  N   UNL     1      30.762 -22.749 -17.202  0.00  0.00    -0.173 NA
ATOM      6  N   UNL     1      32.787 -23.419 -14.353  0.00  0.00    -0.378 NA
ATOM      7  C   UNL     1      33.211 -23.169 -17.156  0.00  0.00    +0.130 C 
ATOM      8  C   UNL     1      31.753 -23.148 -15.195  0.00  0.00    +0.191 C 
ATOM      9  C   UNL     1      34.255 -23.436 -16.355  0.00  0.00    +0.076 C 
ATOM     10  C   UNL     1      30.412 -22.952 -14.962  0.00  0.00    +0.125 C 
ATOM     11  C   UNL     1      33.957 -23.553 -14.901  0.00  0.00    +0.193 C 
ATOM     12  C   UNL     1      29.858 -22.712 -16.225  0.00  0.00    +0.101 C 
ENDBRANCH   1   7
BRANCH   1  14
ATOM     13  C   UNL     1      35.005 -19.870 -20.694  0.00  0.00    +0.106 C 
ATOM     14  C   UNL     1      33.871 -21.977 -19.239  0.00  0.00    +0.049 C 
ATOM     15  C   UNL     1      35.824 -20.850 -20.135  0.00  0.00    +0.020 C 
ATOM     16  C   UNL     1      33.622 -19.938 -20.529  0.00  0.00    +0.020 C 
ATOM     17  C   UNL     1      35.259 -21.900 -19.409  0.00  0.00    +0.016 C 
ATOM     18  C   UNL     1      33.057 -20.988 -19.805  0.00  0.00    +0.016 C 
BRANCH  13  19
ATOM     19  S   UNL     1      35.712 -18.555 -21.601  0.00  0.00    +0.010 S 
ATOM     20  O   UNL     1      35.149 -17.310 -21.098  0.00  0.00    -0.169 OA
ATOM     21  O   UNL     1      37.157 -18.731 -21.638  0.00  0.00    -0.169 OA
ATOM     22  C   UNL     1      35.118 -18.794 -23.260  0.00  0.00    +0.182 C 
ENDBRANCH  13  19
ENDBRANCH   1  14
TORSDOF 3
ENDMDL
MODEL 5
REMARK VINA RESULT:      -9.0      8.921     11.463
REMARK  Name = 5287989
REMARK  3 active torsions:
REMARK  status: ('A' for Active; 'I' for Inactive)
REMARK    1  A    between atoms: N_1  and  C_7
REMARK    2  A    between atoms: N_1  and  C_14
REMARK    3  A    between atoms: C_13  and  S_19
REMARK                            x       y       z     vdW  Elec       q    Type
REMARK                         _______ _______ _______ _____ _____    ______ ____
ROOT
ATOM      1  N   UNL     1      31.766 -12.543 -22.600  0.00  0.00    -0.300 N 
ATOM      2  H   UNL     1      30.869 -12.690 -22.979  0.00  0.00    +0.153 HD
ENDROOT
BRANCH   1   7
ATOM      3 CL   UNL     1      33.791  -7.982 -23.927  0.00  0.00    -0.048 Cl
ATOM      4  N   UNL     1      31.800 -10.710 -21.100  0.00  0.00    -0.152 N 
ATOM      5  N   UNL     1      31.190 -11.339 -20.056  0.00  0.00    -0.173 NA
ATOM      6  N   UNL     1      32.730  -8.557 -21.655  0.00  0.00    -0.378 NA
ATOM      7  C   UNL     1      32.107 -11.242 -22.363  0.00  0.00    +0.130 C 
ATOM      8  C   UNL     1      32.115  -9.388 -20.771  0.00  0.00    +0.191 C 
ATOM      9  C   UNL     1      32.714 -10.450 -23.261  0.00  0.00    +0.076 C 
ATOM     10  C   UNL     1      31.688  -9.194 -19.478  0.00  0.00    +0.125 C 
ATOM     11  C   UNL     1      33.008  -9.058 -22.820  0.00  0.00    +0.193 C 
ATOM     12  C   UNL     1      31.131 -10.419 -19.094  0.00  0.00    +0.101 C 
ENDBRANCH   1   7
BRANCH   1  14
ATOM     13  C   UNL     1      34.052 -16.000 -21.922  0.00  0.00    +0.106 C 
ATOM     14  C   UNL     1      32.528 -13.695 -22.374  0.00  0.00    +0.049 C 
ATOM     15  C   UNL     1      34.270 -15.235 -23.067  0.00  0.00    +0.020 C 
ATOM     16  C   UNL     1      33.076 -15.619 -21.003  0.00  0.00    +0.020 C 
ATOM     17  C   UNL     1      33.510 -14.086 -23.293  0.00  0.00    +0.016 C 
ATOM     18  C   UNL     1      32.316 -14.471 -21.227  0.00  0.00    +0.016 C 
BRANCH  13  19
ATOM     19  S   UNL     1      35.003 -17.439 -21.641  0.00  0.00    +0.010 S 
ATOM     20  O   UNL     1      35.773 -17.710 -22.847  0.00  0.00    -0.169 OA
ATOM     21  O   UNL     1      35.685 -17.310 -20.361  0.00  0.00    -0.169 OA
ATOM     22  C   UNL     1      33.798 -18.735 -21.459  0.00  0.00    +0.182 C 
ENDBRANCH  13  19
ENDBRANCH   1  14
TORSDOF 3
ENDMDL
MODEL 6
REMARK VINA RESULT:      -9.0      8.839     11.924
REMARK  Name = 5287989
REMARK  3 active torsions:
REMARK  status: ('A' for Active; 'I' for Inactive)
REMARK    1  A    between atoms: N_1  and  C_7
REMARK    2  A    between atoms: N_1  and  C_14
REMARK    3  A    between atoms: C_13  and  S_19
REMARK                            x       y       z     vdW  Elec       q    Type
REMARK                         _______ _______ _______ _____ _____    ______ ____
ROOT
ATOM      1  N   UNL     1      32.356 -12.771 -22.995  0.00  0.00    -0.300 N 
ATOM      2  H   UNL     1      31.378 -12.683 -22.928  0.00  0.00    +0.153 HD
ENDROOT
BRANCH   1   7
ATOM      3 CL   UNL     1      35.735 -10.309 -26.027  0.00  0.00    -0.048 Cl
ATOM      4  N   UNL     1      32.741 -10.441 -22.799  0.00  0.00    -0.152 N 
ATOM      5  N   UNL     1      31.862 -10.213 -21.783  0.00  0.00    -0.173 NA
ATOM      6  N   UNL     1      34.303  -9.233 -24.181  0.00  0.00    -0.378 NA
ATOM      7  C   UNL     1      33.025 -11.663 -23.432  0.00  0.00    +0.130 C 
ATOM      8  C   UNL     1      33.380  -9.258 -23.181  0.00  0.00    +0.191 C 
ATOM      9  C   UNL     1      33.931 -11.675 -24.423  0.00  0.00    +0.076 C 
ATOM     10  C   UNL     1      32.881  -8.264 -22.371  0.00  0.00    +0.125 C 
ATOM     11  C   UNL     1      34.557 -10.366 -24.760  0.00  0.00    +0.193 C 
ATOM     12  C   UNL     1      31.958  -8.907 -21.538  0.00  0.00    +0.101 C 
ENDBRANCH   1   7
BRANCH   1  14
ATOM     13  C   UNL     1      33.938 -16.505 -21.903  0.00  0.00    +0.106 C 
ATOM     14  C   UNL     1      32.883 -14.015 -22.632  0.00  0.00    +0.049 C 
ATOM     15  C   UNL     1      33.199 -15.765 -20.981  0.00  0.00    +0.020 C 
ATOM     16  C   UNL     1      34.153 -16.006 -23.188  0.00  0.00    +0.020 C 
ATOM     17  C   UNL     1      32.673 -14.524 -21.344  0.00  0.00    +0.016 C 
ATOM     18  C   UNL     1      33.627 -14.766 -23.551  0.00  0.00    +0.016 C 
BRANCH  13  19
ATOM     19  S   UNL     1      34.597 -18.057 -21.449  0.00  0.00    +0.010 S 
ATOM     20  O   UNL     1      35.727 -17.822 -20.562  0.00  0.00    -0.169 OA
ATOM     21  O   UNL     1      33.508 -18.924 -21.019  0.00  0.00    -0.169 OA
ATOM     22  C   UNL     1      35.226 -18.732 -22.970  0.00  0.00    +0.182 C 
ENDBRANCH  13  19
ENDBRANCH   1  14
TORSDOF 3
ENDMDL
MODEL 7
REMARK VINA RESULT:      -8.9      5.224      6.530
REMARK  Name = 5287989
REMARK  3 active torsions:
REMARK  status: ('A' for Active; 'I' for Inactive)
REMARK    1  A    between atoms: N_1  and  C_7
REMARK    2  A    between atoms: N_1  and  C_14
REMARK    3  A    between atoms: C_13  and  S_19
REMARK                            x       y       z     vdW  Elec       q    Type
REMARK                         _______ _______ _______ _____ _____    ______ ____
ROOT
ATOM      1  N   UNL     1      34.631 -23.195 -14.724  0.00  0.00    -0.300 N 
ATOM      2  H   UNL     1      35.225 -22.603 -15.239  0.00  0.00    +0.153 HD
ENDROOT
BRANCH   1   7
ATOM      3 CL   UNL     1      35.751 -24.365  -9.821  0.00  0.00    -0.048 Cl
ATOM      4  N   UNL     1      36.009 -25.039 -14.165  0.00  0.00    -0.152 N 
ATOM      5  N   UNL     1      36.248 -25.460 -15.440  0.00  0.00    -0.173 NA
ATOM      6  N   UNL     1      36.571 -25.638 -11.900  0.00  0.00    -0.378 NA
ATOM      7  C   UNL     1      35.231 -23.945 -13.753  0.00  0.00    +0.130 C 
ATOM      8  C   UNL     1      36.661 -25.859 -13.239  0.00  0.00    +0.191 C 
ATOM      9  C   UNL     1      35.120 -23.697 -12.438  0.00  0.00    +0.076 C 
ATOM     10  C   UNL     1      37.327 -26.818 -13.966  0.00  0.00    +0.125 C 
ATOM     11  C   UNL     1      35.849 -24.625 -11.529  0.00  0.00    +0.193 C 
ATOM     12  C   UNL     1      37.037 -26.524 -15.303  0.00  0.00    +0.101 C 
ENDBRANCH   1   7
BRANCH   1  14
ATOM     13  C   UNL     1      30.572 -23.094 -15.799  0.00  0.00    +0.106 C 
ATOM     14  C   UNL     1      33.279 -23.161 -15.082  0.00  0.00    +0.049 C 
ATOM     15  C   UNL     1      30.937 -23.075 -14.453  0.00  0.00    +0.020 C 
ATOM     16  C   UNL     1      31.554 -23.145 -16.788  0.00  0.00    +0.020 C 
ATOM     17  C   UNL     1      32.286 -23.110 -14.096  0.00  0.00    +0.016 C 
ATOM     18  C   UNL     1      32.902 -23.179 -16.431  0.00  0.00    +0.016 C 
BRANCH  13  19
ATOM     19  S   UNL     1      28.884 -23.052 -16.246  0.00  0.00    +0.010 S 
ATOM     20  O   UNL     1      28.268 -21.921 -15.567  0.00  0.00    -0.169 OA
ATOM     21  O   UNL     1      28.776 -23.173 -17.693  0.00  0.00    -0.169 OA
ATOM     22  C   UNL     1      28.207 -24.542 -15.550  0.00  0.00    +0.182 C 
ENDBRANCH  13  19
ENDBRANCH   1  14
TORSDOF 3
ENDMDL
MODEL 8
REMARK VINA RESULT:      -8.9      8.107     11.270
REMARK  Name = 5287989
REMARK  3 active torsions:
REMARK  status: ('A' for Active; 'I' for Inactive)
REMARK    1  A    between atoms: N_1  and  C_7
REMARK    2  A    between atoms: N_1  and  C_14
REMARK    3  A    between atoms: C_13  and  S_19
REMARK                            x       y       z     vdW  Elec       q    Type
REMARK                         _______ _______ _______ _____ _____    ______ ____
ROOT
ATOM      1  N   UNL     1      33.859 -13.305 -24.044  0.00  0.00    -0.300 N 
ATOM      2  H   UNL     1      34.145 -13.162 -24.975  0.00  0.00    +0.153 HD
ENDROOT
BRANCH   1   7
ATOM      3 CL   UNL     1      30.340 -11.171 -20.925  0.00  0.00    -0.048 Cl
ATOM      4  N   UNL     1      33.724 -10.959 -23.736  0.00  0.00    -0.152 N 
ATOM      5  N   UNL     1      34.752 -10.624 -24.566  0.00  0.00    -0.173 NA
ATOM      6  N   UNL     1      32.107  -9.901 -22.297  0.00  0.00    -0.378 NA
ATOM      7  C   UNL     1      33.243 -12.246 -23.440  0.00  0.00    +0.130 C 
ATOM      8  C   UNL     1      33.152  -9.819 -23.164  0.00  0.00    +0.191 C 
ATOM      9  C   UNL     1      32.212 -12.364 -22.588  0.00  0.00    +0.076 C 
ATOM     10  C   UNL     1      33.847  -8.741 -23.660  0.00  0.00    +0.125 C 
ATOM     11  C   UNL     1      31.670 -11.094 -22.030  0.00  0.00    +0.193 C 
ATOM     12  C   UNL     1      34.812  -9.294 -24.510  0.00  0.00    +0.101 C 
ENDBRANCH   1   7
BRANCH   1  14
ATOM     13  C   UNL     1      34.694 -17.094 -22.437  0.00  0.00    +0.106 C 
ATOM     14  C   UNL     1      34.138 -14.567 -23.509  0.00  0.00    +0.049 C 
ATOM     15  C   UNL     1      34.437 -16.957 -23.801  0.00  0.00    +0.020 C 
ATOM     16  C   UNL     1      34.674 -15.974 -21.607  0.00  0.00    +0.020 C 
ATOM     17  C   UNL     1      34.159 -15.698 -24.335  0.00  0.00    +0.016 C 
ATOM     18  C   UNL     1      34.397 -14.715 -22.140  0.00  0.00    +0.016 C 
BRANCH  13  19
ATOM     19  S   UNL     1      35.040 -18.670 -21.769  0.00  0.00    +0.010 S 
ATOM     20  O   UNL     1      35.249 -19.591 -22.877  0.00  0.00    -0.169 OA
ATOM     21  O   UNL     1      36.062 -18.532 -20.740  0.00  0.00    -0.169 OA
ATOM     22  C   UNL     1      33.536 -19.140 -20.944  0.00  0.00    +0.182 C 
ENDBRANCH  13  19
ENDBRANCH   1  14
TORSDOF 3
ENDMDL
MODEL 9
REMARK VINA RESULT:      -8.8      8.225     10.985
REMARK  Name = 5287989
REMARK  3 active torsions:
REMARK  status: ('A' for Active; 'I' for Inactive)
REMARK    1  A    between atoms: N_1  and  C_7
REMARK    2  A    between atoms: N_1  and  C_14
REMARK    3  A    between atoms: C_13  and  S_19
REMARK                            x       y       z     vdW  Elec       q    Type
REMARK                         _______ _______ _______ _____ _____    ______ ____
ROOT
ATOM      1  N   UNL     1      32.095 -13.159 -22.717  0.00  0.00    -0.300 N 
ATOM      2  H   UNL     1      31.555 -13.144 -23.540  0.00  0.00    +0.153 HD
ENDROOT
BRANCH   1   7
ATOM      3 CL   UNL     1      31.124 -10.721 -18.270  0.00  0.00    -0.048 Cl
ATOM      4  N   UNL     1      32.329 -10.810 -22.505  0.00  0.00    -0.152 N 
ATOM      5  N   UNL     1      32.727 -10.567 -23.785  0.00  0.00    -0.173 NA
ATOM      6  N   UNL     1      31.891  -9.612 -20.460  0.00  0.00    -0.378 NA
ATOM      7  C   UNL     1      32.007 -12.049 -21.925  0.00  0.00    +0.130 C 
ATOM      8  C   UNL     1      32.264  -9.624 -21.768  0.00  0.00    +0.191 C 
ATOM      9  C   UNL     1      31.634 -12.076 -20.635  0.00  0.00    +0.076 C 
ATOM     10  C   UNL     1      32.633  -8.612 -22.624  0.00  0.00    +0.125 C 
ATOM     11  C   UNL     1      31.597 -10.762 -19.934  0.00  0.00    +0.193 C 
ATOM     12  C   UNL     1      32.905  -9.248 -23.840  0.00  0.00    +0.101 C 
ENDBRANCH   1   7
BRANCH   1  14
ATOM     13  C   UNL     1      34.377 -16.629 -22.093  0.00  0.00    +0.106 C 
ATOM     14  C   UNL     1      32.856 -14.315 -22.509  0.00  0.00    +0.049 C 
ATOM     15  C   UNL     1      34.616 -15.829 -23.210  0.00  0.00    +0.020 C 
ATOM     16  C   UNL     1      33.381 -16.277 -21.183  0.00  0.00    +0.020 C 
ATOM     17  C   UNL     1      33.857 -14.677 -23.418  0.00  0.00    +0.016 C 
ATOM     18  C   UNL     1      32.623 -15.125 -21.390  0.00  0.00    +0.016 C 
BRANCH  13  19
ATOM     19  S   UNL     1      35.326 -18.072 -21.834  0.00  0.00    +0.010 S 
ATOM     20  O   UNL     1      36.247 -18.210 -22.953  0.00  0.00    -0.169 OA
ATOM     21  O   UNL     1      35.840 -18.061 -20.472  0.00  0.00    -0.169 OA
ATOM     22  C   UNL     1      34.145 -19.399 -21.932  0.00  0.00    +0.182 C 
ENDBRANCH  13  19
ENDBRANCH   1  14
TORSDOF 3
ENDMDL
