MODEL 1
REMARK VINA RESULT:      -6.3      0.000      0.000
REMARK  Name = 446221
REMARK  0 active torsions:
REMARK  status: ('A' for Active; 'I' for Inactive)
REMARK                            x       y       z     vdW  Elec       q    Type
REMARK                         _______ _______ _______ _____ _____    ______ ____
ROOT
ATOM      1  O   UNL     1      36.829 -21.636 -19.079  0.00  0.00    -0.221 OA
ATOM      2  N   UNL     1      35.048 -19.797 -20.609  0.00  0.00    -0.302 N 
ATOM      3  N   UNL     1      32.754 -21.936 -19.098  0.00  0.00    -0.310 N 
ATOM      4  N   UNL     1      34.925 -22.724 -18.356  0.00  0.00    -0.179 NA
ATOM      5  C   UNL     1      33.356 -20.966 -19.810  0.00  0.00    +0.072 C 
ATOM      6  C   UNL     1      34.728 -20.861 -19.807  0.00  0.00    +0.146 C 
ATOM      7  C   UNL     1      32.816 -19.956 -20.624  0.00  0.00    +0.032 C 
ATOM      8  C   UNL     1      33.892 -19.241 -21.110  0.00  0.00    +0.064 C 
ATOM      9  C   UNL     1      35.608 -21.741 -19.073  0.00  0.00    +0.167 C 
ATOM     10  C   UNL     1      33.624 -22.758 -18.410  0.00  0.00    +0.229 C 
ATOM     11  H   UNL     1      35.961 -19.480 -20.797  0.00  0.00    +0.153 HD
ATOM     12  H   UNL     1      31.776 -22.051 -19.070  0.00  0.00    +0.149 HD
ENDROOT
TORSDOF 0
ENDMDL
MODEL 2
REMARK VINA RESULT:      -6.1      1.477      2.347
REMARK  Name = 446221
REMARK  0 active torsions:
REMARK  status: ('A' for Active; 'I' for Inactive)
REMARK                            x       y       z     vdW  Elec       q    Type
REMARK                         _______ _______ _______ _____ _____    ______ ____
ROOT
ATOM      1  O   UNL     1      33.418 -23.189 -18.376  0.00  0.00    -0.221 OA
ATOM      2  N   UNL     1      32.663 -20.969 -20.221  0.00  0.00    -0.302 N 
ATOM      3  N   UNL     1      36.079 -20.437 -19.804  0.00  0.00    -0.310 N 
ATOM      4  N   UNL     1      35.583 -22.391 -18.456  0.00  0.00    -0.179 NA
ATOM      5  C   UNL     1      34.785 -20.365 -20.167  0.00  0.00    +0.072 C 
ATOM      6  C   UNL     1      33.885 -21.290 -19.689  0.00  0.00    +0.146 C 
ATOM      7  C   UNL     1      34.116 -19.459 -21.006  0.00  0.00    +0.032 C 
ATOM      8  C   UNL     1      32.795 -19.858 -21.023  0.00  0.00    +0.064 C 
ATOM      9  C   UNL     1      34.230 -22.372 -18.794  0.00  0.00    +0.167 C 
ATOM     10  C   UNL     1      36.373 -21.481 -18.950  0.00  0.00    +0.229 C 
ATOM     11  H   UNL     1      31.825 -21.458 -20.057  0.00  0.00    +0.153 HD
ATOM     12  H   UNL     1      36.759 -19.798 -20.120  0.00  0.00    +0.149 HD
ENDROOT
TORSDOF 0
ENDMDL
MODEL 3
REMARK VINA RESULT:      -6.0      6.834      7.756
REMARK  Name = 446221
REMARK  0 active torsions:
REMARK  status: ('A' for Active; 'I' for Inactive)
REMARK                            x       y       z     vdW  Elec       q    Type
REMARK                         _______ _______ _______ _____ _____    ______ ____
ROOT
ATOM      1  O   UNL     1      36.720 -27.251 -16.042  0.00  0.00    -0.221 OA
ATOM      2  N   UNL     1      35.083 -25.197 -14.627  0.00  0.00    -0.302 N 
ATOM      3  N   UNL     1      38.191 -24.826 -13.101  0.00  0.00    -0.310 N 
ATOM      4  N   UNL     1      38.503 -26.595 -14.730  0.00  0.00    -0.179 NA
ATOM      5  C   UNL     1      36.903 -24.717 -13.474  0.00  0.00    +0.072 C 
ATOM      6  C   UNL     1      36.403 -25.531 -14.464  0.00  0.00    +0.146 C 
ATOM      7  C   UNL     1      35.884 -23.866 -13.015  0.00  0.00    +0.032 C 
ATOM      8  C   UNL     1      34.760 -24.186 -13.750  0.00  0.00    +0.064 C 
ATOM      9  C   UNL     1      37.179 -26.532 -15.162  0.00  0.00    +0.167 C 
ATOM     10  C   UNL     1      38.902 -25.790 -13.787  0.00  0.00    +0.229 C 
ATOM     11  H   UNL     1      34.466 -25.614 -15.270  0.00  0.00    +0.153 HD
ATOM     12  H   UNL     1      38.593 -24.265 -12.398  0.00  0.00    +0.149 HD
ENDROOT
TORSDOF 0
ENDMDL
MODEL 4
REMARK VINA RESULT:      -5.9      8.492      8.721
REMARK  Name = 446221
REMARK  0 active torsions:
REMARK  status: ('A' for Active; 'I' for Inactive)
REMARK                            x       y       z     vdW  Elec       q    Type
REMARK                         _______ _______ _______ _____ _____    ______ ____
ROOT
ATOM      1  O   UNL     1      40.443 -24.960 -13.767  0.00  0.00    -0.221 OA
ATOM      2  N   UNL     1      38.321 -23.938 -11.937  0.00  0.00    -0.302 N 
ATOM      3  N   UNL     1      36.622 -26.404 -13.714  0.00  0.00    -0.310 N 
ATOM      4  N   UNL     1      38.875 -26.429 -14.610  0.00  0.00    -0.179 NA
ATOM      5  C   UNL     1      36.973 -25.414 -12.873  0.00  0.00    +0.072 C 
ATOM      6  C   UNL     1      38.259 -24.924 -12.887  0.00  0.00    +0.146 C 
ATOM      7  C   UNL     1      36.226 -24.725 -11.903  0.00  0.00    +0.032 C 
ATOM      8  C   UNL     1      37.090 -23.810 -11.335  0.00  0.00    +0.064 C 
ATOM      9  C   UNL     1      39.302 -25.405 -13.765  0.00  0.00    +0.167 C 
ATOM     10  C   UNL     1      37.641 -26.839 -14.537  0.00  0.00    +0.229 C 
ATOM     11  H   UNL     1      39.120 -23.406 -11.720  0.00  0.00    +0.153 HD
ATOM     12  H   UNL     1      35.714 -26.786 -13.740  0.00  0.00    +0.149 HD
ENDROOT
TORSDOF 0
ENDMDL
MODEL 5
REMARK VINA RESULT:      -5.9      6.579      8.019
REMARK  Name = 446221
REMARK  0 active torsions:
REMARK  status: ('A' for Active; 'I' for Inactive)
REMARK                            x       y       z     vdW  Elec       q    Type
REMARK                         _______ _______ _______ _____ _____    ______ ____
ROOT
ATOM      1  O   UNL     1      34.635 -17.592 -25.623  0.00  0.00    -0.221 OA
ATOM      2  N   UNL     1      34.811 -16.267 -22.956  0.00  0.00    -0.302 N 
ATOM      3  N   UNL     1      33.009 -13.933 -24.809  0.00  0.00    -0.310 N 
ATOM      4  N   UNL     1      33.449 -15.750 -26.353  0.00  0.00    -0.179 NA
ATOM      5  C   UNL     1      33.666 -14.601 -23.843  0.00  0.00    +0.072 C 
ATOM      6  C   UNL     1      34.215 -15.834 -24.112  0.00  0.00    +0.146 C 
ATOM      7  C   UNL     1      33.923 -14.263 -22.504  0.00  0.00    +0.032 C 
ATOM      8  C   UNL     1      34.638 -15.318 -21.974  0.00  0.00    +0.064 C 
ATOM      9  C   UNL     1      34.141 -16.493 -25.397  0.00  0.00    +0.167 C 
ATOM     10  C   UNL     1      32.958 -14.591 -26.021  0.00  0.00    +0.229 C 
ATOM     11  H   UNL     1      35.286 -17.121 -22.846  0.00  0.00    +0.153 HD
ATOM     12  H   UNL     1      32.600 -13.049 -24.663  0.00  0.00    +0.149 HD
ENDROOT
TORSDOF 0
ENDMDL
MODEL 6
REMARK VINA RESULT:      -5.9      6.430      7.697
REMARK  Name = 446221
REMARK  0 active torsions:
REMARK  status: ('A' for Active; 'I' for Inactive)
REMARK                            x       y       z     vdW  Elec       q    Type
REMARK                         _______ _______ _______ _____ _____    ______ ____
ROOT
ATOM      1  O   UNL     1      37.014 -26.507 -11.798  0.00  0.00    -0.221 OA
ATOM      2  N   UNL     1      35.127 -24.891 -13.449  0.00  0.00    -0.302 N 
ATOM      3  N   UNL     1      38.069 -24.688 -15.301  0.00  0.00    -0.310 N 
ATOM      4  N   UNL     1      38.635 -26.052 -13.378  0.00  0.00    -0.179 NA
ATOM      5  C   UNL     1      36.810 -24.571 -14.841  0.00  0.00    +0.072 C 
ATOM      6  C   UNL     1      36.449 -25.181 -13.661  0.00  0.00    +0.146 C 
ATOM      7  C   UNL     1      35.699 -23.892 -15.369  0.00  0.00    +0.032 C 
ATOM      8  C   UNL     1      34.663 -24.107 -14.482  0.00  0.00    +0.064 C 
ATOM      9  C   UNL     1      37.348 -25.969 -12.847  0.00  0.00    +0.167 C 
ATOM     10  C   UNL     1      38.898 -25.446 -14.500  0.00  0.00    +0.229 C 
ATOM     11  H   UNL     1      34.594 -25.195 -12.680  0.00  0.00    +0.153 HD
ATOM     12  H   UNL     1      38.372 -24.269 -16.139  0.00  0.00    +0.149 HD
ENDROOT
TORSDOF 0
ENDMDL
MODEL 7
REMARK VINA RESULT:      -5.9      5.281      6.675
REMARK  Name = 446221
REMARK  0 active torsions:
REMARK  status: ('A' for Active; 'I' for Inactive)
REMARK                            x       y       z     vdW  Elec       q    Type
REMARK                         _______ _______ _______ _____ _____    ______ ____
ROOT
ATOM      1  O   UNL     1      34.854 -16.797 -25.832  0.00  0.00    -0.221 OA
ATOM      2  N   UNL     1      35.832 -18.126 -23.347  0.00  0.00    -0.302 N 
ATOM      3  N   UNL     1      33.826 -15.584 -22.068  0.00  0.00    -0.310 N 
ATOM      4  N   UNL     1      33.688 -15.336 -24.476  0.00  0.00    -0.179 NA
ATOM      5  C   UNL     1      34.648 -16.637 -22.229  0.00  0.00    +0.072 C 
ATOM      6  C   UNL     1      34.998 -17.049 -23.494  0.00  0.00    +0.146 C 
ATOM      7  C   UNL     1      35.272 -17.466 -21.283  0.00  0.00    +0.032 C 
ATOM      8  C   UNL     1      36.004 -18.387 -22.006  0.00  0.00    +0.064 C 
ATOM      9  C   UNL     1      34.535 -16.419 -24.710  0.00  0.00    +0.167 C 
ATOM     10  C   UNL     1      33.404 -15.007 -23.249  0.00  0.00    +0.229 C 
ATOM     11  H   UNL     1      36.242 -18.634 -24.083  0.00  0.00    +0.153 HD
ATOM     12  H   UNL     1      33.548 -15.253 -21.183  0.00  0.00    +0.149 HD
ENDROOT
TORSDOF 0
ENDMDL
MODEL 8
REMARK VINA RESULT:      -5.9      2.074      2.793
REMARK  Name = 446221
REMARK  0 active torsions:
REMARK  status: ('A' for Active; 'I' for Inactive)
REMARK                            x       y       z     vdW  Elec       q    Type
REMARK                         _______ _______ _______ _____ _____    ______ ____
ROOT
ATOM      1  O   UNL     1      32.255 -20.152 -20.908  0.00  0.00    -0.221 OA
ATOM      2  N   UNL     1      35.067 -19.182 -21.135  0.00  0.00    -0.302 N 
ATOM      3  N   UNL     1      35.430 -21.996 -19.117  0.00  0.00    -0.310 N 
ATOM      4  N   UNL     1      33.054 -21.867 -19.586  0.00  0.00    -0.179 NA
ATOM      5  C   UNL     1      35.631 -20.890 -19.856  0.00  0.00    +0.072 C 
ATOM      6  C   UNL     1      34.565 -20.265 -20.461  0.00  0.00    +0.146 C 
ATOM      7  C   UNL     1      36.810 -20.188 -20.156  0.00  0.00    +0.032 C 
ATOM      8  C   UNL     1      36.430 -19.128 -20.955  0.00  0.00    +0.064 C 
ATOM      9  C   UNL     1      33.195 -20.718 -20.364  0.00  0.00    +0.167 C 
ATOM     10  C   UNL     1      34.113 -22.401 -19.046  0.00  0.00    +0.229 C 
ATOM     11  H   UNL     1      34.536 -18.545 -21.665  0.00  0.00    +0.153 HD
ATOM     12  H   UNL     1      36.162 -22.477 -18.666  0.00  0.00    +0.149 HD
ENDROOT
TORSDOF 0
ENDMDL
MODEL 9
REMARK VINA RESULT:      -5.9      3.805      5.087
REMARK  Name = 446221
REMARK  0 active torsions:
REMARK  status: ('A' for Active; 'I' for Inactive)
REMARK                            x       y       z     vdW  Elec       q    Type
REMARK                         _______ _______ _______ _____ _____    ______ ____
ROOT
ATOM      1  O   UNL     1      35.044 -16.042 -20.616  0.00  0.00    -0.221 OA
ATOM      2  N   UNL     1      34.687 -15.967 -23.576  0.00  0.00    -0.302 N 
ATOM      3  N   UNL     1      34.964 -19.384 -22.964  0.00  0.00    -0.310 N 
ATOM      4  N   UNL     1      35.161 -18.341 -20.784  0.00  0.00    -0.179 NA
ATOM      5  C   UNL     1      34.824 -18.170 -23.527  0.00  0.00    +0.072 C 
ATOM      6  C   UNL     1      34.850 -17.041 -22.740  0.00  0.00    +0.146 C 
ATOM      7  C   UNL     1      34.642 -17.795 -24.868  0.00  0.00    +0.032 C 
ATOM      8  C   UNL     1      34.559 -16.417 -24.871  0.00  0.00    +0.064 C 
ATOM      9  C   UNL     1      35.022 -17.055 -21.305  0.00  0.00    +0.167 C 
ATOM     10  C   UNL     1      35.126 -19.360 -21.594  0.00  0.00    +0.229 C 
ATOM     11  H   UNL     1      34.663 -15.025 -23.295  0.00  0.00    +0.153 HD
ATOM     12  H   UNL     1      34.952 -20.219 -23.487  0.00  0.00    +0.149 HD
ENDROOT
TORSDOF 0
ENDMDL
