MODEL 1
REMARK VINA RESULT:      -8.5      0.000      0.000
REMARK  Name = 446195
REMARK  5 active torsions:
REMARK  status: ('A' for Active; 'I' for Inactive)
REMARK    1  A    between atoms: C_4  and  C_7
REMARK    2  A    between atoms: C_5  and  S_13
REMARK    3  A    between atoms: S_13  and  C_14
REMARK    4  A    between atoms: C_14  and  C_16
REMARK    5  A    between atoms: C_16  and  O_17
REMARK                            x       y       z     vdW  Elec       q    Type
REMARK                         _______ _______ _______ _____ _____    ______ ____
ROOT
ATOM      1  O   UNL     1      34.584 -24.015 -16.494  0.00  0.00    -0.304 OA
ATOM      2  N   UNL     1      36.014 -22.443 -17.201  0.00  0.00    -0.303 NA
ATOM      3  N   UNL     1      33.956 -23.371 -17.566  0.00  0.00    -0.006 NA
ATOM      4  C   UNL     1      34.861 -22.459 -17.929  0.00  0.00    +0.128 C 
ATOM      5  C   UNL     1      35.790 -23.407 -16.344  0.00  0.00    +0.345 C 
ENDROOT
BRANCH   4   7
ATOM      6 CL   UNL     1      36.841 -19.124 -21.323  0.00  0.00    -0.082 Cl
ATOM      7  C   UNL     1      34.645 -21.544 -19.014  0.00  0.00    +0.078 C 
ATOM      8  C   UNL     1      35.722 -20.859 -19.575  0.00  0.00    +0.023 C 
ATOM      9  C   UNL     1      33.357 -21.341 -19.508  0.00  0.00    +0.011 C 
ATOM     10  C   UNL     1      35.512 -19.970 -20.630  0.00  0.00    +0.058 C 
ATOM     11  C   UNL     1      33.145 -20.453 -20.562  0.00  0.00    +0.002 C 
ATOM     12  C   UNL     1      34.223 -19.767 -21.123  0.00  0.00    +0.011 C 
ENDBRANCH   4   7
BRANCH   5  13
ATOM     13  S   UNL     1      36.928 -23.885 -15.117  0.00  0.00    -0.029 S 
BRANCH  13  14
ATOM     14  C   UNL     1      36.277 -25.514 -14.659  0.00  0.00    +0.177 C 
BRANCH  14  16
ATOM     15  O   UNL     1      38.268 -26.872 -14.635  0.00  0.00    -0.249 OA
ATOM     16  C   UNL     1      37.202 -26.582 -15.165  0.00  0.00    +0.325 C 
BRANCH  16  17
ATOM     17  O   UNL     1      36.724 -27.211 -16.269  0.00  0.00    -0.480 OA
ATOM     18  H   UNL     1      37.082 -28.036 -16.529  0.00  0.00    +0.295 HD
ENDBRANCH  16  17
ENDBRANCH  14  16
ENDBRANCH  13  14
ENDBRANCH   5  13
TORSDOF 5
ENDMDL
MODEL 2
REMARK VINA RESULT:      -8.4      1.256      1.736
REMARK  Name = 446195
REMARK  5 active torsions:
REMARK  status: ('A' for Active; 'I' for Inactive)
REMARK    1  A    between atoms: C_4  and  C_7
REMARK    2  A    between atoms: C_5  and  S_13
REMARK    3  A    between atoms: S_13  and  C_14
REMARK    4  A    between atoms: C_14  and  C_16
REMARK    5  A    between atoms: C_16  and  O_17
REMARK                            x       y       z     vdW  Elec       q    Type
REMARK                         _______ _______ _______ _____ _____    ______ ____
ROOT
ATOM      1  O   UNL     1      34.871 -24.104 -16.049  0.00  0.00    -0.304 OA
ATOM      2  N   UNL     1      36.437 -22.616 -16.639  0.00  0.00    -0.303 NA
ATOM      3  N   UNL     1      34.403 -23.489 -17.216  0.00  0.00    -0.006 NA
ATOM      4  C   UNL     1      35.381 -22.626 -17.503  0.00  0.00    +0.128 C 
ATOM      5  C   UNL     1      36.073 -23.531 -15.777  0.00  0.00    +0.345 C 
ENDROOT
BRANCH   4   7
ATOM      6 CL   UNL     1      32.549 -20.083 -20.976  0.00  0.00    -0.082 Cl
ATOM      7  C   UNL     1      35.335 -21.756 -18.643  0.00  0.00    +0.078 C 
ATOM      8  C   UNL     1      34.107 -21.386 -19.191  0.00  0.00    +0.023 C 
ATOM      9  C   UNL     1      36.520 -21.279 -19.204  0.00  0.00    +0.011 C 
ATOM     10  C   UNL     1      34.063 -20.540 -20.300  0.00  0.00    +0.058 C 
ATOM     11  C   UNL     1      36.477 -20.433 -20.312  0.00  0.00    +0.002 C 
ATOM     12  C   UNL     1      35.248 -20.064 -20.859  0.00  0.00    +0.011 C 
ENDBRANCH   4   7
BRANCH   5  13
ATOM     13  S   UNL     1      37.034 -23.989 -14.400  0.00  0.00    -0.029 S 
BRANCH  13  14
ATOM     14  C   UNL     1      36.508 -25.709 -14.172  0.00  0.00    +0.177 C 
BRANCH  14  16
ATOM     15  O   UNL     1      38.521 -26.934 -14.677  0.00  0.00    -0.249 OA
ATOM     16  C   UNL     1      37.382 -26.612 -14.993  0.00  0.00    +0.325 C 
BRANCH  16  17
ATOM     17  O   UNL     1      36.770 -27.052 -16.122  0.00  0.00    -0.480 OA
ATOM     18  H   UNL     1      35.993 -27.570 -16.060  0.00  0.00    +0.295 HD
ENDBRANCH  16  17
ENDBRANCH  14  16
ENDBRANCH  13  14
ENDBRANCH   5  13
TORSDOF 5
ENDMDL
MODEL 3
REMARK VINA RESULT:      -8.4      2.148      2.694
REMARK  Name = 446195
REMARK  5 active torsions:
REMARK  status: ('A' for Active; 'I' for Inactive)
REMARK    1  A    between atoms: C_4  and  C_7
REMARK    2  A    between atoms: C_5  and  S_13
REMARK    3  A    between atoms: S_13  and  C_14
REMARK    4  A    between atoms: C_14  and  C_16
REMARK    5  A    between atoms: C_16  and  O_17
REMARK                            x       y       z     vdW  Elec       q    Type
REMARK                         _______ _______ _______ _____ _____    ______ ____
ROOT
ATOM      1  O   UNL     1      38.030 -22.751 -15.079  0.00  0.00    -0.304 OA
ATOM      2  N   UNL     1      36.191 -23.894 -15.652  0.00  0.00    -0.303 NA
ATOM      3  N   UNL     1      37.447 -22.044 -16.137  0.00  0.00    -0.006 NA
ATOM      4  C   UNL     1      36.368 -22.780 -16.419  0.00  0.00    +0.128 C 
ATOM      5  C   UNL     1      37.230 -23.826 -14.857  0.00  0.00    +0.345 C 
ENDROOT
BRANCH   4   7
ATOM      6 CL   UNL     1      35.488 -20.329 -20.866  0.00  0.00    -0.082 Cl
ATOM      7  C   UNL     1      35.446 -22.432 -17.463  0.00  0.00    +0.078 C 
ATOM      8  C   UNL     1      35.867 -21.641 -18.532  0.00  0.00    +0.023 C 
ATOM      9  C   UNL     1      34.129 -22.887 -17.408  0.00  0.00    +0.011 C 
ATOM     10  C   UNL     1      34.970 -21.304 -19.547  0.00  0.00    +0.058 C 
ATOM     11  C   UNL     1      33.232 -22.551 -18.422  0.00  0.00    +0.002 C 
ATOM     12  C   UNL     1      33.653 -21.759 -19.491  0.00  0.00    +0.011 C 
ENDBRANCH   4   7
BRANCH   5  13
ATOM     13  S   UNL     1      37.566 -24.999 -13.617  0.00  0.00    -0.029 S 
BRANCH  13  14
ATOM     14  C   UNL     1      38.575 -26.192 -14.538  0.00  0.00    +0.177 C 
BRANCH  14  16
ATOM     15  O   UNL     1      40.556 -24.918 -14.025  0.00  0.00    -0.249 OA
ATOM     16  C   UNL     1      39.920 -25.591 -14.827  0.00  0.00    +0.325 C 
BRANCH  16  17
ATOM     17  O   UNL     1      40.370 -25.886 -16.073  0.00  0.00    -0.480 OA
ATOM     18  H   UNL     1      39.834 -25.705 -16.819  0.00  0.00    +0.295 HD
ENDBRANCH  16  17
ENDBRANCH  14  16
ENDBRANCH  13  14
ENDBRANCH   5  13
TORSDOF 5
ENDMDL
MODEL 4
REMARK VINA RESULT:      -8.3      3.799      4.606
REMARK  Name = 446195
REMARK  5 active torsions:
REMARK  status: ('A' for Active; 'I' for Inactive)
REMARK    1  A    between atoms: C_4  and  C_7
REMARK    2  A    between atoms: C_5  and  S_13
REMARK    3  A    between atoms: S_13  and  C_14
REMARK    4  A    between atoms: C_14  and  C_16
REMARK    5  A    between atoms: C_16  and  O_17
REMARK                            x       y       z     vdW  Elec       q    Type
REMARK                         _______ _______ _______ _____ _____    ______ ____
ROOT
ATOM      1  O   UNL     1      35.752 -24.767 -11.954  0.00  0.00    -0.304 OA
ATOM      2  N   UNL     1      36.053 -24.634 -14.169  0.00  0.00    -0.303 NA
ATOM      3  N   UNL     1      34.538 -24.314 -12.486  0.00  0.00    -0.006 NA
ATOM      4  C   UNL     1      34.796 -24.262 -13.795  0.00  0.00    +0.128 C 
ATOM      5  C   UNL     1      36.589 -24.929 -13.011  0.00  0.00    +0.345 C 
ENDROOT
BRANCH   4   7
ATOM      6 CL   UNL     1      33.711 -22.920 -18.651  0.00  0.00    -0.082 Cl
ATOM      7  C   UNL     1      33.819 -23.840 -14.759  0.00  0.00    +0.078 C 
ATOM      8  C   UNL     1      34.196 -23.612 -16.082  0.00  0.00    +0.023 C 
ATOM      9  C   UNL     1      32.491 -23.659 -14.372  0.00  0.00    +0.011 C 
ATOM     10  C   UNL     1      33.246 -23.202 -17.018  0.00  0.00    +0.058 C 
ATOM     11  C   UNL     1      31.541 -23.250 -15.307  0.00  0.00    +0.002 C 
ATOM     12  C   UNL     1      31.919 -23.021 -16.630  0.00  0.00    +0.011 C 
ENDBRANCH   4   7
BRANCH   5  13
ATOM     13  S   UNL     1      38.227 -25.486 -12.827  0.00  0.00    -0.029 S 
BRANCH  13  14
ATOM     14  C   UNL     1      38.621 -25.965 -14.531  0.00  0.00    +0.177 C 
BRANCH  14  16
ATOM     15  O   UNL     1      40.733 -24.887 -14.102  0.00  0.00    -0.249 OA
ATOM     16  C   UNL     1      40.019 -25.530 -14.861  0.00  0.00    +0.325 C 
BRANCH  16  17
ATOM     17  O   UNL     1      40.420 -25.940 -16.091  0.00  0.00    -0.480 OA
ATOM     18  H   UNL     1      41.332 -25.961 -16.303  0.00  0.00    +0.295 HD
ENDBRANCH  16  17
ENDBRANCH  14  16
ENDBRANCH  13  14
ENDBRANCH   5  13
TORSDOF 5
ENDMDL
MODEL 5
REMARK VINA RESULT:      -8.3      4.342      5.126
REMARK  Name = 446195
REMARK  5 active torsions:
REMARK  status: ('A' for Active; 'I' for Inactive)
REMARK    1  A    between atoms: C_4  and  C_7
REMARK    2  A    between atoms: C_5  and  S_13
REMARK    3  A    between atoms: S_13  and  C_14
REMARK    4  A    between atoms: C_14  and  C_16
REMARK    5  A    between atoms: C_16  and  O_17
REMARK                            x       y       z     vdW  Elec       q    Type
REMARK                         _______ _______ _______ _____ _____    ______ ____
ROOT
ATOM      1  O   UNL     1      35.680 -24.937 -12.012  0.00  0.00    -0.304 OA
ATOM      2  N   UNL     1      35.986 -24.736 -14.222  0.00  0.00    -0.303 NA
ATOM      3  N   UNL     1      34.478 -24.439 -12.528  0.00  0.00    -0.006 NA
ATOM      4  C   UNL     1      34.737 -24.348 -13.835  0.00  0.00    +0.128 C 
ATOM      5  C   UNL     1      36.514 -25.083 -13.075  0.00  0.00    +0.345 C 
ENDROOT
BRANCH   4   7
ATOM      6 CL   UNL     1      29.929 -22.760 -14.788  0.00  0.00    -0.082 Cl
ATOM      7  C   UNL     1      33.771 -23.871 -14.784  0.00  0.00    +0.078 C 
ATOM      8  C   UNL     1      32.471 -23.581 -14.372  0.00  0.00    +0.023 C 
ATOM      9  C   UNL     1      34.134 -23.698 -16.120  0.00  0.00    +0.011 C 
ATOM     10  C   UNL     1      31.533 -23.118 -15.296  0.00  0.00    +0.058 C 
ATOM     11  C   UNL     1      33.198 -23.234 -17.043  0.00  0.00    +0.002 C 
ATOM     12  C   UNL     1      31.897 -22.944 -16.630  0.00  0.00    +0.011 C 
ENDBRANCH   4   7
BRANCH   5  13
ATOM     13  S   UNL     1      38.139 -25.684 -12.909  0.00  0.00    -0.029 S 
BRANCH  13  14
ATOM     14  C   UNL     1      38.872 -25.125 -14.470  0.00  0.00    +0.177 C 
BRANCH  14  16
ATOM     15  O   UNL     1      40.832 -26.378 -13.839  0.00  0.00    -0.249 OA
ATOM     16  C   UNL     1      40.145 -25.880 -14.723  0.00  0.00    +0.325 C 
BRANCH  16  17
ATOM     17  O   UNL     1      40.449 -25.970 -16.042  0.00  0.00    -0.480 OA
ATOM     18  H   UNL     1      40.445 -26.805 -16.467  0.00  0.00    +0.295 HD
ENDBRANCH  16  17
ENDBRANCH  14  16
ENDBRANCH  13  14
ENDBRANCH   5  13
TORSDOF 5
ENDMDL
MODEL 6
REMARK VINA RESULT:      -8.2      2.484      3.018
REMARK  Name = 446195
REMARK  5 active torsions:
REMARK  status: ('A' for Active; 'I' for Inactive)
REMARK    1  A    between atoms: C_4  and  C_7
REMARK    2  A    between atoms: C_5  and  S_13
REMARK    3  A    between atoms: S_13  and  C_14
REMARK    4  A    between atoms: C_14  and  C_16
REMARK    5  A    between atoms: C_16  and  O_17
REMARK                            x       y       z     vdW  Elec       q    Type
REMARK                         _______ _______ _______ _____ _____    ______ ____
ROOT
ATOM      1  O   UNL     1      34.953 -24.143 -15.808  0.00  0.00    -0.304 OA
ATOM      2  N   UNL     1      36.573 -22.756 -16.491  0.00  0.00    -0.303 NA
ATOM      3  N   UNL     1      34.468 -23.517 -16.963  0.00  0.00    -0.006 NA
ATOM      4  C   UNL     1      35.480 -22.715 -17.305  0.00  0.00    +0.128 C 
ATOM      5  C   UNL     1      36.196 -23.638 -15.599  0.00  0.00    +0.345 C 
ENDROOT
BRANCH   4   7
ATOM      6 CL   UNL     1      32.645 -20.291 -20.861  0.00  0.00    -0.082 Cl
ATOM      7  C   UNL     1      35.431 -21.857 -18.456  0.00  0.00    +0.078 C 
ATOM      8  C   UNL     1      34.205 -21.530 -19.032  0.00  0.00    +0.023 C 
ATOM      9  C   UNL     1      36.613 -21.351 -18.997  0.00  0.00    +0.011 C 
ATOM     10  C   UNL     1      34.159 -20.696 -20.150  0.00  0.00    +0.058 C 
ATOM     11  C   UNL     1      36.568 -20.517 -20.114  0.00  0.00    +0.002 C 
ATOM     12  C   UNL     1      35.341 -20.190 -20.690  0.00  0.00    +0.011 C 
ENDBRANCH   4   7
BRANCH   5  13
ATOM     13  S   UNL     1      37.192 -24.134 -14.261  0.00  0.00    -0.029 S 
BRANCH  13  14
ATOM     14  C   UNL     1      36.345 -23.316 -12.882  0.00  0.00    +0.177 C 
BRANCH  14  16
ATOM     15  O   UNL     1      38.271 -22.563 -11.643  0.00  0.00    -0.249 OA
ATOM     16  C   UNL     1      37.264 -23.259 -11.695  0.00  0.00    +0.325 C 
BRANCH  16  17
ATOM     17  O   UNL     1      36.851 -24.050 -10.673  0.00  0.00    -0.480 OA
ATOM     18  H   UNL     1      36.930 -24.980 -10.741  0.00  0.00    +0.295 HD
ENDBRANCH  16  17
ENDBRANCH  14  16
ENDBRANCH  13  14
ENDBRANCH   5  13
TORSDOF 5
ENDMDL
MODEL 7
REMARK VINA RESULT:      -8.2      7.251      9.882
REMARK  Name = 446195
REMARK  5 active torsions:
REMARK  status: ('A' for Active; 'I' for Inactive)
REMARK    1  A    between atoms: C_4  and  C_7
REMARK    2  A    between atoms: C_5  and  S_13
REMARK    3  A    between atoms: S_13  and  C_14
REMARK    4  A    between atoms: C_14  and  C_16
REMARK    5  A    between atoms: C_16  and  O_17
REMARK                            x       y       z     vdW  Elec       q    Type
REMARK                         _______ _______ _______ _____ _____    ______ ____
ROOT
ATOM      1  O   UNL     1      35.085 -17.012 -24.053  0.00  0.00    -0.304 OA
ATOM      2  N   UNL     1      34.232 -16.855 -21.989  0.00  0.00    -0.303 NA
ATOM      3  N   UNL     1      35.113 -18.306 -23.521  0.00  0.00    -0.006 NA
ATOM      4  C   UNL     1      34.594 -18.132 -22.303  0.00  0.00    +0.128 C 
ATOM      5  C   UNL     1      34.553 -16.219 -23.087  0.00  0.00    +0.345 C 
ENDROOT
BRANCH   4   7
ATOM      6 CL   UNL     1      36.749 -21.618 -19.180  0.00  0.00    -0.082 Cl
ATOM      7  C   UNL     1      34.424 -19.212 -21.372  0.00  0.00    +0.078 C 
ATOM      8  C   UNL     1      35.539 -19.819 -20.796  0.00  0.00    +0.023 C 
ATOM      9  C   UNL     1      33.142 -19.653 -21.044  0.00  0.00    +0.011 C 
ATOM     10  C   UNL     1      35.373 -20.868 -19.891  0.00  0.00    +0.058 C 
ATOM     11  C   UNL     1      32.976 -20.701 -20.140  0.00  0.00    +0.002 C 
ATOM     12  C   UNL     1      34.092 -21.309 -19.564  0.00  0.00    +0.011 C 
ENDBRANCH   4   7
BRANCH   5  13
ATOM     13  S   UNL     1      34.322 -14.508 -23.307  0.00  0.00    -0.029 S 
BRANCH  13  14
ATOM     14  C   UNL     1      32.861 -14.495 -24.381  0.00  0.00    +0.177 C 
BRANCH  14  16
ATOM     15  O   UNL     1      33.305 -13.319 -26.438  0.00  0.00    -0.249 OA
ATOM     16  C   UNL     1      33.295 -14.373 -25.813  0.00  0.00    +0.325 C 
BRANCH  16  17
ATOM     17  O   UNL     1      33.694 -15.556 -26.344  0.00  0.00    -0.480 OA
ATOM     18  H   UNL     1      34.588 -15.678 -26.596  0.00  0.00    +0.295 HD
ENDBRANCH  16  17
ENDBRANCH  14  16
ENDBRANCH  13  14
ENDBRANCH   5  13
TORSDOF 5
ENDMDL
MODEL 8
REMARK VINA RESULT:      -8.1      6.946      8.998
REMARK  Name = 446195
REMARK  5 active torsions:
REMARK  status: ('A' for Active; 'I' for Inactive)
REMARK    1  A    between atoms: C_4  and  C_7
REMARK    2  A    between atoms: C_5  and  S_13
REMARK    3  A    between atoms: S_13  and  C_14
REMARK    4  A    between atoms: C_14  and  C_16
REMARK    5  A    between atoms: C_16  and  O_17
REMARK                            x       y       z     vdW  Elec       q    Type
REMARK                         _______ _______ _______ _____ _____    ______ ____
ROOT
ATOM      1  O   UNL     1      34.990 -17.811 -24.174  0.00  0.00    -0.304 OA
ATOM      2  N   UNL     1      34.360 -17.385 -22.068  0.00  0.00    -0.303 NA
ATOM      3  N   UNL     1      34.972 -19.046 -23.516  0.00  0.00    -0.006 NA
ATOM      4  C   UNL     1      34.591 -18.713 -22.281  0.00  0.00    +0.128 C 
ATOM      5  C   UNL     1      34.619 -16.887 -23.251  0.00  0.00    +0.345 C 
ENDROOT
BRANCH   4   7
ATOM      6 CL   UNL     1      36.780 -21.756 -18.746  0.00  0.00    -0.082 Cl
ATOM      7  C   UNL     1      34.433 -19.681 -21.232  0.00  0.00    +0.078 C 
ATOM      8  C   UNL     1      35.553 -20.188 -20.576  0.00  0.00    +0.023 C 
ATOM      9  C   UNL     1      33.157 -20.113 -20.870  0.00  0.00    +0.011 C 
ATOM     10  C   UNL     1      35.398 -21.129 -19.556  0.00  0.00    +0.058 C 
ATOM     11  C   UNL     1      33.002 -21.052 -19.852  0.00  0.00    +0.002 C 
ATOM     12  C   UNL     1      34.123 -21.560 -19.195  0.00  0.00    +0.011 C 
ENDBRANCH   4   7
BRANCH   5  13
ATOM     13  S   UNL     1      34.498 -15.191 -23.624  0.00  0.00    -0.029 S 
BRANCH  13  14
ATOM     14  C   UNL     1      34.231 -14.494 -21.971  0.00  0.00    +0.177 C 
BRANCH  14  16
ATOM     15  O   UNL     1      32.194 -13.209 -21.886  0.00  0.00    -0.249 OA
ATOM     16  C   UNL     1      32.761 -14.286 -21.748  0.00  0.00    +0.325 C 
BRANCH  16  17
ATOM     17  O   UNL     1      32.117 -15.426 -21.391  0.00  0.00    -0.480 OA
ATOM     18  H   UNL     1      31.983 -15.623 -20.486  0.00  0.00    +0.295 HD
ENDBRANCH  16  17
ENDBRANCH  14  16
ENDBRANCH  13  14
ENDBRANCH   5  13
TORSDOF 5
ENDMDL
MODEL 9
REMARK VINA RESULT:      -8.0      3.386      5.001
REMARK  Name = 446195
REMARK  5 active torsions:
REMARK  status: ('A' for Active; 'I' for Inactive)
REMARK    1  A    between atoms: C_4  and  C_7
REMARK    2  A    between atoms: C_5  and  S_13
REMARK    3  A    between atoms: S_13  and  C_14
REMARK    4  A    between atoms: C_14  and  C_16
REMARK    5  A    between atoms: C_16  and  O_17
REMARK                            x       y       z     vdW  Elec       q    Type
REMARK                         _______ _______ _______ _____ _____    ______ ____
ROOT
ATOM      1  O   UNL     1      33.710 -23.821 -17.032  0.00  0.00    -0.304 OA
ATOM      2  N   UNL     1      32.303 -22.366 -17.990  0.00  0.00    -0.303 NA
ATOM      3  N   UNL     1      34.475 -23.081 -17.942  0.00  0.00    -0.006 NA
ATOM      4  C   UNL     1      33.576 -22.245 -18.466  0.00  0.00    +0.128 C 
ATOM      5  C   UNL     1      32.444 -23.338 -17.124  0.00  0.00    +0.345 C 
ENDROOT
BRANCH   4   7
ATOM      6 CL   UNL     1      37.221 -19.582 -20.950  0.00  0.00    -0.082 Cl
ATOM      7  C   UNL     1      33.914 -21.275 -19.469  0.00  0.00    +0.078 C 
ATOM      8  C   UNL     1      35.248 -20.939 -19.695  0.00  0.00    +0.023 C 
ATOM      9  C   UNL     1      32.906 -20.670 -20.220  0.00  0.00    +0.011 C 
ATOM     10  C   UNL     1      35.575 -19.997 -20.671  0.00  0.00    +0.058 C 
ATOM     11  C   UNL     1      33.232 -19.728 -21.195  0.00  0.00    +0.002 C 
ATOM     12  C   UNL     1      34.567 -19.392 -21.421  0.00  0.00    +0.011 C 
ENDBRANCH   4   7
BRANCH   5  13
ATOM     13  S   UNL     1      31.135 -23.964 -16.164  0.00  0.00    -0.029 S 
BRANCH  13  14
ATOM     14  C   UNL     1      30.016 -22.537 -16.137  0.00  0.00    +0.177 C 
BRANCH  14  16
ATOM     15  O   UNL     1      28.438 -24.037 -17.171  0.00  0.00    -0.249 OA
ATOM     16  C   UNL     1      28.726 -22.901 -16.813  0.00  0.00    +0.325 C 
BRANCH  16  17
ATOM     17  O   UNL     1      27.898 -21.838 -16.972  0.00  0.00    -0.480 OA
ATOM     18  H   UNL     1      27.608 -21.595 -17.829  0.00  0.00    +0.295 HD
ENDBRANCH  16  17
ENDBRANCH  14  16
ENDBRANCH  13  14
ENDBRANCH   5  13
TORSDOF 5
ENDMDL
