MODEL 1
REMARK VINA RESULT:      -8.5      0.000      0.000
REMARK  Name = 2405
REMARK  13 active torsions:
REMARK  status: ('A' for Active; 'I' for Inactive)
REMARK    1  A    between atoms: C_1  and  O_7
REMARK    2  A    between atoms: C_2  and  C_19
REMARK    3  A    between atoms: O_7  and  C_8
REMARK    4  A    between atoms: C_8  and  C_9
REMARK    5  A    between atoms: C_9  and  O_10
REMARK    6  A    between atoms: C_9  and  C_12
REMARK    7  A    between atoms: C_12  and  N_13
REMARK    8  A    between atoms: N_13  and  C_16
REMARK    9  A    between atoms: C_19  and  O_20
REMARK   10  A    between atoms: O_20  and  C_21
REMARK   11  A    between atoms: C_21  and  C_22
REMARK   12  A    between atoms: C_22  and  O_23
REMARK   13  A    between atoms: O_23  and  C_24
REMARK                            x       y       z     vdW  Elec       q    Type
REMARK                         _______ _______ _______ _____ _____    ______ ____
ROOT
ATOM      1  C   UNL     1      34.889 -19.610 -20.917  0.00  0.00    +0.139 C 
ATOM      2  C   UNL     1      34.048 -21.724 -19.317  0.00  0.00    +0.007 C 
ATOM      3  C   UNL     1      33.531 -19.803 -20.688  0.00  0.00    +0.037 C 
ATOM      4  C   UNL     1      35.831 -20.464 -20.353  0.00  0.00    +0.037 C 
ATOM      5  C   UNL     1      33.110 -20.864 -19.886  0.00  0.00    +0.001 C 
ATOM      6  C   UNL     1      35.409 -21.524 -19.551  0.00  0.00    +0.001 C 
ENDROOT
BRANCH   1   7
ATOM      7  O   UNL     1      35.303 -18.569 -21.706  0.00  0.00    -0.473 OA
BRANCH   7   8
ATOM      8  C   UNL     1      34.991 -17.257 -21.249  0.00  0.00    +0.232 C 
BRANCH   8   9
ATOM      9  C   UNL     1      34.595 -16.398 -22.449  0.00  0.00    +0.133 C 
BRANCH   9  10
ATOM     10  O   UNL     1      35.697 -16.355 -23.360  0.00  0.00    -0.383 OA
ATOM     11  H   UNL     1      36.152 -15.502 -23.277  0.00  0.00    +0.210 HD
ENDBRANCH   9  10
BRANCH   9  12
ATOM     12  C   UNL     1      34.232 -14.961 -22.071  0.00  0.00    -0.048 C 
BRANCH  12  13
ATOM     13  N   UNL     1      34.600 -14.010 -23.111  0.00  0.00    +0.387 N 
ATOM     14  H   UNL     1      35.059 -14.510 -23.872  0.00  0.00    -0.084 HD
ATOM     15  H   UNL     1      35.231 -13.316 -22.709  0.00  0.00    -0.084 HD
BRANCH  13  16
ATOM     16  C   UNL     1      33.424 -13.325 -23.631  0.00  0.00    -0.062 C 
ATOM     17  C   UNL     1      33.004 -13.967 -24.949  0.00  0.00    -0.023 C 
ATOM     18  C   UNL     1      32.291 -13.375 -22.611  0.00  0.00    -0.023 C 
ENDBRANCH  13  16
ENDBRANCH  12  13
ENDBRANCH   9  12
ENDBRANCH   8   9
ENDBRANCH   7   8
ENDBRANCH   1   7
BRANCH   2  19
ATOM     19  C   UNL     1      33.598 -22.857 -18.460  0.00  0.00    +0.169 C 
BRANCH  19  20
ATOM     20  O   UNL     1      32.323 -22.554 -17.906  0.00  0.00    -0.346 OA
BRANCH  20  21
ATOM     21  C   UNL     1      32.076 -23.307 -16.727  0.00  0.00    +0.175 C 
BRANCH  21  22
ATOM     22  C   UNL     1      30.790 -22.818 -16.089  0.00  0.00    +0.174 C 
BRANCH  22  23
ATOM     23  O   UNL     1      29.780 -22.729 -17.088  0.00  0.00    -0.354 OA
BRANCH  23  24
ATOM     24  C   UNL     1      28.597 -23.409 -16.695  0.00  0.00    +0.115 C 
ATOM     25  C   UNL     1      27.589 -22.396 -16.169  0.00  0.00    +0.032 C 
ATOM     26  C   UNL     1      28.946 -24.457 -15.649  0.00  0.00    +0.032 C 
ENDBRANCH  23  24
ENDBRANCH  22  23
ENDBRANCH  21  22
ENDBRANCH  20  21
ENDBRANCH  19  20
ENDBRANCH   2  19
TORSDOF 13
ENDMDL
MODEL 2
REMARK VINA RESULT:      -8.5      2.823      4.268
REMARK  Name = 2405
REMARK  13 active torsions:
REMARK  status: ('A' for Active; 'I' for Inactive)
REMARK    1  A    between atoms: C_1  and  O_7
REMARK    2  A    between atoms: C_2  and  C_19
REMARK    3  A    between atoms: O_7  and  C_8
REMARK    4  A    between atoms: C_8  and  C_9
REMARK    5  A    between atoms: C_9  and  O_10
REMARK    6  A    between atoms: C_9  and  C_12
REMARK    7  A    between atoms: C_12  and  N_13
REMARK    8  A    between atoms: N_13  and  C_16
REMARK    9  A    between atoms: C_19  and  O_20
REMARK   10  A    between atoms: O_20  and  C_21
REMARK   11  A    between atoms: C_21  and  C_22
REMARK   12  A    between atoms: C_22  and  O_23
REMARK   13  A    between atoms: O_23  and  C_24
REMARK                            x       y       z     vdW  Elec       q    Type
REMARK                         _______ _______ _______ _____ _____    ______ ____
ROOT
ATOM      1  C   UNL     1      34.313 -19.422 -20.973  0.00  0.00    +0.139 C 
ATOM      2  C   UNL     1      33.993 -21.710 -19.424  0.00  0.00    +0.007 C 
ATOM      3  C   UNL     1      35.430 -20.159 -20.592  0.00  0.00    +0.037 C 
ATOM      4  C   UNL     1      33.037 -19.819 -20.585  0.00  0.00    +0.037 C 
ATOM      5  C   UNL     1      35.269 -21.306 -19.815  0.00  0.00    +0.001 C 
ATOM      6  C   UNL     1      32.877 -20.966 -19.808  0.00  0.00    +0.001 C 
ENDROOT
BRANCH   1   7
ATOM      7  O   UNL     1      34.472 -18.295 -21.735  0.00  0.00    -0.473 OA
BRANCH   7   8
ATOM      8  C   UNL     1      35.206 -17.225 -21.149  0.00  0.00    +0.232 C 
BRANCH   8   9
ATOM      9  C   UNL     1      34.541 -15.903 -21.531  0.00  0.00    +0.133 C 
BRANCH   9  10
ATOM     10  O   UNL     1      33.157 -15.971 -21.175  0.00  0.00    -0.383 OA
ATOM     11  H   UNL     1      32.812 -15.073 -21.047  0.00  0.00    +0.210 HD
ENDBRANCH   9  10
BRANCH   9  12
ATOM     12  C   UNL     1      34.634 -15.589 -23.026  0.00  0.00    -0.048 C 
BRANCH  12  13
ATOM     13  N   UNL     1      35.449 -16.561 -23.741  0.00  0.00    +0.387 N 
ATOM     14  H   UNL     1      35.499 -17.421 -23.194  0.00  0.00    -0.084 HD
ATOM     15  H   UNL     1      36.382 -16.169 -23.873  0.00  0.00    -0.084 HD
BRANCH  13  16
ATOM     16  C   UNL     1      34.880 -16.858 -25.048  0.00  0.00    -0.062 C 
ATOM     17  C   UNL     1      34.356 -18.291 -25.060  0.00  0.00    -0.023 C 
ATOM     18  C   UNL     1      33.768 -15.866 -25.377  0.00  0.00    -0.023 C 
ENDBRANCH  13  16
ENDBRANCH  12  13
ENDBRANCH   9  12
ENDBRANCH   8   9
ENDBRANCH   7   8
ENDBRANCH   1   7
BRANCH   2  19
ATOM     19  C   UNL     1      33.821 -22.936 -18.593  0.00  0.00    +0.169 C 
BRANCH  19  20
ATOM     20  O   UNL     1      34.626 -22.833 -17.425  0.00  0.00    -0.346 OA
BRANCH  20  21
ATOM     21  C   UNL     1      33.914 -23.235 -16.264  0.00  0.00    +0.175 C 
BRANCH  21  22
ATOM     22  C   UNL     1      34.901 -23.734 -15.226  0.00  0.00    +0.174 C 
BRANCH  22  23
ATOM     23  O   UNL     1      35.629 -24.830 -15.767  0.00  0.00    -0.354 OA
BRANCH  23  24
ATOM     24  C   UNL     1      36.608 -25.306 -14.854  0.00  0.00    +0.115 C 
ATOM     25  C   UNL     1      37.824 -24.391 -14.902  0.00  0.00    +0.032 C 
ATOM     26  C   UNL     1      36.965 -26.742 -15.206  0.00  0.00    +0.032 C 
ENDBRANCH  23  24
ENDBRANCH  22  23
ENDBRANCH  21  22
ENDBRANCH  20  21
ENDBRANCH  19  20
ENDBRANCH   2  19
TORSDOF 13
ENDMDL
MODEL 3
REMARK VINA RESULT:      -8.4      3.211      9.517
REMARK  Name = 2405
REMARK  13 active torsions:
REMARK  status: ('A' for Active; 'I' for Inactive)
REMARK    1  A    between atoms: C_1  and  O_7
REMARK    2  A    between atoms: C_2  and  C_19
REMARK    3  A    between atoms: O_7  and  C_8
REMARK    4  A    between atoms: C_8  and  C_9
REMARK    5  A    between atoms: C_9  and  O_10
REMARK    6  A    between atoms: C_9  and  C_12
REMARK    7  A    between atoms: C_12  and  N_13
REMARK    8  A    between atoms: N_13  and  C_16
REMARK    9  A    between atoms: C_19  and  O_20
REMARK   10  A    between atoms: O_20  and  C_21
REMARK   11  A    between atoms: C_21  and  C_22
REMARK   12  A    between atoms: C_22  and  O_23
REMARK   13  A    between atoms: O_23  and  C_24
REMARK                            x       y       z     vdW  Elec       q    Type
REMARK                         _______ _______ _______ _____ _____    ______ ____
ROOT
ATOM      1  C   UNL     1      34.289 -22.226 -19.059  0.00  0.00    +0.139 C 
ATOM      2  C   UNL     1      34.521 -19.936 -20.621  0.00  0.00    +0.007 C 
ATOM      3  C   UNL     1      35.549 -21.774 -19.437  0.00  0.00    +0.037 C 
ATOM      4  C   UNL     1      33.144 -21.543 -19.455  0.00  0.00    +0.037 C 
ATOM      5  C   UNL     1      35.665 -20.626 -20.221  0.00  0.00    +0.001 C 
ATOM      6  C   UNL     1      33.260 -20.395 -20.238  0.00  0.00    +0.001 C 
ENDROOT
BRANCH   1   7
ATOM      7  O   UNL     1      34.176 -23.354 -18.291  0.00  0.00    -0.473 OA
BRANCH   7   8
ATOM      8  C   UNL     1      33.319 -23.273 -17.157  0.00  0.00    +0.232 C 
BRANCH   8   9
ATOM      9  C   UNL     1      34.174 -23.270 -15.891  0.00  0.00    +0.133 C 
BRANCH   9  10
ATOM     10  O   UNL     1      35.375 -24.001 -16.152  0.00  0.00    -0.383 OA
ATOM     11  H   UNL     1      35.744 -23.723 -17.005  0.00  0.00    +0.210 HD
ENDBRANCH   9  10
BRANCH   9  12
ATOM     12  C   UNL     1      33.477 -23.909 -14.688  0.00  0.00    -0.048 C 
BRANCH  12  13
ATOM     13  N   UNL     1      32.666 -22.951 -13.951  0.00  0.00    +0.387 N 
ATOM     14  H   UNL     1      32.622 -22.077 -14.476  0.00  0.00    -0.084 HD
ATOM     15  H   UNL     1      33.095 -22.796 -13.038  0.00  0.00    -0.084 HD
BRANCH  13  16
ATOM     16  C   UNL     1      31.315 -23.456 -13.750  0.00  0.00    -0.062 C 
ATOM     17  C   UNL     1      30.391 -22.873 -14.815  0.00  0.00    -0.023 C 
ATOM     18  C   UNL     1      31.310 -24.981 -13.795  0.00  0.00    -0.023 C 
ENDBRANCH  13  16
ENDBRANCH  12  13
ENDBRANCH   9  12
ENDBRANCH   8   9
ENDBRANCH   7   8
ENDBRANCH   1   7
BRANCH   2  19
ATOM     19  C   UNL     1      34.645 -18.709 -21.459  0.00  0.00    +0.169 C 
BRANCH  19  20
ATOM     20  O   UNL     1      34.707 -19.077 -22.831  0.00  0.00    -0.346 OA
BRANCH  20  21
ATOM     21  C   UNL     1      35.536 -18.191 -23.570  0.00  0.00    +0.175 C 
BRANCH  21  22
ATOM     22  C   UNL     1      34.728 -16.969 -23.961  0.00  0.00    +0.174 C 
BRANCH  22  23
ATOM     23  O   UNL     1      35.236 -15.835 -23.266  0.00  0.00    -0.354 OA
BRANCH  23  24
ATOM     24  C   UNL     1      34.198 -15.117 -22.613  0.00  0.00    +0.115 C 
ATOM     25  C   UNL     1      34.062 -13.743 -23.252  0.00  0.00    +0.032 C 
ATOM     26  C   UNL     1      34.512 -15.025 -21.128  0.00  0.00    +0.032 C 
ENDBRANCH  23  24
ENDBRANCH  22  23
ENDBRANCH  21  22
ENDBRANCH  20  21
ENDBRANCH  19  20
ENDBRANCH   2  19
TORSDOF 13
ENDMDL
MODEL 4
REMARK VINA RESULT:      -8.4      1.587      2.134
REMARK  Name = 2405
REMARK  13 active torsions:
REMARK  status: ('A' for Active; 'I' for Inactive)
REMARK    1  A    between atoms: C_1  and  O_7
REMARK    2  A    between atoms: C_2  and  C_19
REMARK    3  A    between atoms: O_7  and  C_8
REMARK    4  A    between atoms: C_8  and  C_9
REMARK    5  A    between atoms: C_9  and  O_10
REMARK    6  A    between atoms: C_9  and  C_12
REMARK    7  A    between atoms: C_12  and  N_13
REMARK    8  A    between atoms: N_13  and  C_16
REMARK    9  A    between atoms: C_19  and  O_20
REMARK   10  A    between atoms: O_20  and  C_21
REMARK   11  A    between atoms: C_21  and  C_22
REMARK   12  A    between atoms: C_22  and  O_23
REMARK   13  A    between atoms: O_23  and  C_24
REMARK                            x       y       z     vdW  Elec       q    Type
REMARK                         _______ _______ _______ _____ _____    ______ ____
ROOT
ATOM      1  C   UNL     1      34.238 -19.081 -21.052  0.00  0.00    +0.139 C 
ATOM      2  C   UNL     1      34.169 -21.477 -19.640  0.00  0.00    +0.007 C 
ATOM      3  C   UNL     1      33.018 -19.601 -20.635  0.00  0.00    +0.037 C 
ATOM      4  C   UNL     1      35.426 -19.750 -20.770  0.00  0.00    +0.037 C 
ATOM      5  C   UNL     1      32.983 -20.802 -19.927  0.00  0.00    +0.001 C 
ATOM      6  C   UNL     1      35.390 -20.951 -20.062  0.00  0.00    +0.001 C 
ENDROOT
BRANCH   1   7
ATOM      7  O   UNL     1      34.272 -17.902 -21.748  0.00  0.00    -0.473 OA
BRANCH   7   8
ATOM      8  C   UNL     1      35.045 -16.849 -21.184  0.00  0.00    +0.232 C 
BRANCH   8   9
ATOM      9  C   UNL     1      34.501 -15.513 -21.688  0.00  0.00    +0.133 C 
BRANCH   9  10
ATOM     10  O   UNL     1      33.157 -15.364 -21.220  0.00  0.00    -0.383 OA
ATOM     11  H   UNL     1      33.162 -14.913 -20.361  0.00  0.00    +0.210 HD
ENDBRANCH   9  10
BRANCH   9  12
ATOM     12  C   UNL     1      34.490 -15.401 -23.214  0.00  0.00    -0.048 C 
BRANCH  12  13
ATOM     13  N   UNL     1      35.365 -16.381 -23.842  0.00  0.00    +0.387 N 
ATOM     14  H   UNL     1      35.430 -17.203 -23.241  0.00  0.00    -0.084 HD
ATOM     15  H   UNL     1      36.285 -15.960 -23.971  0.00  0.00    -0.084 HD
BRANCH  13  16
ATOM     16  C   UNL     1      34.849 -16.782 -25.144  0.00  0.00    -0.062 C 
ATOM     17  C   UNL     1      34.371 -18.229 -25.077  0.00  0.00    -0.023 C 
ATOM     18  C   UNL     1      33.720 -15.851 -25.574  0.00  0.00    -0.023 C 
ENDBRANCH  13  16
ENDBRANCH  12  13
ENDBRANCH   9  12
ENDBRANCH   8   9
ENDBRANCH   7   8
ENDBRANCH   1   7
BRANCH   2  19
ATOM     19  C   UNL     1      34.132 -22.761 -18.884  0.00  0.00    +0.169 C 
BRANCH  19  20
ATOM     20  O   UNL     1      32.814 -22.989 -18.401  0.00  0.00    -0.346 OA
BRANCH  20  21
ATOM     21  C   UNL     1      32.807 -23.236 -17.002  0.00  0.00    +0.175 C 
BRANCH  21  22
ATOM     22  C   UNL     1      31.438 -22.893 -16.446  0.00  0.00    +0.174 C 
BRANCH  22  23
ATOM     23  O   UNL     1      31.044 -23.906 -15.526  0.00  0.00    -0.354 OA
BRANCH  23  24
ATOM     24  C   UNL     1      29.718 -23.700 -15.062  0.00  0.00    +0.115 C 
ATOM     25  C   UNL     1      29.038 -25.048 -14.875  0.00  0.00    +0.032 C 
ATOM     26  C   UNL     1      28.972 -22.821 -16.053  0.00  0.00    +0.032 C 
ENDBRANCH  23  24
ENDBRANCH  22  23
ENDBRANCH  21  22
ENDBRANCH  20  21
ENDBRANCH  19  20
ENDBRANCH   2  19
TORSDOF 13
ENDMDL
MODEL 5
REMARK VINA RESULT:      -8.3      2.404      3.978
REMARK  Name = 2405
REMARK  13 active torsions:
REMARK  status: ('A' for Active; 'I' for Inactive)
REMARK    1  A    between atoms: C_1  and  O_7
REMARK    2  A    between atoms: C_2  and  C_19
REMARK    3  A    between atoms: O_7  and  C_8
REMARK    4  A    between atoms: C_8  and  C_9
REMARK    5  A    between atoms: C_9  and  O_10
REMARK    6  A    between atoms: C_9  and  C_12
REMARK    7  A    between atoms: C_12  and  N_13
REMARK    8  A    between atoms: N_13  and  C_16
REMARK    9  A    between atoms: C_19  and  O_20
REMARK   10  A    between atoms: O_20  and  C_21
REMARK   11  A    between atoms: C_21  and  C_22
REMARK   12  A    between atoms: C_22  and  O_23
REMARK   13  A    between atoms: O_23  and  C_24
REMARK                            x       y       z     vdW  Elec       q    Type
REMARK                         _______ _______ _______ _____ _____    ______ ____
ROOT
ATOM      1  C   UNL     1      35.116 -19.566 -20.944  0.00  0.00    +0.139 C 
ATOM      2  C   UNL     1      34.023 -21.602 -19.397  0.00  0.00    +0.007 C 
ATOM      3  C   UNL     1      35.956 -20.459 -20.288  0.00  0.00    +0.037 C 
ATOM      4  C   UNL     1      33.734 -19.681 -20.834  0.00  0.00    +0.037 C 
ATOM      5  C   UNL     1      35.408 -21.480 -19.512  0.00  0.00    +0.001 C 
ATOM      6  C   UNL     1      33.187 -20.702 -20.057  0.00  0.00    +0.001 C 
ENDROOT
BRANCH   1   7
ATOM      7  O   UNL     1      35.655 -18.562 -21.706  0.00  0.00    -0.473 OA
BRANCH   7   8
ATOM      8  C   UNL     1      35.235 -17.236 -21.405  0.00  0.00    +0.232 C 
BRANCH   8   9
ATOM      9  C   UNL     1      34.701 -16.587 -22.682  0.00  0.00    +0.133 C 
BRANCH   9  10
ATOM     10  O   UNL     1      35.809 -16.277 -23.531  0.00  0.00    -0.383 OA
ATOM     11  H   UNL     1      36.630 -16.588 -23.119  0.00  0.00    +0.210 HD
ENDBRANCH   9  10
BRANCH   9  12
ATOM     12  C   UNL     1      33.922 -15.295 -22.424  0.00  0.00    -0.048 C 
BRANCH  12  13
ATOM     13  N   UNL     1      34.443 -14.177 -23.197  0.00  0.00    +0.387 N 
ATOM     14  H   UNL     1      35.170 -14.517 -23.827  0.00  0.00    -0.084 HD
ATOM     15  H   UNL     1      34.826 -13.485 -22.552  0.00  0.00    -0.084 HD
BRANCH  13  16
ATOM     16  C   UNL     1      33.389 -13.548 -23.981  0.00  0.00    -0.062 C 
ATOM     17  C   UNL     1      33.827 -12.145 -24.389  0.00  0.00    -0.023 C 
ATOM     18  C   UNL     1      33.061 -14.398 -25.205  0.00  0.00    -0.023 C 
ENDBRANCH  13  16
ENDBRANCH  12  13
ENDBRANCH   9  12
ENDBRANCH   8   9
ENDBRANCH   7   8
ENDBRANCH   1   7
BRANCH   2  19
ATOM     19  C   UNL     1      33.438 -22.693 -18.566  0.00  0.00    +0.169 C 
BRANCH  19  20
ATOM     20  O   UNL     1      34.378 -23.092 -17.577  0.00  0.00    -0.346 OA
BRANCH  20  21
ATOM     21  C   UNL     1      33.745 -23.354 -16.333  0.00  0.00    +0.175 C 
BRANCH  21  22
ATOM     22  C   UNL     1      34.789 -23.336 -15.233  0.00  0.00    +0.174 C 
BRANCH  22  23
ATOM     23  O   UNL     1      35.959 -24.004 -15.693  0.00  0.00    -0.354 OA
BRANCH  23  24
ATOM     24  C   UNL     1      37.139 -23.327 -15.285  0.00  0.00    +0.115 C 
ATOM     25  C   UNL     1      37.530 -22.314 -16.351  0.00  0.00    +0.032 C 
ATOM     26  C   UNL     1      38.241 -24.346 -15.039  0.00  0.00    +0.032 C 
ENDBRANCH  23  24
ENDBRANCH  22  23
ENDBRANCH  21  22
ENDBRANCH  20  21
ENDBRANCH  19  20
ENDBRANCH   2  19
TORSDOF 13
ENDMDL
MODEL 6
REMARK VINA RESULT:      -8.3      2.527      3.958
REMARK  Name = 2405
REMARK  13 active torsions:
REMARK  status: ('A' for Active; 'I' for Inactive)
REMARK    1  A    between atoms: C_1  and  O_7
REMARK    2  A    between atoms: C_2  and  C_19
REMARK    3  A    between atoms: O_7  and  C_8
REMARK    4  A    between atoms: C_8  and  C_9
REMARK    5  A    between atoms: C_9  and  O_10
REMARK    6  A    between atoms: C_9  and  C_12
REMARK    7  A    between atoms: C_12  and  N_13
REMARK    8  A    between atoms: N_13  and  C_16
REMARK    9  A    between atoms: C_19  and  O_20
REMARK   10  A    between atoms: O_20  and  C_21
REMARK   11  A    between atoms: C_21  and  C_22
REMARK   12  A    between atoms: C_22  and  O_23
REMARK   13  A    between atoms: O_23  and  C_24
REMARK                            x       y       z     vdW  Elec       q    Type
REMARK                         _______ _______ _______ _____ _____    ______ ____
ROOT
ATOM      1  C   UNL     1      35.194 -19.489 -21.017  0.00  0.00    +0.139 C 
ATOM      2  C   UNL     1      34.066 -21.500 -19.461  0.00  0.00    +0.007 C 
ATOM      3  C   UNL     1      33.811 -19.589 -20.917  0.00  0.00    +0.037 C 
ATOM      4  C   UNL     1      36.019 -20.386 -20.346  0.00  0.00    +0.037 C 
ATOM      5  C   UNL     1      33.245 -20.597 -20.137  0.00  0.00    +0.001 C 
ATOM      6  C   UNL     1      35.453 -21.394 -19.566  0.00  0.00    +0.001 C 
ENDROOT
BRANCH   1   7
ATOM      7  O   UNL     1      35.749 -18.499 -21.784  0.00  0.00    -0.473 OA
BRANCH   7   8
ATOM      8  C   UNL     1      35.389 -18.478 -23.161  0.00  0.00    +0.232 C 
BRANCH   8   9
ATOM      9  C   UNL     1      34.751 -17.128 -23.484  0.00  0.00    +0.133 C 
BRANCH   9  10
ATOM     10  O   UNL     1      35.334 -16.627 -24.690  0.00  0.00    -0.383 OA
ATOM     11  H   UNL     1      35.675 -15.732 -24.537  0.00  0.00    +0.210 HD
ENDBRANCH   9  10
BRANCH   9  12
ATOM     12  C   UNL     1      34.957 -16.083 -22.385  0.00  0.00    -0.048 C 
BRANCH  12  13
ATOM     13  N   UNL     1      34.355 -14.802 -22.727  0.00  0.00    +0.387 N 
ATOM     14  H   UNL     1      34.467 -14.637 -23.727  0.00  0.00    -0.084 HD
ATOM     15  H   UNL     1      34.821 -14.069 -22.191  0.00  0.00    -0.084 HD
BRANCH  13  16
ATOM     16  C   UNL     1      32.937 -14.788 -22.397  0.00  0.00    -0.062 C 
ATOM     17  C   UNL     1      32.747 -15.236 -20.951  0.00  0.00    -0.023 C 
ATOM     18  C   UNL     1      32.355 -13.395 -22.620  0.00  0.00    -0.023 C 
ENDBRANCH  13  16
ENDBRANCH  12  13
ENDBRANCH   9  12
ENDBRANCH   8   9
ENDBRANCH   7   8
ENDBRANCH   1   7
BRANCH   2  19
ATOM     19  C   UNL     1      33.461 -22.578 -18.628  0.00  0.00    +0.169 C 
BRANCH  19  20
ATOM     20  O   UNL     1      34.408 -23.017 -17.661  0.00  0.00    -0.346 OA
BRANCH  20  21
ATOM     21  C   UNL     1      33.772 -23.422 -16.457  0.00  0.00    +0.175 C 
BRANCH  21  22
ATOM     22  C   UNL     1      34.769 -23.333 -15.318  0.00  0.00    +0.174 C 
BRANCH  22  23
ATOM     23  O   UNL     1      35.932 -24.080 -15.658  0.00  0.00    -0.354 OA
BRANCH  23  24
ATOM     24  C   UNL     1      37.114 -23.441 -15.199  0.00  0.00    +0.115 C 
ATOM     25  C   UNL     1      37.571 -22.426 -16.238  0.00  0.00    +0.032 C 
ATOM     26  C   UNL     1      38.179 -24.493 -14.928  0.00  0.00    +0.032 C 
ENDBRANCH  23  24
ENDBRANCH  22  23
ENDBRANCH  21  22
ENDBRANCH  20  21
ENDBRANCH  19  20
ENDBRANCH   2  19
TORSDOF 13
ENDMDL
MODEL 7
REMARK VINA RESULT:      -8.3      2.758      9.374
REMARK  Name = 2405
REMARK  13 active torsions:
REMARK  status: ('A' for Active; 'I' for Inactive)
REMARK    1  A    between atoms: C_1  and  O_7
REMARK    2  A    between atoms: C_2  and  C_19
REMARK    3  A    between atoms: O_7  and  C_8
REMARK    4  A    between atoms: C_8  and  C_9
REMARK    5  A    between atoms: C_9  and  O_10
REMARK    6  A    between atoms: C_9  and  C_12
REMARK    7  A    between atoms: C_12  and  N_13
REMARK    8  A    between atoms: N_13  and  C_16
REMARK    9  A    between atoms: C_19  and  O_20
REMARK   10  A    between atoms: O_20  and  C_21
REMARK   11  A    between atoms: C_21  and  C_22
REMARK   12  A    between atoms: C_22  and  O_23
REMARK   13  A    between atoms: O_23  and  C_24
REMARK                            x       y       z     vdW  Elec       q    Type
REMARK                         _______ _______ _______ _____ _____    ______ ____
ROOT
ATOM      1  C   UNL     1      33.490 -21.438 -19.443  0.00  0.00    +0.139 C 
ATOM      2  C   UNL     1      35.029 -19.660 -20.929  0.00  0.00    +0.007 C 
ATOM      3  C   UNL     1      32.868 -20.429 -20.170  0.00  0.00    +0.037 C 
ATOM      4  C   UNL     1      34.876 -21.566 -19.452  0.00  0.00    +0.037 C 
ATOM      5  C   UNL     1      33.640 -19.537 -20.915  0.00  0.00    +0.001 C 
ATOM      6  C   UNL     1      35.647 -20.674 -20.197  0.00  0.00    +0.001 C 
ENDROOT
BRANCH   1   7
ATOM      7  O   UNL     1      32.732 -22.313 -18.711  0.00  0.00    -0.473 OA
BRANCH   7   8
ATOM      8  C   UNL     1      33.435 -23.193 -17.840  0.00  0.00    +0.232 C 
BRANCH   8   9
ATOM      9  C   UNL     1      32.865 -23.049 -16.429  0.00  0.00    +0.133 C 
BRANCH   9  10
ATOM     10  O   UNL     1      33.747 -23.705 -15.514  0.00  0.00    -0.383 OA
ATOM     11  H   UNL     1      33.230 -24.264 -14.911  0.00  0.00    +0.210 HD
ENDBRANCH   9  10
BRANCH   9  12
ATOM     12  C   UNL     1      31.472 -23.664 -16.273  0.00  0.00    -0.048 C 
BRANCH  12  13
ATOM     13  N   UNL     1      30.422 -22.762 -16.725  0.00  0.00    +0.387 N 
ATOM     14  H   UNL     1      30.168 -22.999 -17.684  0.00  0.00    -0.084 HD
ATOM     15  H   UNL     1      30.772 -21.804 -16.677  0.00  0.00    -0.084 HD
BRANCH  13  16
ATOM     16  C   UNL     1      29.242 -22.869 -15.878  0.00  0.00    -0.062 C 
ATOM     17  C   UNL     1      28.007 -22.456 -16.672  0.00  0.00    -0.023 C 
ATOM     18  C   UNL     1      29.102 -24.292 -15.346  0.00  0.00    -0.023 C 
ENDBRANCH  13  16
ENDBRANCH  12  13
ENDBRANCH   9  12
ENDBRANCH   8   9
ENDBRANCH   7   8
ENDBRANCH   1   7
BRANCH   2  19
ATOM     19  C   UNL     1      35.853 -18.706 -21.725  0.00  0.00    +0.169 C 
BRANCH  19  20
ATOM     20  O   UNL     1      35.007 -17.949 -22.582  0.00  0.00    -0.346 OA
BRANCH  20  21
ATOM     21  C   UNL     1      35.228 -18.271 -23.948  0.00  0.00    +0.175 C 
BRANCH  21  22
ATOM     22  C   UNL     1      34.694 -17.145 -24.813  0.00  0.00    +0.174 C 
BRANCH  22  23
ATOM     23  O   UNL     1      34.777 -15.923 -24.088  0.00  0.00    -0.354 OA
BRANCH  23  24
ATOM     24  C   UNL     1      33.615 -15.128 -24.273  0.00  0.00    +0.115 C 
ATOM     25  C   UNL     1      33.269 -15.084 -25.755  0.00  0.00    +0.032 C 
ATOM     26  C   UNL     1      33.865 -13.738 -23.708  0.00  0.00    +0.032 C 
ENDBRANCH  23  24
ENDBRANCH  22  23
ENDBRANCH  21  22
ENDBRANCH  20  21
ENDBRANCH  19  20
ENDBRANCH   2  19
TORSDOF 13
ENDMDL
MODEL 8
REMARK VINA RESULT:      -8.2      1.525      2.072
REMARK  Name = 2405
REMARK  13 active torsions:
REMARK  status: ('A' for Active; 'I' for Inactive)
REMARK    1  A    between atoms: C_1  and  O_7
REMARK    2  A    between atoms: C_2  and  C_19
REMARK    3  A    between atoms: O_7  and  C_8
REMARK    4  A    between atoms: C_8  and  C_9
REMARK    5  A    between atoms: C_9  and  O_10
REMARK    6  A    between atoms: C_9  and  C_12
REMARK    7  A    between atoms: C_12  and  N_13
REMARK    8  A    between atoms: N_13  and  C_16
REMARK    9  A    between atoms: C_19  and  O_20
REMARK   10  A    between atoms: O_20  and  C_21
REMARK   11  A    between atoms: C_21  and  C_22
REMARK   12  A    between atoms: C_22  and  O_23
REMARK   13  A    between atoms: O_23  and  C_24
REMARK                            x       y       z     vdW  Elec       q    Type
REMARK                         _______ _______ _______ _____ _____    ______ ____
ROOT
ATOM      1  C   UNL     1      34.963 -19.415 -21.222  0.00  0.00    +0.139 C 
ATOM      2  C   UNL     1      33.978 -21.399 -19.539  0.00  0.00    +0.007 C 
ATOM      3  C   UNL     1      33.591 -19.536 -21.029  0.00  0.00    +0.037 C 
ATOM      4  C   UNL     1      35.847 -20.277 -20.581  0.00  0.00    +0.037 C 
ATOM      5  C   UNL     1      33.097 -20.532 -20.186  0.00  0.00    +0.001 C 
ATOM      6  C   UNL     1      35.353 -21.271 -19.737  0.00  0.00    +0.001 C 
ENDROOT
BRANCH   1   7
ATOM      7  O   UNL     1      35.448 -18.439 -22.051  0.00  0.00    -0.473 OA
BRANCH   7   8
ATOM      8  C   UNL     1      35.343 -18.678 -23.451  0.00  0.00    +0.232 C 
BRANCH   8   9
ATOM      9  C   UNL     1      34.562 -17.531 -24.090  0.00  0.00    +0.133 C 
BRANCH   9  10
ATOM     10  O   UNL     1      34.749 -17.587 -25.507  0.00  0.00    -0.383 OA
ATOM     11  H   UNL     1      33.897 -17.458 -25.951  0.00  0.00    +0.210 HD
ENDBRANCH   9  10
BRANCH   9  12
ATOM     12  C   UNL     1      35.007 -16.150 -23.604  0.00  0.00    -0.048 C 
BRANCH  12  13
ATOM     13  N   UNL     1      34.392 -15.791 -22.334  0.00  0.00    +0.387 N 
ATOM     14  H   UNL     1      35.097 -15.370 -21.729  0.00  0.00    -0.084 HD
ATOM     15  H   UNL     1      34.015 -16.637 -21.905  0.00  0.00    -0.084 HD
BRANCH  13  16
ATOM     16  C   UNL     1      33.304 -14.844 -22.530  0.00  0.00    -0.062 C 
ATOM     17  C   UNL     1      32.751 -14.417 -21.174  0.00  0.00    -0.023 C 
ATOM     18  C   UNL     1      33.790 -13.639 -23.328  0.00  0.00    -0.023 C 
ENDBRANCH  13  16
ENDBRANCH  12  13
ENDBRANCH   9  12
ENDBRANCH   8   9
ENDBRANCH   7   8
ENDBRANCH   1   7
BRANCH   2  19
ATOM     19  C   UNL     1      33.450 -22.462 -18.638  0.00  0.00    +0.169 C 
BRANCH  19  20
ATOM     20  O   UNL     1      34.512 -22.987 -17.851  0.00  0.00    -0.346 OA
BRANCH  20  21
ATOM     21  C   UNL     1      34.106 -23.203 -16.507  0.00  0.00    +0.175 C 
BRANCH  21  22
ATOM     22  C   UNL     1      32.591 -23.203 -16.442  0.00  0.00    +0.174 C 
BRANCH  22  23
ATOM     23  O   UNL     1      32.174 -24.002 -15.340  0.00  0.00    -0.354 OA
BRANCH  23  24
ATOM     24  C   UNL     1      30.790 -23.831 -15.067  0.00  0.00    +0.115 C 
ATOM     25  C   UNL     1      30.137 -25.197 -14.918  0.00  0.00    +0.032 C 
ATOM     26  C   UNL     1      30.157 -23.018 -16.186  0.00  0.00    +0.032 C 
ENDBRANCH  23  24
ENDBRANCH  22  23
ENDBRANCH  21  22
ENDBRANCH  20  21
ENDBRANCH  19  20
ENDBRANCH   2  19
TORSDOF 13
ENDMDL
MODEL 9
REMARK VINA RESULT:      -8.2      4.432      9.997
REMARK  Name = 2405
REMARK  13 active torsions:
REMARK  status: ('A' for Active; 'I' for Inactive)
REMARK    1  A    between atoms: C_1  and  O_7
REMARK    2  A    between atoms: C_2  and  C_19
REMARK    3  A    between atoms: O_7  and  C_8
REMARK    4  A    between atoms: C_8  and  C_9
REMARK    5  A    between atoms: C_9  and  O_10
REMARK    6  A    between atoms: C_9  and  C_12
REMARK    7  A    between atoms: C_12  and  N_13
REMARK    8  A    between atoms: N_13  and  C_16
REMARK    9  A    between atoms: C_19  and  O_20
REMARK   10  A    between atoms: O_20  and  C_21
REMARK   11  A    between atoms: C_21  and  C_22
REMARK   12  A    between atoms: C_22  and  O_23
REMARK   13  A    between atoms: O_23  and  C_24
REMARK                            x       y       z     vdW  Elec       q    Type
REMARK                         _______ _______ _______ _____ _____    ______ ____
ROOT
ATOM      1  C   UNL     1      35.047 -21.926 -18.630  0.00  0.00    +0.139 C 
ATOM      2  C   UNL     1      34.810 -20.165 -20.771  0.00  0.00    +0.007 C 
ATOM      3  C   UNL     1      33.786 -21.602 -19.120  0.00  0.00    +0.037 C 
ATOM      4  C   UNL     1      36.191 -21.377 -19.201  0.00  0.00    +0.037 C 
ATOM      5  C   UNL     1      33.668 -20.718 -20.193  0.00  0.00    +0.001 C 
ATOM      6  C   UNL     1      36.071 -20.494 -20.275  0.00  0.00    +0.001 C 
ENDROOT
BRANCH   1   7
ATOM      7  O   UNL     1      35.163 -22.792 -17.576  0.00  0.00    -0.473 OA
BRANCH   7   8
ATOM      8  C   UNL     1      36.211 -22.533 -16.648  0.00  0.00    +0.232 C 
BRANCH   8   9
ATOM      9  C   UNL     1      35.987 -23.387 -15.401  0.00  0.00    +0.133 C 
BRANCH   9  10
ATOM     10  O   UNL     1      35.057 -22.713 -14.549  0.00  0.00    -0.383 OA
ATOM     11  H   UNL     1      34.885 -21.824 -14.897  0.00  0.00    +0.210 HD
ENDBRANCH   9  10
BRANCH   9  12
ATOM     12  C   UNL     1      37.268 -23.640 -14.603  0.00  0.00    -0.048 C 
BRANCH  12  13
ATOM     13  N   UNL     1      38.242 -24.414 -15.361  0.00  0.00    +0.387 N 
ATOM     14  H   UNL     1      38.992 -23.796 -15.670  0.00  0.00    -0.084 HD
ATOM     15  H   UNL     1      37.771 -24.833 -16.164  0.00  0.00    -0.084 HD
BRANCH  13  16
ATOM     16  C   UNL     1      38.808 -25.481 -14.546  0.00  0.00    -0.062 C 
ATOM     17  C   UNL     1      40.325 -25.488 -14.702  0.00  0.00    -0.023 C 
ATOM     18  C   UNL     1      38.407 -25.299 -13.086  0.00  0.00    -0.023 C 
ENDBRANCH  13  16
ENDBRANCH  12  13
ENDBRANCH   9  12
ENDBRANCH   8   9
ENDBRANCH   7   8
ENDBRANCH   1   7
BRANCH   2  19
ATOM     19  C   UNL     1      34.683 -19.221 -21.917  0.00  0.00    +0.169 C 
BRANCH  19  20
ATOM     20  O   UNL     1      35.559 -18.118 -21.722  0.00  0.00    -0.346 OA
BRANCH  20  21
ATOM     21  C   UNL     1      34.900 -17.037 -21.078  0.00  0.00    +0.175 C 
BRANCH  21  22
ATOM     22  C   UNL     1      34.632 -15.944 -22.095  0.00  0.00    +0.174 C 
BRANCH  22  23
ATOM     23  O   UNL     1      35.487 -16.135 -23.217  0.00  0.00    -0.354 OA
BRANCH  23  24
ATOM     24  C   UNL     1      34.789 -15.949 -24.440  0.00  0.00    +0.115 C 
ATOM     25  C   UNL     1      33.557 -15.093 -24.189  0.00  0.00    +0.032 C 
ATOM     26  C   UNL     1      34.427 -17.308 -25.021  0.00  0.00    +0.032 C 
ENDBRANCH  23  24
ENDBRANCH  22  23
ENDBRANCH  21  22
ENDBRANCH  20  21
ENDBRANCH  19  20
ENDBRANCH   2  19
TORSDOF 13
ENDMDL
