MODEL 1
REMARK VINA RESULT:      -9.8      0.000      0.000
REMARK  Name = 447682
REMARK  3 active torsions:
REMARK  status: ('A' for Active; 'I' for Inactive)
REMARK    1  A    between atoms: C_5  and  C_20
REMARK    2  A    between atoms: C_20  and  C_22
REMARK    3  A    between atoms: C_22  and  O_23
REMARK                            x       y       z     vdW  Elec       q    Type
REMARK                         _______ _______ _______ _____ _____    ______ ____
ROOT
ATOM      1  O   UNL     1      38.239 -23.096 -15.723  0.00  0.00    -0.267 OA
ATOM      2  N   UNL     1      34.269 -23.372 -14.928  0.00  0.00    -0.293 N 
ATOM      3  N   UNL     1      36.085 -23.139 -16.497  0.00  0.00    -0.308 N 
ATOM      4  C   UNL     1      34.744 -23.220 -16.215  0.00  0.00    +0.124 A 
ATOM      5  C   UNL     1      33.692 -23.184 -17.091  0.00  0.00    +0.023 A 
ATOM      6  C   UNL     1      32.873 -23.276 -14.967  0.00  0.00    +0.065 A 
ATOM      7  C   UNL     1      32.503 -23.219 -16.324  0.00  0.00    +0.016 A 
ATOM      8  C   UNL     1      35.170 -23.570 -13.847  0.00  0.00    +0.070 A 
ATOM      9  C   UNL     1      36.547 -23.465 -14.122  0.00  0.00    +0.072 A 
ATOM     10  C   UNL     1      31.879 -23.203 -13.972  0.00  0.00    +0.018 C 
ATOM     11  C   UNL     1      37.037 -23.212 -15.501  0.00  0.00    +0.260 A 
ATOM     12  C   UNL     1      31.139 -23.169 -16.681  0.00  0.00    +0.001 C 
ATOM     13  C   UNL     1      34.761 -23.899 -12.553  0.00  0.00    +0.018 C 
ATOM     14  C   UNL     1      37.489 -23.630 -13.097  0.00  0.00    +0.006 C 
ATOM     15  C   UNL     1      30.531 -23.146 -14.350  0.00  0.00    +0.001 C 
ATOM     16  C   UNL     1      30.162 -23.143 -15.686  0.00  0.00    +0.000 C 
ATOM     17  C   UNL     1      35.707 -24.064 -11.536  0.00  0.00    +0.001 C 
ATOM     18  C   UNL     1      37.065 -23.921 -11.804  0.00  0.00    +0.000 C 
ATOM     19  H   UNL     1      36.374 -23.027 -17.432  0.00  0.00    +0.170 HD
ENDROOT
BRANCH   5  20
ATOM     20  C   UNL     1      33.777 -23.083 -18.564  0.00  0.00    +0.139 C 
BRANCH  20  22
ATOM     21  O   UNL     1      32.603 -21.054 -19.226  0.00  0.00    -0.250 OA
ATOM     22  C   UNL     1      33.656 -21.662 -19.093  0.00  0.00    +0.318 C 
BRANCH  22  23
ATOM     23  O   UNL     1      34.864 -21.126 -19.411  0.00  0.00    -0.480 OA
ATOM     24  H   UNL     1      35.541 -21.079 -18.763  0.00  0.00    +0.295 HD
ENDBRANCH  22  23
ENDBRANCH  20  22
ENDBRANCH   5  20
TORSDOF 3
ENDMDL
MODEL 2
REMARK VINA RESULT:      -9.7      2.962      6.348
REMARK  Name = 447682
REMARK  3 active torsions:
REMARK  status: ('A' for Active; 'I' for Inactive)
REMARK    1  A    between atoms: C_5  and  C_20
REMARK    2  A    between atoms: C_20  and  C_22
REMARK    3  A    between atoms: C_22  and  O_23
REMARK                            x       y       z     vdW  Elec       q    Type
REMARK                         _______ _______ _______ _____ _____    ______ ____
ROOT
ATOM      1  O   UNL     1      31.077 -25.048 -12.847  0.00  0.00    -0.267 OA
ATOM      2  N   UNL     1      34.083 -23.640 -15.182  0.00  0.00    -0.293 N 
ATOM      3  N   UNL     1      33.321 -24.901 -13.272  0.00  0.00    -0.308 N 
ATOM      4  C   UNL     1      34.331 -24.408 -14.062  0.00  0.00    +0.124 A 
ATOM      5  C   UNL     1      35.682 -24.580 -13.914  0.00  0.00    +0.023 A 
ATOM      6  C   UNL     1      35.310 -23.182 -15.675  0.00  0.00    +0.065 A 
ATOM      7  C   UNL     1      36.317 -23.816 -14.922  0.00  0.00    +0.016 A 
ATOM      8  C   UNL     1      32.750 -23.429 -15.629  0.00  0.00    +0.070 A 
ATOM      9  C   UNL     1      31.708 -23.910 -14.814  0.00  0.00    +0.072 A 
ATOM     10  C   UNL     1      35.669 -22.261 -16.678  0.00  0.00    +0.018 C 
ATOM     11  C   UNL     1      31.995 -24.658 -13.563  0.00  0.00    +0.260 A 
ATOM     12  C   UNL     1      37.675 -23.586 -15.227  0.00  0.00    +0.001 C 
ATOM     13  C   UNL     1      32.432 -22.811 -16.840  0.00  0.00    +0.018 C 
ATOM     14  C   UNL     1      30.371 -23.717 -15.186  0.00  0.00    +0.006 C 
ATOM     15  C   UNL     1      37.024 -22.043 -16.958  0.00  0.00    +0.001 C 
ATOM     16  C   UNL     1      38.016 -22.706 -16.252  0.00  0.00    +0.000 C 
ATOM     17  C   UNL     1      31.095 -22.625 -17.206  0.00  0.00    +0.001 C 
ATOM     18  C   UNL     1      30.068 -23.066 -16.378  0.00  0.00    +0.000 C 
ATOM     19  H   UNL     1      33.550 -25.441 -12.482  0.00  0.00    +0.170 HD
ENDROOT
BRANCH   5  20
ATOM     20  C   UNL     1      36.357 -25.381 -12.870  0.00  0.00    +0.139 C 
BRANCH  20  22
ATOM     21  O   UNL     1      37.206 -23.987 -11.062  0.00  0.00    -0.250 OA
ATOM     22  C   UNL     1      36.340 -24.736 -11.492  0.00  0.00    +0.318 C 
BRANCH  22  23
ATOM     23  O   UNL     1      35.242 -25.087 -10.771  0.00  0.00    -0.480 OA
ATOM     24  H   UNL     1      34.790 -25.885 -10.965  0.00  0.00    +0.295 HD
ENDBRANCH  22  23
ENDBRANCH  20  22
ENDBRANCH   5  20
TORSDOF 3
ENDMDL
MODEL 3
REMARK VINA RESULT:      -9.7      2.582      5.118
REMARK  Name = 447682
REMARK  3 active torsions:
REMARK  status: ('A' for Active; 'I' for Inactive)
REMARK    1  A    between atoms: C_5  and  C_20
REMARK    2  A    between atoms: C_20  and  C_22
REMARK    3  A    between atoms: C_22  and  O_23
REMARK                            x       y       z     vdW  Elec       q    Type
REMARK                         _______ _______ _______ _____ _____    ______ ____
ROOT
ATOM      1  O   UNL     1      33.910 -24.378 -12.476  0.00  0.00    -0.267 OA
ATOM      2  N   UNL     1      33.759 -23.105 -16.327  0.00  0.00    -0.293 N 
ATOM      3  N   UNL     1      35.014 -23.618 -14.332  0.00  0.00    -0.308 N 
ATOM      4  C   UNL     1      34.949 -23.176 -15.631  0.00  0.00    +0.124 A 
ATOM      5  C   UNL     1      35.978 -22.764 -16.436  0.00  0.00    +0.023 A 
ATOM      6  C   UNL     1      34.013 -22.488 -17.556  0.00  0.00    +0.065 A 
ATOM      7  C   UNL     1      35.408 -22.327 -17.656  0.00  0.00    +0.016 A 
ATOM      8  C   UNL     1      32.559 -23.606 -15.753  0.00  0.00    +0.070 A 
ATOM      9  C   UNL     1      32.610 -24.038 -14.415  0.00  0.00    +0.072 A 
ATOM     10  C   UNL     1      33.184 -22.018 -18.595  0.00  0.00    +0.018 C 
ATOM     11  C   UNL     1      33.885 -24.023 -13.651  0.00  0.00    +0.260 A 
ATOM     12  C   UNL     1      35.973 -21.770 -18.823  0.00  0.00    +0.001 C 
ATOM     13  C   UNL     1      31.359 -23.723 -16.457  0.00  0.00    +0.018 C 
ATOM     14  C   UNL     1      31.458 -24.523 -13.782  0.00  0.00    +0.006 C 
ATOM     15  C   UNL     1      33.766 -21.462 -19.741  0.00  0.00    +0.001 C 
ATOM     16  C   UNL     1      35.143 -21.351 -19.862  0.00  0.00    +0.000 C 
ATOM     17  C   UNL     1      30.214 -24.211 -15.820  0.00  0.00    +0.001 C 
ATOM     18  C   UNL     1      30.259 -24.600 -14.485  0.00  0.00    +0.000 C 
ATOM     19  H   UNL     1      35.887 -23.647 -13.877  0.00  0.00    +0.170 HD
ENDROOT
BRANCH   5  20
ATOM     20  C   UNL     1      37.414 -22.739 -16.085  0.00  0.00    +0.139 C 
BRANCH  20  22
ATOM     21  O   UNL     1      38.002 -23.390 -13.813  0.00  0.00    -0.250 OA
ATOM     22  C   UNL     1      37.795 -23.708 -14.976  0.00  0.00    +0.318 C 
BRANCH  22  23
ATOM     23  O   UNL     1      37.886 -24.989 -15.419  0.00  0.00    -0.480 OA
ATOM     24  H   UNL     1      38.699 -25.312 -15.757  0.00  0.00    +0.295 HD
ENDBRANCH  22  23
ENDBRANCH  20  22
ENDBRANCH   5  20
TORSDOF 3
ENDMDL
MODEL 4
REMARK VINA RESULT:      -9.2      1.974      5.003
REMARK  Name = 447682
REMARK  3 active torsions:
REMARK  status: ('A' for Active; 'I' for Inactive)
REMARK    1  A    between atoms: C_5  and  C_20
REMARK    2  A    between atoms: C_20  and  C_22
REMARK    3  A    between atoms: C_22  and  O_23
REMARK                            x       y       z     vdW  Elec       q    Type
REMARK                         _______ _______ _______ _____ _____    ______ ____
ROOT
ATOM      1  O   UNL     1      37.805 -22.235 -16.674  0.00  0.00    -0.267 OA
ATOM      2  N   UNL     1      33.911 -23.200 -16.056  0.00  0.00    -0.293 N 
ATOM      3  N   UNL     1      36.171 -22.967 -15.247  0.00  0.00    -0.308 N 
ATOM      4  C   UNL     1      34.854 -23.303 -15.054  0.00  0.00    +0.124 A 
ATOM      5  C   UNL     1      34.257 -23.760 -13.908  0.00  0.00    +0.023 A 
ATOM      6  C   UNL     1      32.714 -23.749 -15.584  0.00  0.00    +0.065 A 
ATOM      7  C   UNL     1      32.907 -24.046 -14.222  0.00  0.00    +0.016 A 
ATOM      8  C   UNL     1      34.254 -22.621 -17.309  0.00  0.00    +0.070 A 
ATOM      9  C   UNL     1      35.605 -22.296 -17.526  0.00  0.00    +0.072 A 
ATOM     10  C   UNL     1      31.480 -24.053 -16.193  0.00  0.00    +0.018 C 
ATOM     11  C   UNL     1      36.624 -22.498 -16.462  0.00  0.00    +0.260 A 
ATOM     12  C   UNL     1      31.844 -24.571 -13.456  0.00  0.00    +0.001 C 
ATOM     13  C   UNL     1      33.319 -22.330 -18.304  0.00  0.00    +0.018 C 
ATOM     14  C   UNL     1      36.014 -21.741 -18.746  0.00  0.00    +0.006 C 
ATOM     15  C   UNL     1      30.442 -24.581 -15.416  0.00  0.00    +0.001 C 
ATOM     16  C   UNL     1      30.614 -24.825 -14.061  0.00  0.00    +0.000 C 
ATOM     17  C   UNL     1      33.734 -21.774 -19.518  0.00  0.00    +0.001 C 
ATOM     18  C   UNL     1      35.077 -21.489 -19.744  0.00  0.00    +0.000 C 
ATOM     19  H   UNL     1      36.806 -23.062 -14.501  0.00  0.00    +0.170 HD
ENDROOT
BRANCH   5  20
ATOM     20  C   UNL     1      34.909 -23.959 -12.596  0.00  0.00    +0.139 C 
BRANCH  20  22
ATOM     21  O   UNL     1      36.511 -25.504 -13.586  0.00  0.00    -0.250 OA
ATOM     22  C   UNL     1      35.957 -25.062 -12.589  0.00  0.00    +0.318 C 
BRANCH  22  23
ATOM     23  O   UNL     1      36.219 -25.518 -11.335  0.00  0.00    -0.480 OA
ATOM     24  H   UNL     1      35.721 -25.199 -10.608  0.00  0.00    +0.295 HD
ENDBRANCH  22  23
ENDBRANCH  20  22
ENDBRANCH   5  20
TORSDOF 3
ENDMDL
MODEL 5
REMARK VINA RESULT:      -9.1      8.669     11.522
REMARK  Name = 447682
REMARK  3 active torsions:
REMARK  status: ('A' for Active; 'I' for Inactive)
REMARK    1  A    between atoms: C_5  and  C_20
REMARK    2  A    between atoms: C_20  and  C_22
REMARK    3  A    between atoms: C_22  and  O_23
REMARK                            x       y       z     vdW  Elec       q    Type
REMARK                         _______ _______ _______ _____ _____    ______ ____
ROOT
ATOM      1  O   UNL     1      35.345 -17.637 -25.905  0.00  0.00    -0.267 OA
ATOM      2  N   UNL     1      33.587 -15.505 -22.932  0.00  0.00    -0.293 N 
ATOM      3  N   UNL     1      34.253 -15.739 -25.238  0.00  0.00    -0.308 N 
ATOM      4  C   UNL     1      33.672 -15.021 -24.221  0.00  0.00    +0.124 A 
ATOM      5  C   UNL     1      33.093 -13.781 -24.286  0.00  0.00    +0.023 A 
ATOM      6  C   UNL     1      33.079 -14.486 -22.119  0.00  0.00    +0.065 A 
ATOM      7  C   UNL     1      32.711 -13.427 -22.970  0.00  0.00    +0.016 A 
ATOM      8  C   UNL     1      33.999 -16.833 -22.633  0.00  0.00    +0.070 A 
ATOM      9  C   UNL     1      34.616 -17.568 -23.662  0.00  0.00    +0.072 A 
ATOM     10  C   UNL     1      32.918 -14.347 -20.726  0.00  0.00    +0.018 C 
ATOM     11  C   UNL     1      34.780 -16.995 -25.023  0.00  0.00    +0.260 A 
ATOM     12  C   UNL     1      32.114 -12.266 -22.433  0.00  0.00    +0.001 C 
ATOM     13  C   UNL     1      33.786 -17.445 -21.397  0.00  0.00    +0.018 C 
ATOM     14  C   UNL     1      35.064 -18.875 -23.429  0.00  0.00    +0.006 C 
ATOM     15  C   UNL     1      32.330 -13.182 -20.216  0.00  0.00    +0.001 C 
ATOM     16  C   UNL     1      31.919 -12.160 -21.057  0.00  0.00    +0.000 C 
ATOM     17  C   UNL     1      34.233 -18.751 -21.172  0.00  0.00    +0.001 C 
ATOM     18  C   UNL     1      34.879 -19.461 -22.180  0.00  0.00    +0.000 C 
ATOM     19  H   UNL     1      34.292 -15.348 -26.141  0.00  0.00    +0.170 HD
ENDROOT
BRANCH   5  20
ATOM     20  C   UNL     1      32.933 -12.946 -25.495  0.00  0.00    +0.139 C 
BRANCH  20  22
ATOM     21  O   UNL     1      33.782 -13.597 -27.683  0.00  0.00    -0.250 OA
ATOM     22  C   UNL     1      32.951 -13.735 -26.796  0.00  0.00    +0.318 C 
BRANCH  22  23
ATOM     23  O   UNL     1      31.929 -14.627 -26.873  0.00  0.00    -0.480 OA
ATOM     24  H   UNL     1      31.612 -14.905 -27.711  0.00  0.00    +0.295 HD
ENDBRANCH  22  23
ENDBRANCH  20  22
ENDBRANCH   5  20
TORSDOF 3
ENDMDL
MODEL 6
REMARK VINA RESULT:      -9.0      8.936     12.185
REMARK  Name = 447682
REMARK  3 active torsions:
REMARK  status: ('A' for Active; 'I' for Inactive)
REMARK    1  A    between atoms: C_5  and  C_20
REMARK    2  A    between atoms: C_20  and  C_22
REMARK    3  A    between atoms: C_22  and  O_23
REMARK                            x       y       z     vdW  Elec       q    Type
REMARK                         _______ _______ _______ _____ _____    ______ ____
ROOT
ATOM      1  O   UNL     1      34.774 -15.729 -19.740  0.00  0.00    -0.267 OA
ATOM      2  N   UNL     1      34.084 -15.232 -23.708  0.00  0.00    -0.293 N 
ATOM      3  N   UNL     1      34.254 -14.332 -21.477  0.00  0.00    -0.308 N 
ATOM      4  C   UNL     1      34.010 -14.179 -22.820  0.00  0.00    +0.124 A 
ATOM      5  C   UNL     1      33.683 -13.032 -23.494  0.00  0.00    +0.023 A 
ATOM      6  C   UNL     1      33.644 -14.778 -24.957  0.00  0.00    +0.065 A 
ATOM      7  C   UNL     1      33.449 -13.389 -24.844  0.00  0.00    +0.016 A 
ATOM      8  C   UNL     1      34.538 -16.508 -23.275  0.00  0.00    +0.070 A 
ATOM      9  C   UNL     1      34.768 -16.682 -21.898  0.00  0.00    +0.072 A 
ATOM     10  C   UNL     1      33.362 -15.422 -26.178  0.00  0.00    +0.018 C 
ATOM     11  C   UNL     1      34.596 -15.557 -20.943  0.00  0.00    +0.260 A 
ATOM     12  C   UNL     1      33.049 -12.639 -25.970  0.00  0.00    +0.001 C 
ATOM     13  C   UNL     1      34.800 -17.568 -24.145  0.00  0.00    +0.018 C 
ATOM     14  C   UNL     1      35.197 -17.920 -21.402  0.00  0.00    +0.006 C 
ATOM     15  C   UNL     1      32.958 -14.658 -27.280  0.00  0.00    +0.001 C 
ATOM     16  C   UNL     1      32.817 -13.282 -27.184  0.00  0.00    +0.000 C 
ATOM     17  C   UNL     1      35.231 -18.800 -23.643  0.00  0.00    +0.001 C 
ATOM     18  C   UNL     1      35.419 -18.980 -22.276  0.00  0.00    +0.000 C 
ATOM     19  H   UNL     1      34.185 -13.550 -20.884  0.00  0.00    +0.170 HD
ENDROOT
BRANCH   5  20
ATOM     20  C   UNL     1      33.555 -11.677 -22.915  0.00  0.00    +0.139 C 
BRANCH  20  22
ATOM     21  O   UNL     1      31.639 -10.219 -22.545  0.00  0.00    -0.250 OA
ATOM     22  C   UNL     1      32.144 -11.330 -22.463  0.00  0.00    +0.318 C 
BRANCH  22  23
ATOM     23  O   UNL     1      31.489 -12.404 -21.947  0.00  0.00    -0.480 OA
ATOM     24  H   UNL     1      30.931 -12.298 -21.201  0.00  0.00    +0.295 HD
ENDBRANCH  22  23
ENDBRANCH  20  22
ENDBRANCH   5  20
TORSDOF 3
ENDMDL
MODEL 7
REMARK VINA RESULT:      -8.6     12.142     15.222
REMARK  Name = 447682
REMARK  3 active torsions:
REMARK  status: ('A' for Active; 'I' for Inactive)
REMARK    1  A    between atoms: C_5  and  C_20
REMARK    2  A    between atoms: C_20  and  C_22
REMARK    3  A    between atoms: C_22  and  O_23
REMARK                            x       y       z     vdW  Elec       q    Type
REMARK                         _______ _______ _______ _____ _____    ______ ____
ROOT
ATOM      1  O   UNL     1      30.872 -10.644 -19.253  0.00  0.00    -0.267 OA
ATOM      2  N   UNL     1      32.973 -10.063 -22.677  0.00  0.00    -0.293 N 
ATOM      3  N   UNL     1      31.721 -11.500 -21.199  0.00  0.00    -0.308 N 
ATOM      4  C   UNL     1      32.445 -11.295 -22.347  0.00  0.00    +0.124 A 
ATOM      5  C   UNL     1      32.751 -12.202 -23.328  0.00  0.00    +0.023 A 
ATOM      6  C   UNL     1      33.766 -10.221 -23.819  0.00  0.00    +0.065 A 
ATOM      7  C   UNL     1      33.582 -11.544 -24.265  0.00  0.00    +0.016 A 
ATOM      8  C   UNL     1      32.681  -8.920 -21.883  0.00  0.00    +0.070 A 
ATOM      9  C   UNL     1      31.960  -9.123 -20.692  0.00  0.00    +0.072 A 
ATOM     10  C   UNL     1      34.652  -9.372 -24.509  0.00  0.00    +0.018 C 
ATOM     11  C   UNL     1      31.476 -10.475 -20.309  0.00  0.00    +0.260 A 
ATOM     12  C   UNL     1      34.224 -11.986 -25.442  0.00  0.00    +0.001 C 
ATOM     13  C   UNL     1      33.036  -7.619 -22.246  0.00  0.00    +0.018 C 
ATOM     14  C   UNL     1      31.656  -8.042 -19.854  0.00  0.00    +0.006 C 
ATOM     15  C   UNL     1      35.284  -9.835 -25.670  0.00  0.00    +0.001 C 
ATOM     16  C   UNL     1      35.064 -11.120 -26.141  0.00  0.00    +0.000 C 
ATOM     17  C   UNL     1      32.727  -6.545 -21.406  0.00  0.00    +0.001 C 
ATOM     18  C   UNL     1      32.048  -6.755 -20.209  0.00  0.00    +0.000 C 
ATOM     19  H   UNL     1      31.369 -12.399 -21.007  0.00  0.00    +0.170 HD
ENDROOT
BRANCH   5  20
ATOM     20  C   UNL     1      32.329 -13.618 -23.379  0.00  0.00    +0.139 C 
BRANCH  20  22
ATOM     21  O   UNL     1      34.340 -14.612 -22.431  0.00  0.00    -0.250 OA
ATOM     22  C   UNL     1      33.120 -14.531 -22.455  0.00  0.00    +0.318 C 
BRANCH  22  23
ATOM     23  O   UNL     1      32.315 -15.264 -21.641  0.00  0.00    -0.480 OA
ATOM     24  H   UNL     1      32.672 -15.680 -20.880  0.00  0.00    +0.295 HD
ENDBRANCH  22  23
ENDBRANCH  20  22
ENDBRANCH   5  20
TORSDOF 3
ENDMDL
MODEL 8
REMARK VINA RESULT:      -8.4     10.687     13.945
REMARK  Name = 447682
REMARK  3 active torsions:
REMARK  status: ('A' for Active; 'I' for Inactive)
REMARK    1  A    between atoms: C_5  and  C_20
REMARK    2  A    between atoms: C_20  and  C_22
REMARK    3  A    between atoms: C_22  and  O_23
REMARK                            x       y       z     vdW  Elec       q    Type
REMARK                         _______ _______ _______ _____ _____    ______ ____
ROOT
ATOM      1  O   UNL     1      31.692 -10.542 -18.728  0.00  0.00    -0.267 OA
ATOM      2  N   UNL     1      32.484 -11.723 -22.530  0.00  0.00    -0.293 N 
ATOM      3  N   UNL     1      32.060 -12.245 -20.214  0.00  0.00    -0.308 N 
ATOM      4  C   UNL     1      32.341 -12.631 -21.501  0.00  0.00    +0.124 A 
ATOM      5  C   UNL     1      32.508 -13.902 -21.985  0.00  0.00    +0.023 A 
ATOM      6  C   UNL     1      32.904 -12.419 -23.669  0.00  0.00    +0.065 A 
ATOM      7  C   UNL     1      32.862 -13.789 -23.351  0.00  0.00    +0.016 A 
ATOM      8  C   UNL     1      32.224 -10.342 -22.312  0.00  0.00    +0.070 A 
ATOM      9  C   UNL     1      31.959  -9.932 -20.992  0.00  0.00    +0.072 A 
ATOM     10  C   UNL     1      33.347 -12.015 -24.944  0.00  0.00    +0.018 C 
ATOM     11  C   UNL     1      31.898 -10.916 -19.880  0.00  0.00    +0.260 A 
ATOM     12  C   UNL     1      33.188 -14.751 -24.331  0.00  0.00    +0.001 C 
ATOM     13  C   UNL     1      32.182  -9.395 -23.336  0.00  0.00    +0.018 C 
ATOM     14  C   UNL     1      31.715  -8.583 -20.704  0.00  0.00    +0.006 C 
ATOM     15  C   UNL     1      33.672 -12.987 -25.898  0.00  0.00    +0.001 C 
ATOM     16  C   UNL     1      33.582 -14.338 -25.603  0.00  0.00    +0.000 C 
ATOM     17  C   UNL     1      31.936  -8.050 -23.042  0.00  0.00    +0.001 C 
ATOM     18  C   UNL     1      31.713  -7.642 -21.730  0.00  0.00    +0.000 C 
ATOM     19  H   UNL     1      31.972 -12.931 -19.514  0.00  0.00    +0.170 HD
ENDROOT
BRANCH   5  20
ATOM     20  C   UNL     1      32.384 -15.159 -21.217  0.00  0.00    +0.139 C 
BRANCH  20  22
ATOM     21  O   UNL     1      34.627 -15.229 -20.271  0.00  0.00    -0.250 OA
ATOM     22  C   UNL     1      33.718 -15.798 -20.859  0.00  0.00    +0.318 C 
BRANCH  22  23
ATOM     23  O   UNL     1      33.798 -17.091 -21.270  0.00  0.00    -0.480 OA
ATOM     24  H   UNL     1      33.114 -17.695 -21.053  0.00  0.00    +0.295 HD
ENDBRANCH  22  23
ENDBRANCH  20  22
ENDBRANCH   5  20
TORSDOF 3
ENDMDL
MODEL 9
REMARK VINA RESULT:      -8.4      2.040      5.384
REMARK  Name = 447682
REMARK  3 active torsions:
REMARK  status: ('A' for Active; 'I' for Inactive)
REMARK    1  A    between atoms: C_5  and  C_20
REMARK    2  A    between atoms: C_20  and  C_22
REMARK    3  A    between atoms: C_22  and  O_23
REMARK                            x       y       z     vdW  Elec       q    Type
REMARK                         _______ _______ _______ _____ _____    ______ ____
ROOT
ATOM      1  O   UNL     1      37.493 -21.350 -19.339  0.00  0.00    -0.267 OA
ATOM      2  N   UNL     1      33.995 -22.369 -17.552  0.00  0.00    -0.293 N 
ATOM      3  N   UNL     1      36.404 -22.261 -17.544  0.00  0.00    -0.308 N 
ATOM      4  C   UNL     1      35.215 -22.614 -16.955  0.00  0.00    +0.124 A 
ATOM      5  C   UNL     1      35.019 -23.219 -15.742  0.00  0.00    +0.023 A 
ATOM      6  C   UNL     1      33.002 -22.971 -16.772  0.00  0.00    +0.065 A 
ATOM      7  C   UNL     1      33.630 -23.452 -15.607  0.00  0.00    +0.016 A 
ATOM      8  C   UNL     1      33.922 -21.627 -18.762  0.00  0.00    +0.070 A 
ATOM      9  C   UNL     1      35.136 -21.282 -19.386  0.00  0.00    +0.072 A 
ATOM     10  C   UNL     1      31.621 -23.182 -16.954  0.00  0.00    +0.018 C 
ATOM     11  C   UNL     1      36.442 -21.633 -18.771  0.00  0.00    +0.260 A 
ATOM     12  C   UNL     1      32.863 -24.071 -14.597  0.00  0.00    +0.001 C 
ATOM     13  C   UNL     1      32.722 -21.197 -19.331  0.00  0.00    +0.018 C 
ATOM     14  C   UNL     1      35.135 -20.568 -20.592  0.00  0.00    +0.006 C 
ATOM     15  C   UNL     1      30.881 -23.806 -15.941  0.00  0.00    +0.001 C 
ATOM     16  C   UNL     1      31.489 -24.233 -14.770  0.00  0.00    +0.000 C 
ATOM     17  C   UNL     1      32.729 -20.483 -20.534  0.00  0.00    +0.001 C 
ATOM     18  C   UNL     1      33.929 -20.177 -21.168  0.00  0.00    +0.000 C 
ATOM     19  H   UNL     1      37.249 -22.461 -17.079  0.00  0.00    +0.170 HD
ENDROOT
BRANCH   5  20
ATOM     20  C   UNL     1      36.066 -23.599 -14.769  0.00  0.00    +0.139 C 
BRANCH  20  22
ATOM     21  O   UNL     1      37.997 -25.064 -15.001  0.00  0.00    -0.250 OA
ATOM     22  C   UNL     1      36.792 -24.889 -15.118  0.00  0.00    +0.318 C 
BRANCH  22  23
ATOM     23  O   UNL     1      35.948 -25.848 -15.583  0.00  0.00    -0.480 OA
ATOM     24  H   UNL     1      35.224 -26.130 -15.057  0.00  0.00    +0.295 HD
ENDBRANCH  22  23
ENDBRANCH  20  22
ENDBRANCH   5  20
TORSDOF 3
ENDMDL
