MODEL 1
REMARK VINA RESULT:      -8.8      0.000      0.000
REMARK  Name = 4642
REMARK  7 active torsions:
REMARK  status: ('A' for Active; 'I' for Inactive)
REMARK    1  A    between atoms: C_1  and  C_2
REMARK    2  A    between atoms: C_1  and  C_8
REMARK    3  A    between atoms: C_1  and  O_14
REMARK    4  A    between atoms: C_1  and  C_17
REMARK    5  A    between atoms: C_17  and  O_18
REMARK    6  A    between atoms: O_18  and  C_19
REMARK    7  A    between atoms: C_19  and  C_22
REMARK                            x       y       z     vdW  Elec       q    Type
REMARK                         _______ _______ _______ _____ _____    ______ ____
ROOT
ATOM      1  C   UNL     1      32.415  -8.448 -23.135  0.00  0.00    +0.196 C 
ENDROOT
BRANCH   1   2
ATOM      2  C   UNL     1      32.301  -6.926 -23.102  0.00  0.00    +0.039 C 
ATOM      3  C   UNL     1      30.994  -6.494 -22.424  0.00  0.00    +0.003 C 
ATOM      4  C   UNL     1      32.398  -6.345 -24.520  0.00  0.00    +0.003 C 
ATOM      5  C   UNL     1      30.832  -4.975 -22.427  0.00  0.00    +0.000 C 
ATOM      6  C   UNL     1      32.233  -4.827 -24.519  0.00  0.00    +0.000 C 
ATOM      7  C   UNL     1      30.937  -4.401 -23.837  0.00  0.00    +0.000 C 
ENDBRANCH   1   2
BRANCH   1   8
ATOM      8  C   UNL     1      32.052  -9.186 -21.849  0.00  0.00    +0.012 C 
ATOM      9  C   UNL     1      32.453  -8.653 -20.643  0.00  0.00    -0.002 C 
ATOM     10  C   UNL     1      31.338 -10.361 -21.938  0.00  0.00    -0.002 C 
ATOM     11  C   UNL     1      32.120  -9.328 -19.468  0.00  0.00    -0.000 C 
ATOM     12  C   UNL     1      31.005 -11.035 -20.763  0.00  0.00    -0.000 C 
ATOM     13  C   UNL     1      31.398 -10.519 -19.528  0.00  0.00    -0.000 C 
ENDBRANCH   1   8
BRANCH   1  14
ATOM     14  O   UNL     1      31.504  -8.909 -24.141  0.00  0.00    -0.373 OA
ATOM     15  H   UNL     1      30.808  -8.247 -24.275  0.00  0.00    +0.211 HD
ENDBRANCH   1  14
BRANCH   1  17
ATOM     16  O   UNL     1      34.849  -8.280 -23.226  0.00  0.00    -0.247 OA
ATOM     17  C   UNL     1      33.822  -8.832 -23.600  0.00  0.00    +0.346 C 
BRANCH  17  18
ATOM     18  O   UNL     1      33.758  -9.865 -24.493  0.00  0.00    -0.439 OA
BRANCH  18  19
ATOM     19  C   UNL     1      34.348 -11.094 -24.059  0.00  0.00    +0.268 C 
BRANCH  19  22
ATOM     20  N   UNL     1      33.325 -13.363 -24.305  0.00  0.00    -0.292 N 
ATOM     21  N   UNL     1      33.782 -11.958 -26.201  0.00  0.00    -0.257 NA
ATOM     22  C   UNL     1      33.782 -12.202 -24.928  0.00  0.00    +0.148 C 
ATOM     23  C   UNL     1      32.801 -14.461 -25.111  0.00  0.00    +0.094 C 
ATOM     24  C   UNL     1      33.408 -14.389 -26.504  0.00  0.00    +0.048 C 
ATOM     25  C   UNL     1      33.216 -12.991 -27.074  0.00  0.00    +0.128 C 
ATOM     26  C   UNL     1      33.235 -13.516 -22.860  0.00  0.00    +0.113 C 
ENDBRANCH  19  22
ENDBRANCH  18  19
ENDBRANCH  17  18
ENDBRANCH   1  17
TORSDOF 7
ENDMDL
MODEL 2
REMARK VINA RESULT:      -8.6      5.659      9.854
REMARK  Name = 4642
REMARK  7 active torsions:
REMARK  status: ('A' for Active; 'I' for Inactive)
REMARK    1  A    between atoms: C_1  and  C_2
REMARK    2  A    between atoms: C_1  and  C_8
REMARK    3  A    between atoms: C_1  and  O_14
REMARK    4  A    between atoms: C_1  and  C_17
REMARK    5  A    between atoms: C_17  and  O_18
REMARK    6  A    between atoms: O_18  and  C_19
REMARK    7  A    between atoms: C_19  and  C_22
REMARK                            x       y       z     vdW  Elec       q    Type
REMARK                         _______ _______ _______ _____ _____    ______ ____
ROOT
ATOM      1  C   UNL     1      35.087 -18.484 -21.903  0.00  0.00    +0.196 C 
ENDROOT
BRANCH   1   2
ATOM      2  C   UNL     1      34.753 -19.860 -21.329  0.00  0.00    +0.039 C 
ATOM      3  C   UNL     1      33.408 -19.826 -20.590  0.00  0.00    +0.003 C 
ATOM      4  C   UNL     1      35.875 -20.346 -20.401  0.00  0.00    +0.003 C 
ATOM      5  C   UNL     1      33.077 -21.178 -19.960  0.00  0.00    +0.000 C 
ATOM      6  C   UNL     1      35.539 -21.697 -19.772  0.00  0.00    +0.000 C 
ATOM      7  C   UNL     1      34.198 -21.663 -19.045  0.00  0.00    +0.000 C 
ENDBRANCH   1   2
BRANCH   1   8
ATOM      8  C   UNL     1      34.332 -17.298 -21.311  0.00  0.00    +0.012 C 
ATOM      9  C   UNL     1      32.961 -17.254 -21.437  0.00  0.00    -0.002 C 
ATOM     10  C   UNL     1      35.048 -16.309 -20.672  0.00  0.00    -0.002 C 
ATOM     11  C   UNL     1      32.272 -16.169 -20.896  0.00  0.00    -0.000 C 
ATOM     12  C   UNL     1      34.359 -15.224 -20.131  0.00  0.00    -0.000 C 
ATOM     13  C   UNL     1      32.971 -15.153 -20.244  0.00  0.00    -0.000 C 
ENDBRANCH   1   8
BRANCH   1  14
ATOM     14  O   UNL     1      36.478 -18.255 -21.642  0.00  0.00    -0.373 OA
ATOM     15  H   UNL     1      36.686 -17.321 -21.795  0.00  0.00    +0.211 HD
ENDBRANCH   1  14
BRANCH   1  17
ATOM     16  O   UNL     1      34.526 -19.503 -24.050  0.00  0.00    -0.247 OA
ATOM     17  C   UNL     1      34.922 -18.527 -23.424  0.00  0.00    +0.346 C 
BRANCH  17  18
ATOM     18  O   UNL     1      35.287 -17.330 -23.973  0.00  0.00    -0.439 OA
BRANCH  18  19
ATOM     19  C   UNL     1      34.506 -16.899 -25.091  0.00  0.00    +0.268 C 
BRANCH  19  22
ATOM     20  N   UNL     1      33.145 -14.888 -25.692  0.00  0.00    -0.292 N 
ATOM     21  N   UNL     1      34.508 -14.961 -23.713  0.00  0.00    -0.257 NA
ATOM     22  C   UNL     1      34.030 -15.488 -24.796  0.00  0.00    +0.148 C 
ATOM     23  C   UNL     1      32.690 -13.521 -25.456  0.00  0.00    +0.094 C 
ATOM     24  C   UNL     1      33.726 -12.789 -24.616  0.00  0.00    +0.048 C 
ATOM     25  C   UNL     1      34.050 -13.609 -23.376  0.00  0.00    +0.128 C 
ATOM     26  C   UNL     1      32.548 -15.587 -26.821  0.00  0.00    +0.113 C 
ENDBRANCH  19  22
ENDBRANCH  18  19
ENDBRANCH  17  18
ENDBRANCH   1  17
TORSDOF 7
ENDMDL
MODEL 3
REMARK VINA RESULT:      -8.5     12.598     15.828
REMARK  Name = 4642
REMARK  7 active torsions:
REMARK  status: ('A' for Active; 'I' for Inactive)
REMARK    1  A    between atoms: C_1  and  C_2
REMARK    2  A    between atoms: C_1  and  C_8
REMARK    3  A    between atoms: C_1  and  O_14
REMARK    4  A    between atoms: C_1  and  C_17
REMARK    5  A    between atoms: C_17  and  O_18
REMARK    6  A    between atoms: O_18  and  C_19
REMARK    7  A    between atoms: C_19  and  C_22
REMARK                            x       y       z     vdW  Elec       q    Type
REMARK                         _______ _______ _______ _____ _____    ______ ____
ROOT
ATOM      1  C   UNL     1      35.551 -23.675 -15.343  0.00  0.00    +0.196 C 
ENDROOT
BRANCH   1   2
ATOM      2  C   UNL     1      34.120 -23.209 -15.086  0.00  0.00    +0.039 C 
ATOM      3  C   UNL     1      33.532 -23.916 -13.857  0.00  0.00    +0.003 C 
ATOM      4  C   UNL     1      33.243 -23.444 -16.323  0.00  0.00    +0.003 C 
ATOM      5  C   UNL     1      32.082 -23.506 -13.610  0.00  0.00    +0.000 C 
ATOM      6  C   UNL     1      31.793 -23.034 -16.071  0.00  0.00    +0.000 C 
ATOM      7  C   UNL     1      31.215 -23.733 -14.845  0.00  0.00    +0.000 C 
ENDBRANCH   1   2
BRANCH   1   8
ATOM      8  C   UNL     1      36.397 -23.990 -14.113  0.00  0.00    +0.012 C 
ATOM      9  C   UNL     1      36.438 -23.075 -13.084  0.00  0.00    -0.002 C 
ATOM     10  C   UNL     1      37.092 -25.179 -14.073  0.00  0.00    -0.002 C 
ATOM     11  C   UNL     1      37.211 -23.364 -11.959  0.00  0.00    -0.000 C 
ATOM     12  C   UNL     1      37.865 -25.468 -12.948  0.00  0.00    -0.000 C 
ATOM     13  C   UNL     1      37.925 -24.560 -11.892  0.00  0.00    -0.000 C 
ENDBRANCH   1   8
BRANCH   1  14
ATOM     14  O   UNL     1      35.460 -24.890 -16.098  0.00  0.00    -0.373 OA
ATOM     15  H   UNL     1      34.676 -24.858 -16.668  0.00  0.00    +0.211 HD
ENDBRANCH   1  14
BRANCH   1  17
ATOM     16  O   UNL     1      37.203 -21.960 -15.882  0.00  0.00    -0.247 OA
ATOM     17  C   UNL     1      36.255 -22.650 -16.236  0.00  0.00    +0.346 C 
BRANCH  17  18
ATOM     18  O   UNL     1      35.668 -22.615 -17.469  0.00  0.00    -0.439 OA
BRANCH  18  19
ATOM     19  C   UNL     1      36.300 -21.766 -18.431  0.00  0.00    +0.268 C 
BRANCH  19  22
ATOM     20  N   UNL     1      35.560 -20.265 -20.290  0.00  0.00    -0.292 N 
ATOM     21  N   UNL     1      34.049 -21.783 -19.198  0.00  0.00    -0.257 NA
ATOM     22  C   UNL     1      35.219 -21.249 -19.362  0.00  0.00    +0.148 C 
ATOM     23  C   UNL     1      34.539 -19.723 -21.181  0.00  0.00    +0.094 C 
ATOM     24  C   UNL     1      33.173 -19.886 -20.531  0.00  0.00    +0.048 C 
ATOM     25  C   UNL     1      32.982 -21.332 -20.098  0.00  0.00    +0.128 C 
ATOM     26  C   UNL     1      36.924 -19.804 -20.507  0.00  0.00    +0.113 C 
ENDBRANCH  19  22
ENDBRANCH  18  19
ENDBRANCH  17  18
ENDBRANCH   1  17
TORSDOF 7
ENDMDL
MODEL 4
REMARK VINA RESULT:      -8.4     13.359     16.374
REMARK  Name = 4642
REMARK  7 active torsions:
REMARK  status: ('A' for Active; 'I' for Inactive)
REMARK    1  A    between atoms: C_1  and  C_2
REMARK    2  A    between atoms: C_1  and  C_8
REMARK    3  A    between atoms: C_1  and  O_14
REMARK    4  A    between atoms: C_1  and  C_17
REMARK    5  A    between atoms: C_17  and  O_18
REMARK    6  A    between atoms: O_18  and  C_19
REMARK    7  A    between atoms: C_19  and  C_22
REMARK                            x       y       z     vdW  Elec       q    Type
REMARK                         _______ _______ _______ _____ _____    ______ ____
ROOT
ATOM      1  C   UNL     1      33.860 -23.145 -16.990  0.00  0.00    +0.196 C 
ENDROOT
BRANCH   1   2
ATOM      2  C   UNL     1      34.223 -21.977 -17.904  0.00  0.00    +0.039 C 
ATOM      3  C   UNL     1      33.242 -21.885 -19.082  0.00  0.00    +0.003 C 
ATOM      4  C   UNL     1      35.668 -22.111 -18.405  0.00  0.00    +0.003 C 
ATOM      5  C   UNL     1      33.617 -20.756 -20.040  0.00  0.00    +0.000 C 
ATOM      6  C   UNL     1      36.038 -20.981 -19.365  0.00  0.00    +0.000 C 
ATOM      7  C   UNL     1      35.056 -20.887 -20.530  0.00  0.00    +0.000 C 
ENDBRANCH   1   2
BRANCH   1   8
ATOM      8  C   UNL     1      32.524 -23.047 -16.259  0.00  0.00    +0.012 C 
ATOM      9  C   UNL     1      31.368 -22.939 -17.000  0.00  0.00    -0.002 C 
ATOM     10  C   UNL     1      32.519 -23.069 -14.881  0.00  0.00    -0.002 C 
ATOM     11  C   UNL     1      30.147 -22.849 -16.331  0.00  0.00    -0.000 C 
ATOM     12  C   UNL     1      31.299 -22.980 -14.212  0.00  0.00    -0.000 C 
ATOM     13  C   UNL     1      30.113 -22.869 -14.937  0.00  0.00    -0.000 C 
ENDBRANCH   1   8
BRANCH   1  14
ATOM     14  O   UNL     1      33.786 -24.311 -17.820  0.00  0.00    -0.373 OA
ATOM     15  H   UNL     1      32.911 -24.358 -18.236  0.00  0.00    +0.211 HD
ENDBRANCH   1  14
BRANCH   1  17
ATOM     16  O   UNL     1      35.503 -22.500 -15.303  0.00  0.00    -0.247 OA
ATOM     17  C   UNL     1      35.003 -23.376 -16.000  0.00  0.00    +0.346 C 
BRANCH  17  18
ATOM     18  O   UNL     1      35.385 -24.688 -16.016  0.00  0.00    -0.439 OA
BRANCH  18  19
ATOM     19  C   UNL     1      35.268 -25.382 -14.770  0.00  0.00    +0.268 C 
BRANCH  19  22
ATOM     20  N   UNL     1      36.854 -25.073 -12.861  0.00  0.00    -0.292 N 
ATOM     21  N   UNL     1      37.563 -25.969 -14.976  0.00  0.00    -0.257 NA
ATOM     22  C   UNL     1      36.661 -25.490 -14.178  0.00  0.00    +0.148 C 
ATOM     23  C   UNL     1      38.186 -25.135 -12.269  0.00  0.00    +0.094 C 
ATOM     24  C   UNL     1      39.227 -25.068 -13.376  0.00  0.00    +0.048 C 
ATOM     25  C   UNL     1      38.917 -26.118 -14.433  0.00  0.00    +0.128 C 
ATOM     26  C   UNL     1      35.768 -24.667 -11.980  0.00  0.00    +0.113 C 
ENDBRANCH  19  22
ENDBRANCH  18  19
ENDBRANCH  17  18
ENDBRANCH   1  17
TORSDOF 7
ENDMDL
MODEL 5
REMARK VINA RESULT:      -8.3     14.771     17.709
REMARK  Name = 4642
REMARK  7 active torsions:
REMARK  status: ('A' for Active; 'I' for Inactive)
REMARK    1  A    between atoms: C_1  and  C_2
REMARK    2  A    between atoms: C_1  and  C_8
REMARK    3  A    between atoms: C_1  and  O_14
REMARK    4  A    between atoms: C_1  and  C_17
REMARK    5  A    between atoms: C_17  and  O_18
REMARK    6  A    between atoms: O_18  and  C_19
REMARK    7  A    between atoms: C_19  and  C_22
REMARK                            x       y       z     vdW  Elec       q    Type
REMARK                         _______ _______ _______ _____ _____    ______ ____
ROOT
ATOM      1  C   UNL     1      34.553 -23.694 -15.195  0.00  0.00    +0.196 C 
ENDROOT
BRANCH   1   2
ATOM      2  C   UNL     1      33.060 -23.991 -15.069  0.00  0.00    +0.039 C 
ATOM      3  C   UNL     1      32.249 -22.689 -15.038  0.00  0.00    +0.003 C 
ATOM      4  C   UNL     1      32.781 -24.839 -13.820  0.00  0.00    +0.003 C 
ATOM      5  C   UNL     1      30.756 -22.959 -14.859  0.00  0.00    +0.000 C 
ATOM      6  C   UNL     1      31.287 -25.105 -13.643  0.00  0.00    +0.000 C 
ATOM      7  C   UNL     1      30.482 -23.809 -13.621  0.00  0.00    +0.000 C 
ENDBRANCH   1   2
BRANCH   1   8
ATOM      8  C   UNL     1      35.003 -22.999 -16.477  0.00  0.00    +0.012 C 
ATOM      9  C   UNL     1      36.252 -22.419 -16.513  0.00  0.00    -0.002 C 
ATOM     10  C   UNL     1      34.145 -22.976 -17.554  0.00  0.00    -0.002 C 
ATOM     11  C   UNL     1      36.663 -21.784 -17.685  0.00  0.00    -0.000 C 
ATOM     12  C   UNL     1      34.555 -22.341 -18.726  0.00  0.00    -0.000 C 
ATOM     13  C   UNL     1      35.814 -21.745 -18.792  0.00  0.00    -0.000 C 
ENDBRANCH   1   8
BRANCH   1  14
ATOM     14  O   UNL     1      34.891 -22.815 -14.114  0.00  0.00    -0.373 OA
ATOM     15  H   UNL     1      34.993 -23.330 -13.298  0.00  0.00    +0.211 HD
ENDBRANCH   1  14
BRANCH   1  17
ATOM     16  O   UNL     1      35.395 -25.909 -15.783  0.00  0.00    -0.247 OA
ATOM     17  C   UNL     1      35.338 -24.989 -14.976  0.00  0.00    +0.346 C 
BRANCH  17  18
ATOM     18  O   UNL     1      35.952 -24.969 -13.755  0.00  0.00    -0.439 OA
BRANCH  18  19
ATOM     19  C   UNL     1      36.694 -26.145 -13.416  0.00  0.00    +0.268 C 
BRANCH  19  22
ATOM     20  N   UNL     1      38.827 -24.874 -13.114  0.00  0.00    -0.292 N 
ATOM     21  N   UNL     1      38.620 -26.656 -14.715  0.00  0.00    -0.257 NA
ATOM     22  C   UNL     1      38.143 -25.890 -13.784  0.00  0.00    +0.148 C 
ATOM     23  C   UNL     1      40.213 -24.580 -13.461  0.00  0.00    +0.094 C 
ATOM     24  C   UNL     1      40.469 -25.016 -14.897  0.00  0.00    +0.048 C 
ATOM     25  C   UNL     1      40.027 -26.460 -15.079  0.00  0.00    +0.128 C 
ATOM     26  C   UNL     1      38.268 -24.139 -11.988  0.00  0.00    +0.113 C 
ENDBRANCH  19  22
ENDBRANCH  18  19
ENDBRANCH  17  18
ENDBRANCH   1  17
TORSDOF 7
ENDMDL
MODEL 6
REMARK VINA RESULT:      -8.2     13.952     17.266
REMARK  Name = 4642
REMARK  7 active torsions:
REMARK  status: ('A' for Active; 'I' for Inactive)
REMARK    1  A    between atoms: C_1  and  C_2
REMARK    2  A    between atoms: C_1  and  C_8
REMARK    3  A    between atoms: C_1  and  O_14
REMARK    4  A    between atoms: C_1  and  C_17
REMARK    5  A    between atoms: C_17  and  O_18
REMARK    6  A    between atoms: O_18  and  C_19
REMARK    7  A    between atoms: C_19  and  C_22
REMARK                            x       y       z     vdW  Elec       q    Type
REMARK                         _______ _______ _______ _____ _____    ______ ____
ROOT
ATOM      1  C   UNL     1      34.835 -23.292 -15.932  0.00  0.00    +0.196 C 
ENDROOT
BRANCH   1   2
ATOM      2  C   UNL     1      33.494 -23.860 -15.474  0.00  0.00    +0.039 C 
ATOM      3  C   UNL     1      32.371 -22.834 -15.682  0.00  0.00    +0.003 C 
ATOM      4  C   UNL     1      33.565 -24.302 -14.006  0.00  0.00    +0.003 C 
ATOM      5  C   UNL     1      31.027 -23.361 -15.182  0.00  0.00    +0.000 C 
ATOM      6  C   UNL     1      32.219 -24.826 -13.509  0.00  0.00    +0.000 C 
ATOM      7  C   UNL     1      31.103 -23.807 -13.725  0.00  0.00    +0.000 C 
ENDBRANCH   1   2
BRANCH   1   8
ATOM      8  C   UNL     1      34.864 -22.641 -17.312  0.00  0.00    +0.012 C 
ATOM      9  C   UNL     1      36.000 -21.967 -17.703  0.00  0.00    -0.002 C 
ATOM     10  C   UNL     1      33.753 -22.749 -18.119  0.00  0.00    -0.002 C 
ATOM     11  C   UNL     1      36.026 -21.372 -18.965  0.00  0.00    -0.000 C 
ATOM     12  C   UNL     1      33.778 -22.155 -19.380  0.00  0.00    -0.000 C 
ATOM     13  C   UNL     1      34.914 -21.465 -19.803  0.00  0.00    -0.000 C 
ENDBRANCH   1   8
BRANCH   1  14
ATOM     14  O   UNL     1      35.193 -22.271 -14.991  0.00  0.00    -0.373 OA
ATOM     15  H   UNL     1      34.724 -21.450 -15.211  0.00  0.00    +0.211 HD
ENDBRANCH   1  14
BRANCH   1  17
ATOM     16  O   UNL     1      35.663 -25.587 -15.843  0.00  0.00    -0.247 OA
ATOM     17  C   UNL     1      35.901 -24.385 -15.826  0.00  0.00    +0.346 C 
BRANCH  17  18
ATOM     18  O   UNL     1      37.141 -23.825 -15.702  0.00  0.00    -0.439 OA
BRANCH  18  19
ATOM     19  C   UNL     1      38.038 -24.501 -14.815  0.00  0.00    +0.268 C 
BRANCH  19  22
ATOM     20  N   UNL     1      37.055 -25.376 -12.688  0.00  0.00    -0.292 N 
ATOM     21  N   UNL     1      37.592 -23.052 -12.982  0.00  0.00    -0.257 NA
ATOM     22  C   UNL     1      37.534 -24.277 -13.402  0.00  0.00    +0.148 C 
ATOM     23  C   UNL     1      36.534 -25.194 -11.337  0.00  0.00    +0.094 C 
ATOM     24  C   UNL     1      36.044 -23.762 -11.182  0.00  0.00    +0.048 C 
ATOM     25  C   UNL     1      37.141 -22.798 -11.610  0.00  0.00    +0.128 C 
ATOM     26  C   UNL     1      37.139 -26.746 -13.174  0.00  0.00    +0.113 C 
ENDBRANCH  19  22
ENDBRANCH  18  19
ENDBRANCH  17  18
ENDBRANCH   1  17
TORSDOF 7
ENDMDL
MODEL 7
REMARK VINA RESULT:      -8.1      0.809      1.589
REMARK  Name = 4642
REMARK  7 active torsions:
REMARK  status: ('A' for Active; 'I' for Inactive)
REMARK    1  A    between atoms: C_1  and  C_2
REMARK    2  A    between atoms: C_1  and  C_8
REMARK    3  A    between atoms: C_1  and  O_14
REMARK    4  A    between atoms: C_1  and  C_17
REMARK    5  A    between atoms: C_17  and  O_18
REMARK    6  A    between atoms: O_18  and  C_19
REMARK    7  A    between atoms: C_19  and  C_22
REMARK                            x       y       z     vdW  Elec       q    Type
REMARK                         _______ _______ _______ _____ _____    ______ ____
ROOT
ATOM      1  C   UNL     1      32.095  -8.827 -22.894  0.00  0.00    +0.196 C 
ENDROOT
BRANCH   1   2
ATOM      2  C   UNL     1      32.239  -7.307 -22.931  0.00  0.00    +0.039 C 
ATOM      3  C   UNL     1      31.137  -6.638 -22.097  0.00  0.00    +0.003 C 
ATOM      4  C   UNL     1      32.215  -6.795 -24.378  0.00  0.00    +0.003 C 
ATOM      5  C   UNL     1      31.228  -5.114 -22.161  0.00  0.00    +0.000 C 
ATOM      6  C   UNL     1      32.304  -5.271 -24.438  0.00  0.00    +0.000 C 
ATOM      7  C   UNL     1      31.213  -4.610 -23.601  0.00  0.00    +0.000 C 
ENDBRANCH   1   2
BRANCH   1   8
ATOM      8  C   UNL     1      31.915  -9.461 -21.518  0.00  0.00    +0.012 C 
ATOM      9  C   UNL     1      32.357  -8.774 -20.408  0.00  0.00    -0.002 C 
ATOM     10  C   UNL     1      31.317 -10.699 -21.433  0.00  0.00    -0.002 C 
ATOM     11  C   UNL     1      32.191  -9.355 -19.151  0.00  0.00    -0.000 C 
ATOM     12  C   UNL     1      31.151 -11.280 -20.175  0.00  0.00    -0.000 C 
ATOM     13  C   UNL     1      31.590 -10.608 -19.035  0.00  0.00    -0.000 C 
ENDBRANCH   1   8
BRANCH   1  14
ATOM     14  O   UNL     1      30.920  -9.148 -23.650  0.00  0.00    -0.373 OA
ATOM     15  H   UNL     1      30.771 -10.106 -23.623  0.00  0.00    +0.211 HD
ENDBRANCH   1  14
BRANCH   1  17
ATOM     16  O   UNL     1      34.445  -9.095 -23.500  0.00  0.00    -0.247 OA
ATOM     17  C   UNL     1      33.281  -9.456 -23.629  0.00  0.00    +0.346 C 
BRANCH  17  18
ATOM     18  O   UNL     1      32.850 -10.461 -24.448  0.00  0.00    -0.439 OA
BRANCH  18  19
ATOM     19  C   UNL     1      33.874 -11.150 -25.174  0.00  0.00    +0.268 C 
BRANCH  19  22
ATOM     20  N   UNL     1      33.459 -13.561 -25.691  0.00  0.00    -0.292 N 
ATOM     21  N   UNL     1      34.153 -12.826 -23.510  0.00  0.00    -0.257 NA
ATOM     22  C   UNL     1      33.833 -12.605 -24.746  0.00  0.00    +0.148 C 
ATOM     23  C   UNL     1      33.380 -14.967 -25.309  0.00  0.00    +0.094 C 
ATOM     24  C   UNL     1      33.126 -15.062 -23.811  0.00  0.00    +0.048 C 
ATOM     25  C   UNL     1      34.154 -14.224 -23.065  0.00  0.00    +0.128 C 
ATOM     26  C   UNL     1      33.239 -13.256 -27.098  0.00  0.00    +0.113 C 
ENDBRANCH  19  22
ENDBRANCH  18  19
ENDBRANCH  17  18
ENDBRANCH   1  17
TORSDOF 7
ENDMDL
MODEL 8
REMARK VINA RESULT:      -8.1      3.117      7.362
REMARK  Name = 4642
REMARK  7 active torsions:
REMARK  status: ('A' for Active; 'I' for Inactive)
REMARK    1  A    between atoms: C_1  and  C_2
REMARK    2  A    between atoms: C_1  and  C_8
REMARK    3  A    between atoms: C_1  and  O_14
REMARK    4  A    between atoms: C_1  and  C_17
REMARK    5  A    between atoms: C_17  and  O_18
REMARK    6  A    between atoms: O_18  and  C_19
REMARK    7  A    between atoms: C_19  and  C_22
REMARK                            x       y       z     vdW  Elec       q    Type
REMARK                         _______ _______ _______ _____ _____    ______ ____
ROOT
ATOM      1  C   UNL     1      33.797 -14.596 -22.854  0.00  0.00    +0.196 C 
ENDROOT
BRANCH   1   2
ATOM      2  C   UNL     1      33.210 -14.185 -24.203  0.00  0.00    +0.039 C 
ATOM      3  C   UNL     1      33.407 -15.298 -25.242  0.00  0.00    +0.003 C 
ATOM      4  C   UNL     1      33.833 -12.869 -24.687  0.00  0.00    +0.003 C 
ATOM      5  C   UNL     1      32.875 -14.888 -26.614  0.00  0.00    +0.000 C 
ATOM      6  C   UNL     1      33.301 -12.464 -26.060  0.00  0.00    +0.000 C 
ATOM      7  C   UNL     1      33.491 -13.575 -27.088  0.00  0.00    +0.000 C 
ENDBRANCH   1   2
BRANCH   1   8
ATOM      8  C   UNL     1      34.421 -15.986 -22.778  0.00  0.00    +0.012 C 
ATOM      9  C   UNL     1      34.743 -16.502 -21.542  0.00  0.00    -0.002 C 
ATOM     10  C   UNL     1      34.642 -16.678 -23.949  0.00  0.00    -0.002 C 
ATOM     11  C   UNL     1      35.313 -17.773 -21.474  0.00  0.00    -0.000 C 
ATOM     12  C   UNL     1      35.212 -17.949 -23.881  0.00  0.00    -0.000 C 
ATOM     13  C   UNL     1      35.549 -18.497 -22.643  0.00  0.00    -0.000 C 
ENDBRANCH   1   8
BRANCH   1  14
ATOM     14  O   UNL     1      34.843 -13.662 -22.558  0.00  0.00    -0.373 OA
ATOM     15  H   UNL     1      35.677 -14.140 -22.431  0.00  0.00    +0.211 HD
ENDBRANCH   1  14
BRANCH   1  17
ATOM     16  O   UNL     1      31.959 -15.305 -21.412  0.00  0.00    -0.247 OA
ATOM     17  C   UNL     1      32.728 -14.422 -21.773  0.00  0.00    +0.346 C 
BRANCH  17  18
ATOM     18  O   UNL     1      32.754 -13.147 -21.283  0.00  0.00    -0.439 OA
BRANCH  18  19
ATOM     19  C   UNL     1      31.540 -12.403 -21.429  0.00  0.00    +0.268 C 
BRANCH  19  22
ATOM     20  N   UNL     1      31.777 -10.195 -20.281  0.00  0.00    -0.292 N 
ATOM     21  N   UNL     1      32.317 -10.488 -22.605  0.00  0.00    -0.257 NA
ATOM     22  C   UNL     1      31.909 -10.932 -21.458  0.00  0.00    +0.148 C 
ATOM     23  C   UNL     1      32.094  -8.770 -20.277  0.00  0.00    +0.094 C 
ATOM     24  C   UNL     1      31.925  -8.220 -21.686  0.00  0.00    +0.048 C 
ATOM     25  C   UNL     1      32.712  -9.076 -22.667  0.00  0.00    +0.128 C 
ATOM     26  C   UNL     1      31.435 -10.788 -18.996  0.00  0.00    +0.113 C 
ENDBRANCH  19  22
ENDBRANCH  18  19
ENDBRANCH  17  18
ENDBRANCH   1  17
TORSDOF 7
ENDMDL
MODEL 9
REMARK VINA RESULT:      -8.0      5.417      9.501
REMARK  Name = 4642
REMARK  7 active torsions:
REMARK  status: ('A' for Active; 'I' for Inactive)
REMARK    1  A    between atoms: C_1  and  C_2
REMARK    2  A    between atoms: C_1  and  C_8
REMARK    3  A    between atoms: C_1  and  O_14
REMARK    4  A    between atoms: C_1  and  C_17
REMARK    5  A    between atoms: C_17  and  O_18
REMARK    6  A    between atoms: O_18  and  C_19
REMARK    7  A    between atoms: C_19  and  C_22
REMARK                            x       y       z     vdW  Elec       q    Type
REMARK                         _______ _______ _______ _____ _____    ______ ____
ROOT
ATOM      1  C   UNL     1      34.920 -18.047 -21.544  0.00  0.00    +0.196 C 
ENDROOT
BRANCH   1   2
ATOM      2  C   UNL     1      34.423 -17.908 -22.981  0.00  0.00    +0.039 C 
ATOM      3  C   UNL     1      34.620 -19.221 -23.752  0.00  0.00    +0.003 C 
ATOM      4  C   UNL     1      35.132 -16.746 -23.690  0.00  0.00    +0.003 C 
ATOM      5  C   UNL     1      34.179 -19.091 -25.209  0.00  0.00    +0.000 C 
ATOM      6  C   UNL     1      34.690 -16.621 -25.147  0.00  0.00    +0.000 C 
ATOM      7  C   UNL     1      34.879 -17.930 -25.908  0.00  0.00    +0.000 C 
ENDBRANCH   1   2
BRANCH   1   8
ATOM      8  C   UNL     1      34.508 -19.314 -20.800  0.00  0.00    +0.012 C 
ATOM      9  C   UNL     1      33.168 -19.557 -20.596  0.00  0.00    -0.002 C 
ATOM     10  C   UNL     1      35.492 -20.171 -20.357  0.00  0.00    -0.002 C 
ATOM     11  C   UNL     1      32.792 -20.716 -19.916  0.00  0.00    -0.000 C 
ATOM     12  C   UNL     1      35.117 -21.330 -19.677  0.00  0.00    -0.000 C 
ATOM     13  C   UNL     1      33.767 -21.602 -19.456  0.00  0.00    -0.000 C 
ENDBRANCH   1   8
BRANCH   1  14
ATOM     14  O   UNL     1      36.352 -18.054 -21.602  0.00  0.00    -0.373 OA
ATOM     15  H   UNL     1      36.684 -17.147 -21.513  0.00  0.00    +0.211 HD
ENDBRANCH   1  14
BRANCH   1  17
ATOM     16  O   UNL     1      35.218 -16.254 -19.914  0.00  0.00    -0.247 OA
ATOM     17  C   UNL     1      34.514 -16.800 -20.755  0.00  0.00    +0.346 C 
BRANCH  17  18
ATOM     18  O   UNL     1      33.260 -16.397 -21.120  0.00  0.00    -0.439 OA
BRANCH  18  19
ATOM     19  C   UNL     1      32.798 -15.187 -20.511  0.00  0.00    +0.268 C 
BRANCH  19  22
ATOM     20  N   UNL     1      32.244 -12.867 -21.263  0.00  0.00    -0.292 N 
ATOM     21  N   UNL     1      33.186 -14.500 -22.755  0.00  0.00    -0.257 NA
ATOM     22  C   UNL     1      32.748 -14.125 -21.594  0.00  0.00    +0.148 C 
ATOM     23  C   UNL     1      32.153 -11.830 -22.286  0.00  0.00    +0.094 C 
ATOM     24  C   UNL     1      32.052 -12.487 -23.654  0.00  0.00    +0.048 C 
ATOM     25  C   UNL     1      33.182 -13.494 -23.822  0.00  0.00    +0.128 C 
ATOM     26  C   UNL     1      31.891 -12.475 -19.906  0.00  0.00    +0.113 C 
ENDBRANCH  19  22
ENDBRANCH  18  19
ENDBRANCH  17  18
ENDBRANCH   1  17
TORSDOF 7
ENDMDL
