MODEL 1
REMARK VINA RESULT:     -10.6      0.000      0.000
REMARK  Name = 448008
REMARK  5 active torsions:
REMARK  status: ('A' for Active; 'I' for Inactive)
REMARK    1  A    between atoms: C_4  and  C_10
REMARK    2  A    between atoms: C_5  and  N_16
REMARK    3  A    between atoms: N_16  and  C_19
REMARK    4  A    between atoms: C_22  and  C_26
REMARK    5  A    between atoms: C_26  and  O_27
REMARK                            x       y       z     vdW  Elec       q    Type
REMARK                         _______ _______ _______ _____ _____    ______ ____
ROOT
ATOM      1  O   UNL     1      32.468 -23.312 -13.146  0.00  0.00    -0.270 OA
ATOM      2  O   UNL     1      30.407 -22.689 -17.189  0.00  0.00    -0.268 OA
ATOM      3  N   UNL     1      31.096 -22.910 -14.979  0.00  0.00    -0.247 N 
ATOM      4  C   UNL     1      33.271 -23.436 -15.411  0.00  0.00    +0.072 C 
ATOM      5  C   UNL     1      32.664 -23.252 -16.595  0.00  0.00    +0.107 C 
ATOM      6  C   UNL     1      32.264 -23.216 -14.344  0.00  0.00    +0.253 C 
ATOM      7  C   UNL     1      31.246 -22.914 -16.333  0.00  0.00    +0.265 C 
ATOM      8  H   UNL     1      30.249 -22.711 -14.515  0.00  0.00    +0.158 HD
ENDROOT
BRANCH   4  10
ATOM      9 CL   UNL     1      36.948 -27.060 -15.023  0.00  0.00    -0.082 Cl
ATOM     10  C   UNL     1      34.677 -23.770 -15.173  0.00  0.00    +0.007 C 
ATOM     11  C   UNL     1      35.093 -25.102 -15.206  0.00  0.00    +0.012 C 
ATOM     12  C   UNL     1      35.599 -22.757 -14.914  0.00  0.00    +0.000 C 
ATOM     13  C   UNL     1      36.433 -25.418 -14.980  0.00  0.00    +0.058 C 
ATOM     14  C   UNL     1      36.939 -23.075 -14.689  0.00  0.00    +0.001 C 
ATOM     15  C   UNL     1      37.355 -24.405 -14.721  0.00  0.00    +0.011 C 
ENDBRANCH   4  10
BRANCH   5  16
ATOM     16  N   UNL     1      33.117 -23.303 -17.869  0.00  0.00    -0.309 N 
ATOM     17  H   UNL     1      32.819 -24.080 -18.396  0.00  0.00    +0.152 HD
BRANCH  16  19
ATOM     18 CL   UNL     1      36.682 -19.499 -20.689  0.00  0.00    -0.082 Cl
ATOM     19  C   UNL     1      33.955 -22.396 -18.544  0.00  0.00    +0.049 C 
ATOM     20  C   UNL     1      33.419 -21.513 -19.484  0.00  0.00    +0.022 C 
ATOM     21  C   UNL     1      35.325 -22.375 -18.274  0.00  0.00    +0.015 C 
ATOM     22  C   UNL     1      34.250 -20.614 -20.152  0.00  0.00    +0.087 C 
ATOM     23  C   UNL     1      36.156 -21.476 -18.944  0.00  0.00    +0.013 C 
ATOM     24  C   UNL     1      35.618 -20.595 -19.883  0.00  0.00    +0.064 C 
BRANCH  22  26
ATOM     25  O   UNL     1      34.080 -19.492 -22.259  0.00  0.00    -0.245 OA
ATOM     26  C   UNL     1      33.645 -19.713 -21.126  0.00  0.00    +0.339 C 
BRANCH  26  27
ATOM     27  O   UNL     1      32.517 -19.122 -20.652  0.00  0.00    -0.477 OA
ATOM     28  H   UNL     1      31.752 -19.638 -20.482  0.00  0.00    +0.295 HD
ENDBRANCH  26  27
ENDBRANCH  22  26
ENDBRANCH  16  19
ENDBRANCH   5  16
TORSDOF 5
ENDMDL
MODEL 2
REMARK VINA RESULT:     -10.5     10.516     14.588
REMARK  Name = 448008
REMARK  5 active torsions:
REMARK  status: ('A' for Active; 'I' for Inactive)
REMARK    1  A    between atoms: C_4  and  C_10
REMARK    2  A    between atoms: C_5  and  N_16
REMARK    3  A    between atoms: N_16  and  C_19
REMARK    4  A    between atoms: C_22  and  C_26
REMARK    5  A    between atoms: C_26  and  O_27
REMARK                            x       y       z     vdW  Elec       q    Type
REMARK                         _______ _______ _______ _____ _____    ______ ____
ROOT
ATOM      1  O   UNL     1      32.936  -6.727 -19.639  0.00  0.00    -0.270 OA
ATOM      2  O   UNL     1      31.013 -10.876 -19.371  0.00  0.00    -0.268 OA
ATOM      3  N   UNL     1      31.919  -8.750 -19.112  0.00  0.00    -0.247 N 
ATOM      4  C   UNL     1      32.448  -8.397 -21.301  0.00  0.00    +0.072 C 
ATOM      5  C   UNL     1      31.882  -9.613 -21.219  0.00  0.00    +0.107 C 
ATOM      6  C   UNL     1      32.479  -7.818 -19.936  0.00  0.00    +0.253 C 
ATOM      7  C   UNL     1      31.537  -9.862 -19.801  0.00  0.00    +0.265 C 
ATOM      8  H   UNL     1      31.806  -8.633 -18.140  0.00  0.00    +0.158 HD
ENDROOT
BRANCH   4  10
ATOM      9 CL   UNL     1      31.597  -4.990 -25.105  0.00  0.00    -0.082 Cl
ATOM     10  C   UNL     1      32.934  -7.721 -22.505  0.00  0.00    +0.007 C 
ATOM     11  C   UNL     1      32.126  -6.788 -23.156  0.00  0.00    +0.012 C 
ATOM     12  C   UNL     1      34.206  -8.009 -23.000  0.00  0.00    +0.000 C 
ATOM     13  C   UNL     1      32.591  -6.143 -24.302  0.00  0.00    +0.058 C 
ATOM     14  C   UNL     1      34.670  -7.363 -24.146  0.00  0.00    +0.001 C 
ATOM     15  C   UNL     1      33.863  -6.431 -24.797  0.00  0.00    +0.011 C 
ENDBRANCH   4  10
BRANCH   5  16
ATOM     16  N   UNL     1      31.590 -10.547 -22.154  0.00  0.00    -0.309 N 
ATOM     17  H   UNL     1      30.758 -10.397 -22.659  0.00  0.00    +0.152 HD
BRANCH  16  19
ATOM     18 CL   UNL     1      34.655 -15.394 -23.650  0.00  0.00    -0.082 Cl
ATOM     19  C   UNL     1      32.313 -11.703 -22.500  0.00  0.00    +0.049 C 
ATOM     20  C   UNL     1      32.254 -12.837 -21.688  0.00  0.00    +0.022 C 
ATOM     21  C   UNL     1      33.093 -11.720 -23.659  0.00  0.00    +0.015 C 
ATOM     22  C   UNL     1      32.971 -13.983 -22.032  0.00  0.00    +0.087 C 
ATOM     23  C   UNL     1      33.811 -12.866 -24.002  0.00  0.00    +0.013 C 
ATOM     24  C   UNL     1      33.750 -13.997 -23.189  0.00  0.00    +0.064 C 
BRANCH  22  26
ATOM     25  O   UNL     1      31.926 -15.924 -21.100  0.00  0.00    -0.245 OA
ATOM     26  C   UNL     1      32.879 -15.141 -21.151  0.00  0.00    +0.339 C 
BRANCH  26  27
ATOM     27  O   UNL     1      33.979 -15.282 -20.366  0.00  0.00    -0.477 OA
ATOM     28  H   UNL     1      34.828 -15.357 -20.757  0.00  0.00    +0.295 HD
ENDBRANCH  26  27
ENDBRANCH  22  26
ENDBRANCH  16  19
ENDBRANCH   5  16
TORSDOF 5
ENDMDL
MODEL 3
REMARK VINA RESULT:     -10.4      9.679     12.902
REMARK  Name = 448008
REMARK  5 active torsions:
REMARK  status: ('A' for Active; 'I' for Inactive)
REMARK    1  A    between atoms: C_4  and  C_10
REMARK    2  A    between atoms: C_5  and  N_16
REMARK    3  A    between atoms: N_16  and  C_19
REMARK    4  A    between atoms: C_22  and  C_26
REMARK    5  A    between atoms: C_26  and  O_27
REMARK                            x       y       z     vdW  Elec       q    Type
REMARK                         _______ _______ _______ _____ _____    ______ ____
ROOT
ATOM      1  O   UNL     1      35.272 -15.915 -23.256  0.00  0.00    -0.270 OA
ATOM      2  O   UNL     1      32.373 -15.181 -19.787  0.00  0.00    -0.268 OA
ATOM      3  N   UNL     1      34.003 -15.836 -21.309  0.00  0.00    -0.247 N 
ATOM      4  C   UNL     1      33.481 -14.338 -22.946  0.00  0.00    +0.072 C 
ATOM      5  C   UNL     1      32.634 -14.124 -21.927  0.00  0.00    +0.107 C 
ATOM      6  C   UNL     1      34.384 -15.451 -22.561  0.00  0.00    +0.253 C 
ATOM      7  C   UNL     1      32.955 -15.094 -20.855  0.00  0.00    +0.265 C 
ATOM      8  H   UNL     1      34.433 -16.561 -20.799  0.00  0.00    +0.158 HD
ENDROOT
BRANCH   4  10
ATOM      9 CL   UNL     1      34.941 -10.097 -25.532  0.00  0.00    -0.082 Cl
ATOM     10  C   UNL     1      33.551 -13.609 -24.214  0.00  0.00    +0.007 C 
ATOM     11  C   UNL     1      34.143 -12.347 -24.262  0.00  0.00    +0.012 C 
ATOM     12  C   UNL     1      33.026 -14.178 -25.375  0.00  0.00    +0.000 C 
ATOM     13  C   UNL     1      34.209 -11.654 -25.471  0.00  0.00    +0.058 C 
ATOM     14  C   UNL     1      33.093 -13.485 -26.583  0.00  0.00    +0.001 C 
ATOM     15  C   UNL     1      33.684 -12.223 -26.631  0.00  0.00    +0.011 C 
ENDBRANCH   4  10
BRANCH   5  16
ATOM     16  N   UNL     1      31.638 -13.226 -21.742  0.00  0.00    -0.309 N 
ATOM     17  H   UNL     1      30.728 -13.555 -21.929  0.00  0.00    +0.152 HD
BRANCH  16  19
ATOM     18 CL   UNL     1      32.011  -7.601 -19.914  0.00  0.00    -0.082 Cl
ATOM     19  C   UNL     1      31.726 -11.888 -21.318  0.00  0.00    +0.049 C 
ATOM     20  C   UNL     1      31.832 -10.861 -22.258  0.00  0.00    +0.022 C 
ATOM     21  C   UNL     1      31.708 -11.581 -19.955  0.00  0.00    +0.015 C 
ATOM     22  C   UNL     1      31.920  -9.533 -21.838  0.00  0.00    +0.087 C 
ATOM     23  C   UNL     1      31.796 -10.254 -19.536  0.00  0.00    +0.013 C 
ATOM     24  C   UNL     1      31.902  -9.230 -20.477  0.00  0.00    +0.064 C 
BRANCH  22  26
ATOM     25  O   UNL     1      31.081  -7.937 -23.411  0.00  0.00    -0.245 OA
ATOM     26  C   UNL     1      32.031  -8.496 -22.857  0.00  0.00    +0.339 C 
BRANCH  26  27
ATOM     27  O   UNL     1      33.323  -8.193 -23.147  0.00  0.00    -0.477 OA
ATOM     28  H   UNL     1      33.617  -7.304 -23.107  0.00  0.00    +0.295 HD
ENDBRANCH  26  27
ENDBRANCH  22  26
ENDBRANCH  16  19
ENDBRANCH   5  16
TORSDOF 5
ENDMDL
MODEL 4
REMARK VINA RESULT:     -10.1      1.442      1.940
REMARK  Name = 448008
REMARK  5 active torsions:
REMARK  status: ('A' for Active; 'I' for Inactive)
REMARK    1  A    between atoms: C_4  and  C_10
REMARK    2  A    between atoms: C_5  and  N_16
REMARK    3  A    between atoms: N_16  and  C_19
REMARK    4  A    between atoms: C_22  and  C_26
REMARK    5  A    between atoms: C_26  and  O_27
REMARK                            x       y       z     vdW  Elec       q    Type
REMARK                         _______ _______ _______ _____ _____    ______ ____
ROOT
ATOM      1  O   UNL     1      32.724 -23.354 -13.198  0.00  0.00    -0.270 OA
ATOM      2  O   UNL     1      30.374 -22.796 -17.090  0.00  0.00    -0.268 OA
ATOM      3  N   UNL     1      31.217 -23.000 -14.933  0.00  0.00    -0.247 N 
ATOM      4  C   UNL     1      33.379 -23.431 -15.513  0.00  0.00    +0.072 C 
ATOM      5  C   UNL     1      32.687 -23.266 -16.652  0.00  0.00    +0.107 C 
ATOM      6  C   UNL     1      32.437 -23.260 -14.380  0.00  0.00    +0.253 C 
ATOM      7  C   UNL     1      31.277 -22.990 -16.294  0.00  0.00    +0.265 C 
ATOM      8  H   UNL     1      30.396 -22.841 -14.412  0.00  0.00    +0.158 HD
ENDROOT
BRANCH   4  10
ATOM      9 CL   UNL     1      37.154 -26.863 -14.635  0.00  0.00    -0.082 Cl
ATOM     10  C   UNL     1      34.810 -23.706 -15.372  0.00  0.00    +0.007 C 
ATOM     11  C   UNL     1      35.248 -25.003 -15.100  0.00  0.00    +0.012 C 
ATOM     12  C   UNL     1      35.735 -22.672 -15.510  0.00  0.00    +0.000 C 
ATOM     13  C   UNL     1      36.612 -25.264 -14.967  0.00  0.00    +0.058 C 
ATOM     14  C   UNL     1      37.099 -22.934 -15.377  0.00  0.00    +0.001 C 
ATOM     15  C   UNL     1      37.537 -24.229 -15.105  0.00  0.00    +0.011 C 
ENDBRANCH   4  10
BRANCH   5  16
ATOM     16  N   UNL     1      33.055 -23.290 -17.954  0.00  0.00    -0.309 N 
ATOM     17  H   UNL     1      33.038 -24.176 -18.385  0.00  0.00    +0.152 HD
BRANCH  16  19
ATOM     18 CL   UNL     1      34.711 -18.777 -21.421  0.00  0.00    -0.082 Cl
ATOM     19  C   UNL     1      33.459 -22.222 -18.776  0.00  0.00    +0.049 C 
ATOM     20  C   UNL     1      34.816 -21.963 -18.973  0.00  0.00    +0.022 C 
ATOM     21  C   UNL     1      32.502 -21.416 -19.398  0.00  0.00    +0.015 C 
ATOM     22  C   UNL     1      35.216 -20.904 -19.788  0.00  0.00    +0.087 C 
ATOM     23  C   UNL     1      32.902 -20.357 -20.212  0.00  0.00    +0.013 C 
ATOM     24  C   UNL     1      34.259 -20.100 -20.407  0.00  0.00    +0.064 C 
BRANCH  22  26
ATOM     25  O   UNL     1      37.230 -19.612 -19.724  0.00  0.00    -0.245 OA
ATOM     26  C   UNL     1      36.645 -20.672 -19.961  0.00  0.00    +0.339 C 
BRANCH  26  27
ATOM     27  O   UNL     1      37.295 -21.773 -20.423  0.00  0.00    -0.477 OA
ATOM     28  H   UNL     1      37.888 -22.236 -19.864  0.00  0.00    +0.295 HD
ENDBRANCH  26  27
ENDBRANCH  22  26
ENDBRANCH  16  19
ENDBRANCH   5  16
TORSDOF 5
ENDMDL
MODEL 5
REMARK VINA RESULT:     -10.1      5.224     10.290
REMARK  Name = 448008
REMARK  5 active torsions:
REMARK  status: ('A' for Active; 'I' for Inactive)
REMARK    1  A    between atoms: C_4  and  C_10
REMARK    2  A    between atoms: C_5  and  N_16
REMARK    3  A    between atoms: N_16  and  C_19
REMARK    4  A    between atoms: C_22  and  C_26
REMARK    5  A    between atoms: C_26  and  O_27
REMARK                            x       y       z     vdW  Elec       q    Type
REMARK                         _______ _______ _______ _____ _____    ______ ____
ROOT
ATOM      1  O   UNL     1      33.307 -15.624 -26.372  0.00  0.00    -0.270 OA
ATOM      2  O   UNL     1      35.488 -19.007 -24.186  0.00  0.00    -0.268 OA
ATOM      3  N   UNL     1      34.436 -17.514 -25.625  0.00  0.00    -0.247 N 
ATOM      4  C   UNL     1      33.959 -15.913 -24.073  0.00  0.00    +0.072 C 
ATOM      5  C   UNL     1      34.600 -16.906 -23.436  0.00  0.00    +0.107 C 
ATOM      6  C   UNL     1      33.844 -16.291 -25.503  0.00  0.00    +0.253 C 
ATOM      7  C   UNL     1      34.913 -17.959 -24.429  0.00  0.00    +0.265 C 
ATOM      8  H   UNL     1      34.508 -18.012 -26.472  0.00  0.00    +0.158 HD
ENDROOT
BRANCH   4  10
ATOM      9 CL   UNL     1      33.712 -10.747 -24.312  0.00  0.00    -0.082 Cl
ATOM     10  C   UNL     1      33.470 -14.657 -23.501  0.00  0.00    +0.007 C 
ATOM     11  C   UNL     1      33.789 -13.443 -24.108  0.00  0.00    +0.012 C 
ATOM     12  C   UNL     1      32.684 -14.677 -22.349  0.00  0.00    +0.000 C 
ATOM     13  C   UNL     1      33.321 -12.247 -23.563  0.00  0.00    +0.058 C 
ATOM     14  C   UNL     1      32.217 -13.480 -21.804  0.00  0.00    +0.001 C 
ATOM     15  C   UNL     1      32.536 -12.266 -22.411  0.00  0.00    +0.011 C 
ENDBRANCH   4  10
BRANCH   5  16
ATOM     16  N   UNL     1      34.985 -17.064 -22.148  0.00  0.00    -0.309 N 
ATOM     17  H   UNL     1      35.143 -16.232 -21.646  0.00  0.00    +0.152 HD
BRANCH  16  19
ATOM     18 CL   UNL     1      35.891 -22.080 -19.122  0.00  0.00    -0.082 Cl
ATOM     19  C   UNL     1      35.189 -18.257 -21.430  0.00  0.00    +0.049 C 
ATOM     20  C   UNL     1      34.098 -19.032 -21.034  0.00  0.00    +0.022 C 
ATOM     21  C   UNL     1      36.486 -18.669 -21.111  0.00  0.00    +0.015 C 
ATOM     22  C   UNL     1      34.301 -20.215 -20.322  0.00  0.00    +0.087 C 
ATOM     23  C   UNL     1      36.688 -19.851 -20.398  0.00  0.00    +0.013 C 
ATOM     24  C   UNL     1      35.596 -20.624 -20.004  0.00  0.00    +0.064 C 
BRANCH  22  26
ATOM     25  O   UNL     1      33.067 -22.221 -19.898  0.00  0.00    -0.245 OA
ATOM     26  C   UNL     1      33.130 -20.990 -19.929  0.00  0.00    +0.339 C 
BRANCH  26  27
ATOM     27  O   UNL     1      32.079 -20.199 -19.587  0.00  0.00    -0.477 OA
ATOM     28  H   UNL     1      31.657 -20.313 -18.757  0.00  0.00    +0.295 HD
ENDBRANCH  26  27
ENDBRANCH  22  26
ENDBRANCH  16  19
ENDBRANCH   5  16
TORSDOF 5
ENDMDL
MODEL 6
REMARK VINA RESULT:     -10.0      3.163      6.053
REMARK  Name = 448008
REMARK  5 active torsions:
REMARK  status: ('A' for Active; 'I' for Inactive)
REMARK    1  A    between atoms: C_4  and  C_10
REMARK    2  A    between atoms: C_5  and  N_16
REMARK    3  A    between atoms: N_16  and  C_19
REMARK    4  A    between atoms: C_22  and  C_26
REMARK    5  A    between atoms: C_26  and  O_27
REMARK                            x       y       z     vdW  Elec       q    Type
REMARK                         _______ _______ _______ _____ _____    ______ ____
ROOT
ATOM      1  O   UNL     1      38.187 -24.862 -14.792  0.00  0.00    -0.270 OA
ATOM      2  O   UNL     1      34.973 -24.900 -11.528  0.00  0.00    -0.268 OA
ATOM      3  N   UNL     1      36.813 -25.115 -12.933  0.00  0.00    -0.247 N 
ATOM      4  C   UNL     1      36.039 -23.790 -14.618  0.00  0.00    +0.072 C 
ATOM      5  C   UNL     1      35.099 -23.802 -13.659  0.00  0.00    +0.107 C 
ATOM      6  C   UNL     1      37.166 -24.640 -14.162  0.00  0.00    +0.253 C 
ATOM      7  C   UNL     1      35.584 -24.664 -12.557  0.00  0.00    +0.265 C 
ATOM      8  H   UNL     1      37.377 -25.710 -12.387  0.00  0.00    +0.158 HD
ENDROOT
BRANCH   4  10
ATOM      9 CL   UNL     1      33.464 -22.545 -18.934  0.00  0.00    -0.082 Cl
ATOM     10  C   UNL     1      36.006 -23.061 -15.888  0.00  0.00    +0.007 C 
ATOM     11  C   UNL     1      34.882 -23.143 -16.710  0.00  0.00    +0.012 C 
ATOM     12  C   UNL     1      37.099 -22.286 -16.275  0.00  0.00    +0.000 C 
ATOM     13  C   UNL     1      34.851 -22.448 -17.919  0.00  0.00    +0.058 C 
ATOM     14  C   UNL     1      37.067 -21.591 -17.484  0.00  0.00    +0.001 C 
ATOM     15  C   UNL     1      35.943 -21.672 -18.306  0.00  0.00    +0.011 C 
ENDBRANCH   4  10
BRANCH   5  16
ATOM     16  N   UNL     1      33.899 -23.186 -13.550  0.00  0.00    -0.309 N 
ATOM     17  H   UNL     1      33.917 -22.288 -13.147  0.00  0.00    +0.152 HD
BRANCH  16  19
ATOM     18 CL   UNL     1      28.559 -25.204 -15.143  0.00  0.00    -0.082 Cl
ATOM     19  C   UNL     1      32.630 -23.656 -13.934  0.00  0.00    +0.049 C 
ATOM     20  C   UNL     1      31.800 -22.863 -14.729  0.00  0.00    +0.022 C 
ATOM     21  C   UNL     1      32.196 -24.919 -13.522  0.00  0.00    +0.015 C 
ATOM     22  C   UNL     1      30.541 -23.330 -15.110  0.00  0.00    +0.087 C 
ATOM     23  C   UNL     1      30.937 -25.384 -13.902  0.00  0.00    +0.013 C 
ATOM     24  C   UNL     1      30.110 -24.590 -14.696  0.00  0.00    +0.064 C 
BRANCH  22  26
ATOM     25  O   UNL     1      29.887 -22.244 -17.139  0.00  0.00    -0.245 OA
ATOM     26  C   UNL     1      29.710 -22.464 -15.939  0.00  0.00    +0.339 C 
BRANCH  26  27
ATOM     27  O   UNL     1      28.688 -21.906 -15.239  0.00  0.00    -0.477 OA
ATOM     28  H   UNL     1      27.811 -21.956 -15.569  0.00  0.00    +0.295 HD
ENDBRANCH  26  27
ENDBRANCH  22  26
ENDBRANCH  16  19
ENDBRANCH   5  16
TORSDOF 5
ENDMDL
MODEL 7
REMARK VINA RESULT:      -9.8     11.551     15.025
REMARK  Name = 448008
REMARK  5 active torsions:
REMARK  status: ('A' for Active; 'I' for Inactive)
REMARK    1  A    between atoms: C_4  and  C_10
REMARK    2  A    between atoms: C_5  and  N_16
REMARK    3  A    between atoms: N_16  and  C_19
REMARK    4  A    between atoms: C_22  and  C_26
REMARK    5  A    between atoms: C_26  and  O_27
REMARK                            x       y       z     vdW  Elec       q    Type
REMARK                         _______ _______ _______ _____ _____    ______ ____
ROOT
ATOM      1  O   UNL     1      33.096  -6.604 -19.548  0.00  0.00    -0.270 OA
ATOM      2  O   UNL     1      30.898 -10.603 -19.147  0.00  0.00    -0.268 OA
ATOM      3  N   UNL     1      31.974  -8.551 -18.951  0.00  0.00    -0.247 N 
ATOM      4  C   UNL     1      32.369  -8.224 -21.172  0.00  0.00    +0.072 C 
ATOM      5  C   UNL     1      31.723  -9.396 -21.051  0.00  0.00    +0.107 C 
ATOM      6  C   UNL     1      32.541  -7.658 -19.812  0.00  0.00    +0.253 C 
ATOM      7  C   UNL     1      31.463  -9.628 -19.612  0.00  0.00    +0.265 C 
ATOM      8  H   UNL     1      31.940  -8.433 -17.973  0.00  0.00    +0.158 HD
ENDROOT
BRANCH   4  10
ATOM      9 CL   UNL     1      31.377  -4.944 -25.053  0.00  0.00    -0.082 Cl
ATOM     10  C   UNL     1      32.816  -7.577 -22.407  0.00  0.00    +0.007 C 
ATOM     11  C   UNL     1      31.980  -6.676 -23.065  0.00  0.00    +0.012 C 
ATOM     12  C   UNL     1      34.080  -7.863 -22.925  0.00  0.00    +0.000 C 
ATOM     13  C   UNL     1      32.407  -6.059 -24.241  0.00  0.00    +0.058 C 
ATOM     14  C   UNL     1      34.507  -7.246 -24.100  0.00  0.00    +0.001 C 
ATOM     15  C   UNL     1      33.671  -6.345 -24.759  0.00  0.00    +0.011 C 
ENDBRANCH   4  10
BRANCH   5  16
ATOM     16  N   UNL     1      31.296 -10.300 -21.963  0.00  0.00    -0.309 N 
ATOM     17  H   UNL     1      30.357 -10.210 -22.245  0.00  0.00    +0.152 HD
BRANCH  16  19
ATOM     18 CL   UNL     1      34.300 -14.759 -24.458  0.00  0.00    -0.082 Cl
ATOM     19  C   UNL     1      32.013 -11.352 -22.563  0.00  0.00    +0.049 C 
ATOM     20  C   UNL     1      32.732 -11.129 -23.739  0.00  0.00    +0.022 C 
ATOM     21  C   UNL     1      32.009 -12.623 -21.983  0.00  0.00    +0.015 C 
ATOM     22  C   UNL     1      33.443 -12.172 -24.333  0.00  0.00    +0.087 C 
ATOM     23  C   UNL     1      32.719 -13.665 -22.579  0.00  0.00    +0.013 C 
ATOM     24  C   UNL     1      33.436 -13.440 -23.754  0.00  0.00    +0.064 C 
BRANCH  22  26
ATOM     25  O   UNL     1      33.946 -12.398 -26.662  0.00  0.00    -0.245 OA
ATOM     26  C   UNL     1      34.176 -11.890 -25.562  0.00  0.00    +0.339 C 
BRANCH  26  27
ATOM     27  O   UNL     1      35.171 -10.984 -25.373  0.00  0.00    -0.477 OA
ATOM     28  H   UNL     1      34.991 -10.172 -24.940  0.00  0.00    +0.295 HD
ENDBRANCH  26  27
ENDBRANCH  22  26
ENDBRANCH  16  19
ENDBRANCH   5  16
TORSDOF 5
ENDMDL
MODEL 8
REMARK VINA RESULT:      -9.6      6.192      9.264
REMARK  Name = 448008
REMARK  5 active torsions:
REMARK  status: ('A' for Active; 'I' for Inactive)
REMARK    1  A    between atoms: C_4  and  C_10
REMARK    2  A    between atoms: C_5  and  N_16
REMARK    3  A    between atoms: N_16  and  C_19
REMARK    4  A    between atoms: C_22  and  C_26
REMARK    5  A    between atoms: C_26  and  O_27
REMARK                            x       y       z     vdW  Elec       q    Type
REMARK                         _______ _______ _______ _____ _____    ______ ____
ROOT
ATOM      1  O   UNL     1      34.600 -20.184 -24.911  0.00  0.00    -0.270 OA
ATOM      2  O   UNL     1      34.207 -15.663 -25.535  0.00  0.00    -0.268 OA
ATOM      3  N   UNL     1      34.292 -17.986 -25.603  0.00  0.00    -0.247 N 
ATOM      4  C   UNL     1      34.901 -18.311 -23.430  0.00  0.00    +0.072 C 
ATOM      5  C   UNL     1      34.784 -16.986 -23.616  0.00  0.00    +0.107 C 
ATOM      6  C   UNL     1      34.583 -18.980 -24.715  0.00  0.00    +0.253 C 
ATOM      7  C   UNL     1      34.394 -16.755 -25.026  0.00  0.00    +0.265 C 
ATOM      8  H   UNL     1      34.040 -18.139 -26.543  0.00  0.00    +0.158 HD
ENDROOT
BRANCH   4  10
ATOM      9 CL   UNL     1      33.432 -21.321 -19.483  0.00  0.00    -0.082 Cl
ATOM     10  C   UNL     1      35.253 -19.008 -22.192  0.00  0.00    +0.007 C 
ATOM     11  C   UNL     1      34.286 -19.744 -21.507  0.00  0.00    +0.012 C 
ATOM     12  C   UNL     1      36.556 -18.937 -21.698  0.00  0.00    +0.000 C 
ATOM     13  C   UNL     1      34.623 -20.410 -20.328  0.00  0.00    +0.058 C 
ATOM     14  C   UNL     1      36.891 -19.602 -20.519  0.00  0.00    +0.001 C 
ATOM     15  C   UNL     1      35.925 -20.338 -19.834  0.00  0.00    +0.011 C 
ENDBRANCH   4  10
BRANCH   5  16
ATOM     16  N   UNL     1      34.935 -15.931 -22.782  0.00  0.00    -0.309 N 
ATOM     17  H   UNL     1      35.797 -15.884 -22.307  0.00  0.00    +0.152 HD
BRANCH  16  19
ATOM     18 CL   UNL     1      31.095 -11.583 -21.566  0.00  0.00    -0.082 Cl
ATOM     19  C   UNL     1      34.028 -14.893 -22.501  0.00  0.00    +0.049 C 
ATOM     20  C   UNL     1      34.093 -13.693 -23.213  0.00  0.00    +0.022 C 
ATOM     21  C   UNL     1      33.058 -15.059 -21.510  0.00  0.00    +0.015 C 
ATOM     22  C   UNL     1      33.193 -12.664 -22.934  0.00  0.00    +0.087 C 
ATOM     23  C   UNL     1      32.159 -14.029 -21.231  0.00  0.00    +0.013 C 
ATOM     24  C   UNL     1      32.226 -12.832 -21.944  0.00  0.00    +0.064 C 
BRANCH  22  26
ATOM     25  O   UNL     1      33.106 -10.295 -23.261  0.00  0.00    -0.245 OA
ATOM     26  C   UNL     1      33.302 -11.430 -23.703  0.00  0.00    +0.339 C 
BRANCH  26  27
ATOM     27  O   UNL     1      33.654 -11.656 -24.996  0.00  0.00    -0.477 OA
ATOM     28  H   UNL     1      32.994 -11.831 -25.638  0.00  0.00    +0.295 HD
ENDBRANCH  26  27
ENDBRANCH  22  26
ENDBRANCH  16  19
ENDBRANCH   5  16
TORSDOF 5
ENDMDL
MODEL 9
REMARK VINA RESULT:      -9.5      2.938      4.536
REMARK  Name = 448008
REMARK  5 active torsions:
REMARK  status: ('A' for Active; 'I' for Inactive)
REMARK    1  A    between atoms: C_4  and  C_10
REMARK    2  A    between atoms: C_5  and  N_16
REMARK    3  A    between atoms: N_16  and  C_19
REMARK    4  A    between atoms: C_22  and  C_26
REMARK    5  A    between atoms: C_26  and  O_27
REMARK                            x       y       z     vdW  Elec       q    Type
REMARK                         _______ _______ _______ _____ _____    ______ ____
ROOT
ATOM      1  O   UNL     1      33.118 -23.631 -12.772  0.00  0.00    -0.270 OA
ATOM      2  O   UNL     1      36.135 -23.049 -16.170  0.00  0.00    -0.268 OA
ATOM      3  N   UNL     1      34.921 -23.302 -14.202  0.00  0.00    -0.247 N 
ATOM      4  C   UNL     1      32.886 -23.652 -15.168  0.00  0.00    +0.072 C 
ATOM      5  C   UNL     1      33.773 -23.483 -16.162  0.00  0.00    +0.107 C 
ATOM      6  C   UNL     1      33.616 -23.539 -13.882  0.00  0.00    +0.253 C 
ATOM      7  C   UNL     1      35.102 -23.248 -15.552  0.00  0.00    +0.265 C 
ATOM      8  H   UNL     1      35.641 -23.184 -13.541  0.00  0.00    +0.158 HD
ENDROOT
BRANCH   4  10
ATOM      9 CL   UNL     1      28.239 -22.185 -16.917  0.00  0.00    -0.082 Cl
ATOM     10  C   UNL     1      31.453 -23.926 -15.290  0.00  0.00    +0.007 C 
ATOM     11  C   UNL     1      30.626 -23.028 -15.965  0.00  0.00    +0.012 C 
ATOM     12  C   UNL     1      30.915 -25.086 -14.733  0.00  0.00    +0.000 C 
ATOM     13  C   UNL     1      29.261 -23.291 -16.082  0.00  0.00    +0.058 C 
ATOM     14  C   UNL     1      29.550 -25.348 -14.851  0.00  0.00    +0.001 C 
ATOM     15  C   UNL     1      28.723 -24.451 -15.525  0.00  0.00    +0.011 C 
ENDBRANCH   4  10
BRANCH   5  16
ATOM     16  N   UNL     1      33.650 -23.512 -17.509  0.00  0.00    -0.309 N 
ATOM     17  H   UNL     1      33.444 -24.393 -17.898  0.00  0.00    +0.152 HD
BRANCH  16  19
ATOM     18 CL   UNL     1      34.134 -19.051 -21.382  0.00  0.00    -0.082 Cl
ATOM     19  C   UNL     1      33.776 -22.455 -18.428  0.00  0.00    +0.049 C 
ATOM     20  C   UNL     1      35.041 -22.028 -18.837  0.00  0.00    +0.022 C 
ATOM     21  C   UNL     1      32.635 -21.828 -18.936  0.00  0.00    +0.015 C 
ATOM     22  C   UNL     1      35.165 -20.979 -19.749  0.00  0.00    +0.087 C 
ATOM     23  C   UNL     1      32.760 -20.779 -19.846  0.00  0.00    +0.013 C 
ATOM     24  C   UNL     1      34.025 -20.355 -20.253  0.00  0.00    +0.064 C 
BRANCH  22  26
ATOM     25  O   UNL     1      36.905 -19.403 -20.210  0.00  0.00    -0.245 OA
ATOM     26  C   UNL     1      36.507 -20.569 -20.144  0.00  0.00    +0.339 C 
BRANCH  26  27
ATOM     27  O   UNL     1      37.305 -21.628 -20.442  0.00  0.00    -0.477 OA
ATOM     28  H   UNL     1      37.811 -21.627 -21.231  0.00  0.00    +0.295 HD
ENDBRANCH  26  27
ENDBRANCH  22  26
ENDBRANCH  16  19
ENDBRANCH   5  16
TORSDOF 5
ENDMDL
