MODEL 1
REMARK VINA RESULT:      -9.2      0.000      0.000
REMARK  Name = 6445562
REMARK  9 active torsions:
REMARK  status: ('A' for Active; 'I' for Inactive)
REMARK    1  A    between atoms: C_4  and  N_22
REMARK    2  A    between atoms: C_5  and  N_12
REMARK    3  A    between atoms: C_7  and  O_34
REMARK    4  A    between atoms: C_9  and  C_33
REMARK    5  A    between atoms: C_13  and  C_15
REMARK    6  A    between atoms: C_16  and  C_17
REMARK    7  A    between atoms: C_17  and  N_18
REMARK    8  A    between atoms: N_22  and  C_26
REMARK    9  A    between atoms: O_34  and  C_35
REMARK                            x       y       z     vdW  Elec       q    Type
REMARK                         _______ _______ _______ _____ _____    ______ ____
ROOT
ATOM      1  N   UNL     1      37.958 -23.802 -13.877  0.00  0.00    -0.247 NA
ATOM      2  C   UNL     1      35.739 -23.196 -14.592  0.00  0.00    +0.012 C 
ATOM      3  C   UNL     1      37.126 -23.319 -14.818  0.00  0.00    +0.064 C 
ATOM      4  C   UNL     1      35.236 -23.592 -13.346  0.00  0.00    +0.057 C 
ATOM      5  C   UNL     1      35.424 -22.301 -16.826  0.00  0.00    +0.063 C 
ATOM      6  C   UNL     1      34.898 -22.687 -15.597  0.00  0.00    +0.073 C 
ATOM      7  C   UNL     1      36.789 -22.420 -17.057  0.00  0.00    +0.131 C 
ATOM      8  C   UNL     1      37.624 -22.925 -16.057  0.00  0.00    +0.110 C 
ATOM      9  C   UNL     1      36.092 -24.090 -12.374  0.00  0.00    +0.101 C 
ATOM     10  C   UNL     1      37.432 -24.173 -12.688  0.00  0.00    +0.110 C 
ENDROOT
BRANCH   5  12
ATOM     11  O   UNL     1      33.848 -23.728 -18.946  0.00  0.00    -0.270 OA
ATOM     12  N   UNL     1      34.572 -21.798 -17.814  0.00  0.00    -0.281 N 
ATOM     13  C   UNL     1      33.858 -22.514 -18.783  0.00  0.00    +0.249 C 
ATOM     14  H   UNL     1      34.461 -20.820 -17.830  0.00  0.00    +0.155 HD
BRANCH  13  15
ATOM     15  C   UNL     1      33.057 -21.607 -19.658  0.00  0.00    +0.051 C 
ATOM     16  C   UNL     1      33.622 -20.526 -20.215  0.00  0.00    -0.044 C 
BRANCH  16  17
ATOM     17  C   UNL     1      32.879 -19.580 -21.110  0.00  0.00    -0.050 C 
BRANCH  17  18
ATOM     18  N   UNL     1      33.792 -18.730 -21.868  0.00  0.00    +0.387 N 
ATOM     19  C   UNL     1      34.607 -17.917 -20.965  0.00  0.00    -0.100 C 
ATOM     20  C   UNL     1      34.647 -19.540 -22.736  0.00  0.00    -0.100 C 
ATOM     21  H   UNL     1      33.235 -18.106 -22.452  0.00  0.00    -0.079 HD
ENDBRANCH  17  18
ENDBRANCH  16  17
ENDBRANCH  13  15
ENDBRANCH   5  12
BRANCH   4  22
ATOM     22  N   UNL     1      33.850 -23.491 -13.059  0.00  0.00    -0.312 N 
ATOM     23  H   UNL     1      33.653 -23.084 -12.185  0.00  0.00    +0.152 HD
BRANCH  22  26
ATOM     24 CL   UNL     1      30.544 -22.420 -16.831  0.00  0.00    -0.080 Cl
ATOM     25  F   UNL     1      29.328 -24.960 -15.907  0.00  0.00    -0.203 F 
ATOM     26  C   UNL     1      32.705 -23.859 -13.783  0.00  0.00    +0.049 C 
ATOM     27  C   UNL     1      32.242 -23.054 -14.828  0.00  0.00    +0.028 C 
ATOM     28  C   UNL     1      32.018 -25.035 -13.464  0.00  0.00    +0.017 C 
ATOM     29  C   UNL     1      31.104 -23.420 -15.547  0.00  0.00    +0.086 C 
ATOM     30  C   UNL     1      30.881 -25.401 -14.182  0.00  0.00    +0.032 C 
ATOM     31  C   UNL     1      30.423 -24.595 -15.225  0.00  0.00    +0.151 C 
ENDBRANCH  22  26
ENDBRANCH   4  22
BRANCH   9  33
ATOM     32  N   UNL     1      35.266 -24.849 -10.039  0.00  0.00    -0.191 NA
ATOM     33  C   UNL     1      35.637 -24.509 -11.085  0.00  0.00    +0.103 C 
ENDBRANCH   9  33
BRANCH   7  34
ATOM     34  O   UNL     1      37.334 -22.051 -18.250  0.00  0.00    -0.478 OA
BRANCH  34  35
ATOM     35  C   UNL     1      37.117 -20.705 -18.671  0.00  0.00    +0.205 C 
ATOM     36  C   UNL     1      36.992 -20.675 -20.180  0.00  0.00    +0.051 C 
ENDBRANCH  34  35
ENDBRANCH   7  34
TORSDOF 9
ENDMDL
MODEL 2
REMARK VINA RESULT:      -9.0      6.829     11.229
REMARK  Name = 6445562
REMARK  9 active torsions:
REMARK  status: ('A' for Active; 'I' for Inactive)
REMARK    1  A    between atoms: C_4  and  N_22
REMARK    2  A    between atoms: C_5  and  N_12
REMARK    3  A    between atoms: C_7  and  O_34
REMARK    4  A    between atoms: C_9  and  C_33
REMARK    5  A    between atoms: C_13  and  C_15
REMARK    6  A    between atoms: C_16  and  C_17
REMARK    7  A    between atoms: C_17  and  N_18
REMARK    8  A    between atoms: N_22  and  C_26
REMARK    9  A    between atoms: O_34  and  C_35
REMARK                            x       y       z     vdW  Elec       q    Type
REMARK                         _______ _______ _______ _____ _____    ______ ____
ROOT
ATOM      1  N   UNL     1      34.433 -16.082 -25.947  0.00  0.00    -0.247 NA
ATOM      2  C   UNL     1      33.861 -15.750 -23.630  0.00  0.00    +0.012 C 
ATOM      3  C   UNL     1      34.019 -15.278 -24.950  0.00  0.00    +0.064 C 
ATOM      4  C   UNL     1      34.149 -17.097 -23.372  0.00  0.00    +0.057 C 
ATOM      5  C   UNL     1      33.149 -13.549 -22.896  0.00  0.00    +0.063 C 
ATOM      6  C   UNL     1      33.428 -14.883 -22.613  0.00  0.00    +0.073 C 
ATOM      7  C   UNL     1      33.303 -13.077 -24.194  0.00  0.00    +0.131 C 
ATOM      8  C   UNL     1      33.733 -13.939 -25.204  0.00  0.00    +0.110 C 
ATOM      9  C   UNL     1      34.575 -17.929 -24.399  0.00  0.00    +0.101 C 
ATOM     10  C   UNL     1      34.699 -17.376 -25.656  0.00  0.00    +0.110 C 
ENDROOT
BRANCH   5  12
ATOM     11  O   UNL     1      32.217 -14.181 -20.113  0.00  0.00    -0.270 OA
ATOM     12  N   UNL     1      32.719 -12.702 -21.871  0.00  0.00    -0.281 N 
ATOM     13  C   UNL     1      32.292 -13.053 -20.584  0.00  0.00    +0.249 C 
ATOM     14  H   UNL     1      32.715 -11.739 -22.081  0.00  0.00    +0.155 HD
BRANCH  13  15
ATOM     15  C   UNL     1      31.912 -11.850 -19.784  0.00  0.00    +0.051 C 
ATOM     16  C   UNL     1      31.988 -10.624 -20.321  0.00  0.00    -0.044 C 
BRANCH  16  17
ATOM     17  C   UNL     1      31.614  -9.377 -19.577  0.00  0.00    -0.050 C 
BRANCH  17  18
ATOM     18  N   UNL     1      31.696  -8.197 -20.433  0.00  0.00    +0.387 N 
ATOM     19  C   UNL     1      32.714  -7.272 -19.935  0.00  0.00    -0.100 C 
ATOM     20  C   UNL     1      31.990  -8.583 -21.813  0.00  0.00    -0.100 C 
ATOM     21  H   UNL     1      30.792  -7.725 -20.413  0.00  0.00    -0.079 HD
ENDBRANCH  17  18
ENDBRANCH  16  17
ENDBRANCH  13  15
ENDBRANCH   5  12
BRANCH   4  22
ATOM     22  N   UNL     1      34.009 -17.631 -22.065  0.00  0.00    -0.312 N 
ATOM     23  H   UNL     1      33.280 -17.223 -21.545  0.00  0.00    +0.152 HD
BRANCH  22  26
ATOM     24 CL   UNL     1      33.870 -22.018 -19.413  0.00  0.00    -0.080 Cl
ATOM     25  F   UNL     1      36.797 -21.561 -19.329  0.00  0.00    -0.203 F 
ATOM     26  C   UNL     1      34.711 -18.628 -21.371  0.00  0.00    +0.049 C 
ATOM     27  C   UNL     1      34.026 -19.706 -20.801  0.00  0.00    +0.028 C 
ATOM     28  C   UNL     1      36.102 -18.552 -21.244  0.00  0.00    +0.017 C 
ATOM     29  C   UNL     1      34.725 -20.697 -20.111  0.00  0.00    +0.086 C 
ATOM     30  C   UNL     1      36.800 -19.542 -20.555  0.00  0.00    +0.032 C 
ATOM     31  C   UNL     1      36.112 -20.616 -19.988  0.00  0.00    +0.151 C 
ENDBRANCH  22  26
ENDBRANCH   4  22
BRANCH   9  33
ATOM     32  N   UNL     1      35.135 -20.431 -24.031  0.00  0.00    -0.191 NA
ATOM     33  C   UNL     1      34.883 -19.310 -24.196  0.00  0.00    +0.103 C 
ENDBRANCH   9  33
BRANCH   7  34
ATOM     34  O   UNL     1      33.036 -11.776 -24.503  0.00  0.00    -0.478 OA
BRANCH  34  35
ATOM     35  C   UNL     1      34.078 -11.036 -25.136  0.00  0.00    +0.205 C 
ATOM     36  C   UNL     1      34.535  -9.933 -24.204  0.00  0.00    +0.051 C 
ENDBRANCH  34  35
ENDBRANCH   7  34
TORSDOF 9
ENDMDL
MODEL 3
REMARK VINA RESULT:      -8.9      3.131      5.142
REMARK  Name = 6445562
REMARK  9 active torsions:
REMARK  status: ('A' for Active; 'I' for Inactive)
REMARK    1  A    between atoms: C_4  and  N_22
REMARK    2  A    between atoms: C_5  and  N_12
REMARK    3  A    between atoms: C_7  and  O_34
REMARK    4  A    between atoms: C_9  and  C_33
REMARK    5  A    between atoms: C_13  and  C_15
REMARK    6  A    between atoms: C_16  and  C_17
REMARK    7  A    between atoms: C_17  and  N_18
REMARK    8  A    between atoms: N_22  and  C_26
REMARK    9  A    between atoms: O_34  and  C_35
REMARK                            x       y       z     vdW  Elec       q    Type
REMARK                         _______ _______ _______ _____ _____    ______ ____
ROOT
ATOM      1  N   UNL     1      32.366 -24.109 -14.966  0.00  0.00    -0.247 NA
ATOM      2  C   UNL     1      34.497 -23.206 -15.637  0.00  0.00    +0.012 C 
ATOM      3  C   UNL     1      33.145 -23.519 -15.892  0.00  0.00    +0.064 C 
ATOM      4  C   UNL     1      35.022 -23.528 -14.378  0.00  0.00    +0.057 C 
ATOM      5  C   UNL     1      34.735 -22.282 -17.868  0.00  0.00    +0.063 C 
ATOM      6  C   UNL     1      35.282 -22.591 -16.626  0.00  0.00    +0.073 C 
ATOM      7  C   UNL     1      33.404 -22.586 -18.126  0.00  0.00    +0.131 C 
ATOM      8  C   UNL     1      32.624 -23.199 -17.143  0.00  0.00    +0.110 C 
ATOM      9  C   UNL     1      34.221 -24.137 -13.422  0.00  0.00    +0.101 C 
ATOM     10  C   UNL     1      32.912 -24.403 -13.764  0.00  0.00    +0.110 C 
ENDROOT
BRANCH   5  12
ATOM     11  O   UNL     1      37.227 -20.631 -17.581  0.00  0.00    -0.270 OA
ATOM     12  N   UNL     1      35.531 -21.669 -18.839  0.00  0.00    -0.281 N 
ATOM     13  C   UNL     1      36.690 -20.906 -18.648  0.00  0.00    +0.249 C 
ATOM     14  H   UNL     1      35.241 -21.788 -19.773  0.00  0.00    +0.155 HD
BRANCH  13  15
ATOM     15  C   UNL     1      37.251 -20.424 -19.946  0.00  0.00    +0.051 C 
ATOM     16  C   UNL     1      36.640 -19.445 -20.629  0.00  0.00    -0.044 C 
BRANCH  16  17
ATOM     17  C   UNL     1      37.155 -18.910 -21.931  0.00  0.00    -0.050 C 
BRANCH  17  18
ATOM     18  N   UNL     1      36.204 -17.988 -22.545  0.00  0.00    +0.387 N 
ATOM     19  C   UNL     1      35.419 -18.670 -23.576  0.00  0.00    -0.100 C 
ATOM     20  C   UNL     1      35.320 -17.411 -21.532  0.00  0.00    -0.100 C 
ATOM     21  H   UNL     1      36.729 -17.233 -22.985  0.00  0.00    -0.079 HD
ENDBRANCH  17  18
ENDBRANCH  16  17
ENDBRANCH  13  15
ENDBRANCH   5  12
BRANCH   4  22
ATOM     22  N   UNL     1      36.375 -23.239 -14.062  0.00  0.00    -0.312 N 
ATOM     23  H   UNL     1      36.553 -22.283 -13.915  0.00  0.00    +0.152 HD
BRANCH  22  26
ATOM     24 CL   UNL     1      40.228 -25.784 -16.295  0.00  0.00    -0.080 Cl
ATOM     25  F   UNL     1      40.844 -26.463 -13.476  0.00  0.00    -0.203 F 
ATOM     26  C   UNL     1      37.507 -24.056 -13.918  0.00  0.00    +0.049 C 
ATOM     27  C   UNL     1      38.227 -24.469 -15.044  0.00  0.00    +0.028 C 
ATOM     28  C   UNL     1      37.926 -24.463 -12.647  0.00  0.00    +0.017 C 
ATOM     29  C   UNL     1      39.352 -25.281 -14.901  0.00  0.00    +0.086 C 
ATOM     30  C   UNL     1      39.050 -25.274 -12.503  0.00  0.00    +0.032 C 
ATOM     31  C   UNL     1      39.764 -25.683 -13.630  0.00  0.00    +0.151 C 
ENDBRANCH  22  26
ENDBRANCH   4  22
BRANCH   9  33
ATOM     32  N   UNL     1      35.092 -24.775 -11.067  0.00  0.00    -0.191 NA
ATOM     33  C   UNL     1      34.702 -24.489 -12.123  0.00  0.00    +0.103 C 
ENDBRANCH   9  33
BRANCH   7  34
ATOM     34  O   UNL     1      32.840 -22.295 -19.332  0.00  0.00    -0.478 OA
BRANCH  34  35
ATOM     35  C   UNL     1      32.415 -20.949 -19.539  0.00  0.00    +0.205 C 
ATOM     36  C   UNL     1      33.132 -20.387 -20.748  0.00  0.00    +0.051 C 
ENDBRANCH  34  35
ENDBRANCH   7  34
TORSDOF 9
ENDMDL
MODEL 4
REMARK VINA RESULT:      -8.6      3.295      5.422
REMARK  Name = 6445562
REMARK  9 active torsions:
REMARK  status: ('A' for Active; 'I' for Inactive)
REMARK    1  A    between atoms: C_4  and  N_22
REMARK    2  A    between atoms: C_5  and  N_12
REMARK    3  A    between atoms: C_7  and  O_34
REMARK    4  A    between atoms: C_9  and  C_33
REMARK    5  A    between atoms: C_13  and  C_15
REMARK    6  A    between atoms: C_16  and  C_17
REMARK    7  A    between atoms: C_17  and  N_18
REMARK    8  A    between atoms: N_22  and  C_26
REMARK    9  A    between atoms: O_34  and  C_35
REMARK                            x       y       z     vdW  Elec       q    Type
REMARK                         _______ _______ _______ _____ _____    ______ ____
ROOT
ATOM      1  N   UNL     1      31.564 -24.289 -13.210  0.00  0.00    -0.247 NA
ATOM      2  C   UNL     1      33.084 -23.537 -14.922  0.00  0.00    +0.012 C 
ATOM      3  C   UNL     1      31.781 -23.759 -14.428  0.00  0.00    +0.064 C 
ATOM      4  C   UNL     1      34.167 -23.887 -14.105  0.00  0.00    +0.057 C 
ATOM      5  C   UNL     1      32.180 -22.644 -16.989  0.00  0.00    +0.063 C 
ATOM      6  C   UNL     1      33.274 -22.982 -16.199  0.00  0.00    +0.073 C 
ATOM      7  C   UNL     1      30.894 -22.859 -16.510  0.00  0.00    +0.131 C 
ATOM      8  C   UNL     1      30.705 -23.411 -15.241  0.00  0.00    +0.110 C 
ATOM      9  C   UNL     1      33.946 -24.433 -12.848  0.00  0.00    +0.101 C 
ATOM     10  C   UNL     1      32.637 -24.612 -12.452  0.00  0.00    +0.110 C 
ENDROOT
BRANCH   5  12
ATOM     11  O   UNL     1      34.634 -22.621 -18.720  0.00  0.00    -0.270 OA
ATOM     12  N   UNL     1      32.389 -22.093 -18.257  0.00  0.00    -0.281 N 
ATOM     13  C   UNL     1      33.562 -22.112 -19.022  0.00  0.00    +0.249 C 
ATOM     14  H   UNL     1      31.616 -21.634 -18.660  0.00  0.00    +0.155 HD
BRANCH  13  15
ATOM     15  C   UNL     1      33.377 -21.409 -20.327  0.00  0.00    +0.051 C 
ATOM     16  C   UNL     1      33.871 -20.176 -20.511  0.00  0.00    -0.044 C 
BRANCH  16  17
ATOM     17  C   UNL     1      33.729 -19.419 -21.797  0.00  0.00    -0.050 C 
BRANCH  17  18
ATOM     18  N   UNL     1      35.006 -19.309 -22.498  0.00  0.00    +0.387 N 
ATOM     19  C   UNL     1      34.830 -18.632 -23.783  0.00  0.00    -0.100 C 
ATOM     20  C   UNL     1      35.983 -18.596 -21.676  0.00  0.00    -0.100 C 
ATOM     21  H   UNL     1      35.355 -20.252 -22.673  0.00  0.00    -0.079 HD
ENDBRANCH  17  18
ENDBRANCH  16  17
ENDBRANCH  13  15
ENDBRANCH   5  12
BRANCH   4  22
ATOM     22  N   UNL     1      35.501 -23.689 -14.546  0.00  0.00    -0.312 N 
ATOM     23  H   UNL     1      35.687 -22.772 -14.851  0.00  0.00    +0.152 HD
BRANCH  22  26
ATOM     24 CL   UNL     1      40.535 -24.398 -13.870  0.00  0.00    -0.080 Cl
ATOM     25  F   UNL     1      39.855 -27.099 -14.885  0.00  0.00    -0.203 F 
ATOM     26  C   UNL     1      36.606 -24.549 -14.630  0.00  0.00    +0.049 C 
ATOM     27  C   UNL     1      37.878 -24.103 -14.253  0.00  0.00    +0.028 C 
ATOM     28  C   UNL     1      36.446 -25.859 -15.092  0.00  0.00    +0.017 C 
ATOM     29  C   UNL     1      38.976 -24.959 -14.337  0.00  0.00    +0.086 C 
ATOM     30  C   UNL     1      37.544 -26.714 -15.177  0.00  0.00    +0.032 C 
ATOM     31  C   UNL     1      38.809 -26.265 -14.799  0.00  0.00    +0.151 C 
ENDBRANCH  22  26
ENDBRANCH   4  22
BRANCH   9  33
ATOM     32  N   UNL     1      35.876 -25.115 -11.260  0.00  0.00    -0.191 NA
ATOM     33  C   UNL     1      35.011 -24.810 -11.972  0.00  0.00    +0.103 C 
ENDBRANCH   9  33
BRANCH   7  34
ATOM     34  O   UNL     1      29.803 -22.537 -17.260  0.00  0.00    -0.478 OA
BRANCH  34  35
ATOM     35  C   UNL     1      28.596 -23.246 -16.984  0.00  0.00    +0.205 C 
ATOM     36  C   UNL     1      27.518 -22.253 -16.602  0.00  0.00    +0.051 C 
ENDBRANCH  34  35
ENDBRANCH   7  34
TORSDOF 9
ENDMDL
MODEL 5
REMARK VINA RESULT:      -8.5     15.110     19.156
REMARK  Name = 6445562
REMARK  9 active torsions:
REMARK  status: ('A' for Active; 'I' for Inactive)
REMARK    1  A    between atoms: C_4  and  N_22
REMARK    2  A    between atoms: C_5  and  N_12
REMARK    3  A    between atoms: C_7  and  O_34
REMARK    4  A    between atoms: C_9  and  C_33
REMARK    5  A    between atoms: C_13  and  C_15
REMARK    6  A    between atoms: C_16  and  C_17
REMARK    7  A    between atoms: C_17  and  N_18
REMARK    8  A    between atoms: N_22  and  C_26
REMARK    9  A    between atoms: O_34  and  C_35
REMARK                            x       y       z     vdW  Elec       q    Type
REMARK                         _______ _______ _______ _____ _____    ______ ____
ROOT
ATOM      1  N   UNL     1      30.635  -4.896 -22.379  0.00  0.00    -0.247 NA
ATOM      2  C   UNL     1      32.444  -5.831 -23.667  0.00  0.00    +0.012 C 
ATOM      3  C   UNL     1      31.389  -4.910 -23.494  0.00  0.00    +0.064 C 
ATOM      4  C   UNL     1      32.695  -6.748 -22.637  0.00  0.00    +0.057 C 
ATOM      5  C   UNL     1      32.941  -4.897 -25.851  0.00  0.00    +0.063 C 
ATOM      6  C   UNL     1      33.212  -5.818 -24.844  0.00  0.00    +0.073 C 
ATOM      7  C   UNL     1      31.904  -3.986 -25.687  0.00  0.00    +0.131 C 
ATOM      8  C   UNL     1      31.141  -4.000 -24.518  0.00  0.00    +0.110 C 
ATOM      9  C   UNL     1      31.918  -6.735 -21.487  0.00  0.00    +0.101 C 
ATOM     10  C   UNL     1      30.910  -5.798 -21.409  0.00  0.00    +0.110 C 
ENDROOT
BRANCH   5  12
ATOM     11  O   UNL     1      34.596  -2.718 -27.089  0.00  0.00    -0.270 OA
ATOM     12  N   UNL     1      33.716  -4.899 -27.014  0.00  0.00    -0.281 N 
ATOM     13  C   UNL     1      34.472  -3.848 -27.548  0.00  0.00    +0.249 C 
ATOM     14  H   UNL     1      33.732  -5.744 -27.520  0.00  0.00    +0.155 HD
BRANCH  13  15
ATOM     15  C   UNL     1      35.160  -4.251 -28.811  0.00  0.00    +0.051 C 
ATOM     16  C   UNL     1      36.374  -4.819 -28.772  0.00  0.00    -0.044 C 
BRANCH  16  17
ATOM     17  C   UNL     1      37.115  -5.256 -30.000  0.00  0.00    -0.050 C 
BRANCH  17  18
ATOM     18  N   UNL     1      38.558  -5.113 -29.835  0.00  0.00    +0.387 N 
ATOM     19  C   UNL     1      38.867  -3.970 -28.974  0.00  0.00    -0.100 C 
ATOM     20  C   UNL     1      39.136  -6.338 -29.280  0.00  0.00    -0.100 C 
ATOM     21  H   UNL     1      38.970  -4.947 -30.753  0.00  0.00    -0.079 HD
ENDBRANCH  17  18
ENDBRANCH  16  17
ENDBRANCH  13  15
ENDBRANCH   5  12
BRANCH   4  22
ATOM     22  N   UNL     1      33.741  -7.699 -22.753  0.00  0.00    -0.312 N 
ATOM     23  H   UNL     1      34.565  -7.444 -22.279  0.00  0.00    +0.152 HD
BRANCH  22  26
ATOM     24 CL   UNL     1      35.853 -10.512 -26.485  0.00  0.00    -0.080 Cl
ATOM     25  F   UNL     1      34.066 -12.586 -25.347  0.00  0.00    -0.203 F 
ATOM     26  C   UNL     1      33.827  -8.935 -23.413  0.00  0.00    +0.049 C 
ATOM     27  C   UNL     1      34.696  -9.097 -24.497  0.00  0.00    +0.028 C 
ATOM     28  C   UNL     1      33.043 -10.014 -22.992  0.00  0.00    +0.017 C 
ATOM     29  C   UNL     1      34.780 -10.326 -25.152  0.00  0.00    +0.086 C 
ATOM     30  C   UNL     1      33.127 -11.242 -23.647  0.00  0.00    +0.032 C 
ATOM     31  C   UNL     1      33.996 -11.399 -24.727  0.00  0.00    +0.151 C 
ENDBRANCH  22  26
ENDBRANCH   4  22
BRANCH   9  33
ATOM     32  N   UNL     1      32.296  -8.386 -19.526  0.00  0.00    -0.191 NA
ATOM     33  C   UNL     1      32.127  -7.646 -20.405  0.00  0.00    +0.103 C 
ENDBRANCH   9  33
BRANCH   7  34
ATOM     34  O   UNL     1      31.616  -3.071 -26.655  0.00  0.00    -0.478 OA
BRANCH  34  35
ATOM     35  C   UNL     1      31.107  -1.811 -26.222  0.00  0.00    +0.205 C 
ATOM     36  C   UNL     1      29.608  -1.786 -26.436  0.00  0.00    +0.051 C 
ENDBRANCH  34  35
ENDBRANCH   7  34
TORSDOF 9
ENDMDL
MODEL 6
REMARK VINA RESULT:      -8.4      3.134      7.333
REMARK  Name = 6445562
REMARK  9 active torsions:
REMARK  status: ('A' for Active; 'I' for Inactive)
REMARK    1  A    between atoms: C_4  and  N_22
REMARK    2  A    between atoms: C_5  and  N_12
REMARK    3  A    between atoms: C_7  and  O_34
REMARK    4  A    between atoms: C_9  and  C_33
REMARK    5  A    between atoms: C_13  and  C_15
REMARK    6  A    between atoms: C_16  and  C_17
REMARK    7  A    between atoms: C_17  and  N_18
REMARK    8  A    between atoms: N_22  and  C_26
REMARK    9  A    between atoms: O_34  and  C_35
REMARK                            x       y       z     vdW  Elec       q    Type
REMARK                         _______ _______ _______ _____ _____    ______ ____
ROOT
ATOM      1  N   UNL     1      30.948 -23.387 -13.562  0.00  0.00    -0.247 NA
ATOM      2  C   UNL     1      32.634 -23.493 -15.280  0.00  0.00    +0.012 C 
ATOM      3  C   UNL     1      32.231 -23.561 -13.930  0.00  0.00    +0.064 C 
ATOM      4  C   UNL     1      31.654 -23.237 -16.249  0.00  0.00    +0.057 C 
ATOM      5  C   UNL     1      34.935 -23.932 -14.647  0.00  0.00    +0.063 C 
ATOM      6  C   UNL     1      33.982 -23.679 -15.629  0.00  0.00    +0.073 C 
ATOM      7  C   UNL     1      34.546 -24.000 -13.314  0.00  0.00    +0.131 C 
ATOM      8  C   UNL     1      33.205 -23.815 -12.968  0.00  0.00    +0.110 C 
ATOM      9  C   UNL     1      30.330 -23.058 -15.872  0.00  0.00    +0.101 C 
ATOM     10  C   UNL     1      30.033 -23.142 -14.528  0.00  0.00    +0.110 C 
ENDROOT
BRANCH   5  12
ATOM     11  O   UNL     1      36.920 -21.992 -15.791  0.00  0.00    -0.270 OA
ATOM     12  N   UNL     1      36.271 -24.115 -15.013  0.00  0.00    -0.281 N 
ATOM     13  C   UNL     1      37.156 -23.169 -15.545  0.00  0.00    +0.249 C 
ATOM     14  H   UNL     1      36.635 -25.021 -14.880  0.00  0.00    +0.155 HD
BRANCH  13  15
ATOM     15  C   UNL     1      38.503 -23.761 -15.803  0.00  0.00    +0.051 C 
ATOM     16  C   UNL     1      39.112 -24.502 -14.867  0.00  0.00    -0.044 C 
BRANCH  16  17
ATOM     17  C   UNL     1      40.458 -25.131 -15.065  0.00  0.00    -0.050 C 
BRANCH  17  18
ATOM     18  N   UNL     1      40.413 -26.574 -14.843  0.00  0.00    +0.387 N 
ATOM     19  C   UNL     1      41.303 -26.953 -13.745  0.00  0.00    -0.100 C 
ATOM     20  C   UNL     1      39.044 -27.008 -14.561  0.00  0.00    -0.100 C 
ATOM     21  H   UNL     1      40.731 -27.037 -15.694  0.00  0.00    -0.079 HD
ENDBRANCH  17  18
ENDBRANCH  16  17
ENDBRANCH  13  15
ENDBRANCH   5  12
BRANCH   4  22
ATOM     22  N   UNL     1      31.998 -23.157 -17.623  0.00  0.00    -0.312 N 
ATOM     23  H   UNL     1      31.436 -23.716 -18.207  0.00  0.00    +0.152 HD
BRANCH  22  26
ATOM     24 CL   UNL     1      33.145 -19.415 -20.938  0.00  0.00    -0.080 Cl
ATOM     25  F   UNL     1      35.906 -20.308 -20.328  0.00  0.00    -0.203 F 
ATOM     26  C   UNL     1      32.984 -22.433 -18.310  0.00  0.00    +0.049 C 
ATOM     27  C   UNL     1      32.622 -21.401 -19.183  0.00  0.00    +0.028 C 
ATOM     28  C   UNL     1      34.337 -22.737 -18.128  0.00  0.00    +0.017 C 
ATOM     29  C   UNL     1      33.604 -20.682 -19.866  0.00  0.00    +0.086 C 
ATOM     30  C   UNL     1      35.317 -22.019 -18.810  0.00  0.00    +0.032 C 
ATOM     31  C   UNL     1      34.951 -20.990 -19.679  0.00  0.00    +0.151 C 
ENDBRANCH  22  26
ENDBRANCH   4  22
BRANCH   9  33
ATOM     32  N   UNL     1      28.443 -22.577 -17.581  0.00  0.00    -0.191 NA
ATOM     33  C   UNL     1      29.289 -22.793 -16.815  0.00  0.00    +0.103 C 
ENDBRANCH   9  33
BRANCH   7  34
ATOM     34  O   UNL     1      35.455 -24.248 -12.330  0.00  0.00    -0.478 OA
BRANCH  34  35
ATOM     35  C   UNL     1      36.348 -23.188 -11.993  0.00  0.00    +0.205 C 
ATOM     36  C   UNL     1      37.712 -23.770 -11.689  0.00  0.00    +0.051 C 
ENDBRANCH  34  35
ENDBRANCH   7  34
TORSDOF 9
ENDMDL
MODEL 7
REMARK VINA RESULT:      -8.3     12.941     17.337
REMARK  Name = 6445562
REMARK  9 active torsions:
REMARK  status: ('A' for Active; 'I' for Inactive)
REMARK    1  A    between atoms: C_4  and  N_22
REMARK    2  A    between atoms: C_5  and  N_12
REMARK    3  A    between atoms: C_7  and  O_34
REMARK    4  A    between atoms: C_9  and  C_33
REMARK    5  A    between atoms: C_13  and  C_15
REMARK    6  A    between atoms: C_16  and  C_17
REMARK    7  A    between atoms: C_17  and  N_18
REMARK    8  A    between atoms: N_22  and  C_26
REMARK    9  A    between atoms: O_34  and  C_35
REMARK                            x       y       z     vdW  Elec       q    Type
REMARK                         _______ _______ _______ _____ _____    ______ ____
ROOT
ATOM      1  N   UNL     1      31.881  -8.492 -19.534  0.00  0.00    -0.247 NA
ATOM      2  C   UNL     1      32.110  -8.666 -21.926  0.00  0.00    +0.012 C 
ATOM      3  C   UNL     1      31.971  -7.909 -20.743  0.00  0.00    +0.064 C 
ATOM      4  C   UNL     1      32.154 -10.062 -21.814  0.00  0.00    +0.057 C 
ATOM      5  C   UNL     1      32.154  -6.636 -23.255  0.00  0.00    +0.063 C 
ATOM      6  C   UNL     1      32.201  -8.024 -23.173  0.00  0.00    +0.073 C 
ATOM      7  C   UNL     1      32.017  -5.883 -22.095  0.00  0.00    +0.131 C 
ATOM      8  C   UNL     1      31.927  -6.522 -20.856  0.00  0.00    +0.110 C 
ATOM      9  C   UNL     1      32.063 -10.665 -20.568  0.00  0.00    +0.101 C 
ATOM     10  C   UNL     1      31.928  -9.842 -19.469  0.00  0.00    +0.110 C 
ENDROOT
BRANCH   5  12
ATOM     11  O   UNL     1      34.511  -6.284 -25.083  0.00  0.00    -0.270 OA
ATOM     12  N   UNL     1      32.246  -6.015 -24.504  0.00  0.00    -0.281 N 
ATOM     13  C   UNL     1      33.378  -5.879 -25.318  0.00  0.00    +0.249 C 
ATOM     14  H   UNL     1      31.412  -5.626 -24.854  0.00  0.00    +0.155 HD
BRANCH  13  15
ATOM     15  C   UNL     1      33.062  -5.149 -26.582  0.00  0.00    +0.051 C 
ATOM     16  C   UNL     1      32.507  -3.929 -26.542  0.00  0.00    -0.044 C 
BRANCH  16  17
ATOM     17  C   UNL     1      32.174  -3.138 -27.771  0.00  0.00    -0.050 C 
BRANCH  17  18
ATOM     18  N   UNL     1      32.887  -3.640 -28.941  0.00  0.00    +0.387 N 
ATOM     19  C   UNL     1      31.946  -4.005 -30.000  0.00  0.00    -0.100 C 
ATOM     20  C   UNL     1      33.841  -2.643 -29.429  0.00  0.00    -0.100 C 
ATOM     21  H   UNL     1      33.404  -4.476 -28.666  0.00  0.00    -0.079 HD
ENDBRANCH  17  18
ENDBRANCH  16  17
ENDBRANCH  13  15
ENDBRANCH   5  12
BRANCH   4  22
ATOM     22  N   UNL     1      32.293 -10.877 -22.967  0.00  0.00    -0.312 N 
ATOM     23  H   UNL     1      31.594 -11.563 -23.055  0.00  0.00    +0.152 HD
BRANCH  22  26
ATOM     24 CL   UNL     1      33.895 -12.959 -27.372  0.00  0.00    -0.080 Cl
ATOM     25  F   UNL     1      36.023 -10.918 -27.065  0.00  0.00    -0.203 F 
ATOM     26  C   UNL     1      33.235 -10.891 -24.007  0.00  0.00    +0.049 C 
ATOM     27  C   UNL     1      33.116 -11.809 -25.055  0.00  0.00    +0.028 C 
ATOM     28  C   UNL     1      34.302  -9.986 -24.004  0.00  0.00    +0.017 C 
ATOM     29  C   UNL     1      34.053 -11.823 -26.088  0.00  0.00    +0.086 C 
ATOM     30  C   UNL     1      35.239  -9.999 -25.035  0.00  0.00    +0.032 C 
ATOM     31  C   UNL     1      35.115 -10.917 -26.079  0.00  0.00    +0.151 C 
ENDBRANCH  22  26
ENDBRANCH   4  22
BRANCH   9  33
ATOM     32  N   UNL     1      32.131 -13.236 -20.250  0.00  0.00    -0.191 NA
ATOM     33  C   UNL     1      32.101 -12.084 -20.392  0.00  0.00    +0.103 C 
ENDBRANCH   9  33
BRANCH   7  34
ATOM     34  O   UNL     1      31.970  -4.522 -22.143  0.00  0.00    -0.478 OA
BRANCH  34  35
ATOM     35  C   UNL     1      30.744  -3.933 -22.575  0.00  0.00    +0.205 C 
ATOM     36  C   UNL     1      31.051  -2.663 -23.339  0.00  0.00    +0.051 C 
ENDBRANCH  34  35
ENDBRANCH   7  34
TORSDOF 9
ENDMDL
MODEL 8
REMARK VINA RESULT:      -8.2      2.174      3.076
REMARK  Name = 6445562
REMARK  9 active torsions:
REMARK  status: ('A' for Active; 'I' for Inactive)
REMARK    1  A    between atoms: C_4  and  N_22
REMARK    2  A    between atoms: C_5  and  N_12
REMARK    3  A    between atoms: C_7  and  O_34
REMARK    4  A    between atoms: C_9  and  C_33
REMARK    5  A    between atoms: C_13  and  C_15
REMARK    6  A    between atoms: C_16  and  C_17
REMARK    7  A    between atoms: C_17  and  N_18
REMARK    8  A    between atoms: N_22  and  C_26
REMARK    9  A    between atoms: O_34  and  C_35
REMARK                            x       y       z     vdW  Elec       q    Type
REMARK                         _______ _______ _______ _____ _____    ______ ____
ROOT
ATOM      1  N   UNL     1      35.543 -23.389 -14.816  0.00  0.00    -0.247 NA
ATOM      2  C   UNL     1      33.990 -23.024 -16.622  0.00  0.00    +0.012 C 
ATOM      3  C   UNL     1      35.263 -22.881 -16.031  0.00  0.00    +0.064 C 
ATOM      4  C   UNL     1      33.005 -23.718 -15.906  0.00  0.00    +0.057 C 
ATOM      5  C   UNL     1      34.729 -21.797 -18.581  0.00  0.00    +0.063 C 
ATOM      6  C   UNL     1      33.732 -22.481 -17.892  0.00  0.00    +0.073 C 
ATOM      7  C   UNL     1      35.985 -21.652 -18.006  0.00  0.00    +0.131 C 
ATOM      8  C   UNL     1      36.241 -22.192 -16.743  0.00  0.00    +0.110 C 
ATOM      9  C   UNL     1      33.292 -24.243 -14.654  0.00  0.00    +0.101 C 
ATOM     10  C   UNL     1      34.565 -24.052 -14.159  0.00  0.00    +0.110 C 
ENDROOT
BRANCH   5  12
ATOM     11  O   UNL     1      32.356 -20.237 -19.558  0.00  0.00    -0.270 OA
ATOM     12  N   UNL     1      34.453 -21.264 -19.843  0.00  0.00    -0.281 N 
ATOM     13  C   UNL     1      33.323 -20.541 -20.246  0.00  0.00    +0.249 C 
ATOM     14  H   UNL     1      35.138 -21.417 -20.535  0.00  0.00    +0.155 HD
BRANCH  13  15
ATOM     15  C   UNL     1      33.407 -20.146 -21.684  0.00  0.00    +0.051 C 
ATOM     16  C   UNL     1      34.402 -19.357 -22.116  0.00  0.00    -0.044 C 
BRANCH  16  17
ATOM     17  C   UNL     1      34.549 -18.931 -23.545  0.00  0.00    -0.050 C 
BRANCH  17  18
ATOM     18  N   UNL     1      35.272 -17.667 -23.656  0.00  0.00    +0.387 N 
ATOM     19  C   UNL     1      34.761 -16.879 -24.779  0.00  0.00    -0.100 C 
ATOM     20  C   UNL     1      35.169 -16.906 -22.411  0.00  0.00    -0.100 C 
ATOM     21  H   UNL     1      36.256 -17.876 -23.828  0.00  0.00    -0.079 HD
ENDBRANCH  17  18
ENDBRANCH  16  17
ENDBRANCH  13  15
ENDBRANCH   5  12
BRANCH   4  22
ATOM     22  N   UNL     1      31.705 -23.894 -16.447  0.00  0.00    -0.312 N 
ATOM     23  H   UNL     1      31.666 -24.545 -17.184  0.00  0.00    +0.152 HD
BRANCH  22  26
ATOM     24 CL   UNL     1      27.000 -22.562 -17.994  0.00  0.00    -0.080 Cl
ATOM     25  F   UNL     1      26.812 -21.618 -15.190  0.00  0.00    -0.203 F 
ATOM     26  C   UNL     1      30.465 -23.318 -16.133  0.00  0.00    +0.049 C 
ATOM     27  C   UNL     1      29.460 -23.233 -17.104  0.00  0.00    +0.028 C 
ATOM     28  C   UNL     1      30.222 -22.825 -14.848  0.00  0.00    +0.017 C 
ATOM     29  C   UNL     1      28.227 -22.661 -16.791  0.00  0.00    +0.086 C 
ATOM     30  C   UNL     1      28.990 -22.252 -14.535  0.00  0.00    +0.032 C 
ATOM     31  C   UNL     1      27.992 -22.171 -15.506  0.00  0.00    +0.151 C 
ENDBRANCH  22  26
ENDBRANCH   4  22
BRANCH   9  33
ATOM     32  N   UNL     1      31.544 -25.539 -13.247  0.00  0.00    -0.191 NA
ATOM     33  C   UNL     1      32.327 -24.958 -13.877  0.00  0.00    +0.103 C 
ENDBRANCH   9  33
BRANCH   7  34
ATOM     34  O   UNL     1      36.982 -20.989 -18.656  0.00  0.00    -0.478 OA
BRANCH  34  35
ATOM     35  C   UNL     1      36.954 -21.018 -20.083  0.00  0.00    +0.205 C 
ATOM     36  C   UNL     1      37.259 -19.631 -20.609  0.00  0.00    +0.051 C 
ENDBRANCH  34  35
ENDBRANCH   7  34
TORSDOF 9
ENDMDL
MODEL 9
REMARK VINA RESULT:      -7.9     11.291     15.530
REMARK  Name = 6445562
REMARK  9 active torsions:
REMARK  status: ('A' for Active; 'I' for Inactive)
REMARK    1  A    between atoms: C_4  and  N_22
REMARK    2  A    between atoms: C_5  and  N_12
REMARK    3  A    between atoms: C_7  and  O_34
REMARK    4  A    between atoms: C_9  and  C_33
REMARK    5  A    between atoms: C_13  and  C_15
REMARK    6  A    between atoms: C_16  and  C_17
REMARK    7  A    between atoms: C_17  and  N_18
REMARK    8  A    between atoms: N_22  and  C_26
REMARK    9  A    between atoms: O_34  and  C_35
REMARK                            x       y       z     vdW  Elec       q    Type
REMARK                         _______ _______ _______ _____ _____    ______ ____
ROOT
ATOM      1  N   UNL     1      31.742 -10.550 -19.562  0.00  0.00    -0.247 NA
ATOM      2  C   UNL     1      32.235 -10.318 -21.909  0.00  0.00    +0.012 C 
ATOM      3  C   UNL     1      31.977  -9.772 -20.634  0.00  0.00    +0.064 C 
ATOM      4  C   UNL     1      32.240 -11.714 -22.039  0.00  0.00    +0.057 C 
ATOM      5  C   UNL     1      32.466  -8.093 -22.850  0.00  0.00    +0.063 C 
ATOM      6  C   UNL     1      32.477  -9.476 -23.007  0.00  0.00    +0.073 C 
ATOM      7  C   UNL     1      32.213  -7.547 -21.597  0.00  0.00    +0.131 C 
ATOM      8  C   UNL     1      31.973  -8.385 -20.506  0.00  0.00    +0.110 C 
ATOM      9  C   UNL     1      31.998 -12.519 -20.935  0.00  0.00    +0.101 C 
ATOM     10  C   UNL     1      31.756 -11.892 -19.730  0.00  0.00    +0.110 C 
ENDROOT
BRANCH   5  12
ATOM     11  O   UNL     1      35.047  -7.016 -23.942  0.00  0.00    -0.270 OA
ATOM     12  N   UNL     1      32.709  -7.271 -23.954  0.00  0.00    -0.281 N 
ATOM     13  C   UNL     1      33.941  -6.797 -24.420  0.00  0.00    +0.249 C 
ATOM     14  H   UNL     1      31.916  -6.992 -24.466  0.00  0.00    +0.155 HD
BRANCH  13  15
ATOM     15  C   UNL     1      33.777  -5.941 -25.634  0.00  0.00    +0.051 C 
ATOM     16  C   UNL     1      32.847  -4.976 -25.665  0.00  0.00    -0.044 C 
BRANCH  16  17
ATOM     17  C   UNL     1      32.636  -4.078 -26.846  0.00  0.00    -0.050 C 
BRANCH  17  18
ATOM     18  N   UNL     1      32.208  -2.744 -26.436  0.00  0.00    +0.387 N 
ATOM     19  C   UNL     1      31.916  -1.915 -27.605  0.00  0.00    -0.100 C 
ATOM     20  C   UNL     1      31.034  -2.827 -25.565  0.00  0.00    -0.100 C 
ATOM     21  H   UNL     1      32.969  -2.311 -25.913  0.00  0.00    -0.079 HD
ENDBRANCH  17  18
ENDBRANCH  16  17
ENDBRANCH  13  15
ENDBRANCH   5  12
BRANCH   4  22
ATOM     22  N   UNL     1      32.492 -12.323 -23.296  0.00  0.00    -0.312 N 
ATOM     23  H   UNL     1      32.131 -11.821 -24.061  0.00  0.00    +0.152 HD
BRANCH  22  26
ATOM     24 CL   UNL     1      32.862 -16.320 -26.488  0.00  0.00    -0.080 Cl
ATOM     25  F   UNL     1      35.137 -16.983 -24.708  0.00  0.00    -0.203 F 
ATOM     26  C   UNL     1      33.159 -13.503 -23.657  0.00  0.00    +0.049 C 
ATOM     27  C   UNL     1      32.733 -14.244 -24.765  0.00  0.00    +0.028 C 
ATOM     28  C   UNL     1      34.255 -13.950 -22.912  0.00  0.00    +0.017 C 
ATOM     29  C   UNL     1      33.396 -15.418 -25.123  0.00  0.00    +0.086 C 
ATOM     30  C   UNL     1      34.918 -15.123 -23.269  0.00  0.00    +0.032 C 
ATOM     31  C   UNL     1      34.489 -15.857 -24.376  0.00  0.00    +0.151 C 
ENDBRANCH  22  26
ENDBRANCH   4  22
BRANCH   9  33
ATOM     32  N   UNL     1      31.982 -15.106 -21.067  0.00  0.00    -0.191 NA
ATOM     33  C   UNL     1      31.989 -13.946 -21.008  0.00  0.00    +0.103 C 
ENDBRANCH   9  33
BRANCH   7  34
ATOM     34  O   UNL     1      32.197  -6.197 -21.411  0.00  0.00    -0.478 OA
BRANCH  34  35
ATOM     35  C   UNL     1      30.918  -5.573 -21.318  0.00  0.00    +0.205 C 
ATOM     36  C   UNL     1      30.713  -4.686 -22.528  0.00  0.00    +0.051 C 
ENDBRANCH  34  35
ENDBRANCH   7  34
TORSDOF 9
ENDMDL
